MODEL 1
REMARK VINA RESULT:      -8.2      0.000      0.000
REMARK  Name = 
REMARK  7 active torsions:
REMARK  status: ('A' for Active; 'I' for Inactive)
REMARK    1  A    between atoms: O_1  and  C_2
REMARK    2  A    between atoms: C_6  and  C_7
REMARK    3  A    between atoms: C_7  and  C_8
REMARK    4  A    between atoms: C_7  and  N_16
REMARK    5  A    between atoms: C_8  and  C_9
REMARK    6  A    between atoms: C_14  and  O_15
REMARK    7  A    between atoms: N_19  and  C_20
REMARK                            x       y       z     vdW  Elec       q    Type
REMARK                         _______ _______ _______ _____ _____    ______ ____
ROOT
ATOM      1  C   UNL     1       2.906   6.184  19.059  0.00  0.00    +0.000 C 
ENDROOT
BRANCH   1   6
ATOM      2  C   UNL     1       1.484   3.099  20.903  0.00  0.00    +0.000 A 
ATOM      3  C   UNL     1       0.936   2.360  19.866  0.00  0.00    +0.000 A 
ATOM      4  C   UNL     1       0.980   2.873  18.573  0.00  0.00    +0.000 A 
ATOM      5  C   UNL     1       1.634   4.086  18.323  0.00  0.00    +0.000 A 
ATOM      6  C   UNL     1       2.179   4.857  19.374  0.00  0.00    +0.000 A 
ATOM      7  C   UNL     1       2.030   4.359  20.676  0.00  0.00    +0.000 A 
BRANCH   2   8
ATOM      8  O   UNL     1       1.531   2.599  22.172  0.00  0.00    +0.000 OA
ATOM      9  H   UNL     1       0.614   2.481  22.470  0.00  0.00    +0.000 HD
ENDBRANCH   2   8
ENDBRANCH   1   6
BRANCH   1  10
ATOM     10  N   UNL     1       2.078   7.407  19.123  0.00  0.00    +0.000 NA
ATOM     11  C   UNL     1       1.681   7.982  20.408  0.00  0.00    +0.000 C 
ATOM     12  C   UNL     1       1.636   9.537  20.492  0.00  0.00    +0.000 C 
ATOM     13  N   UNL     1       1.093  10.249  19.300  0.00  0.00    +0.000 NA
ATOM     14  C   UNL     1       1.886   9.741  18.168  0.00  0.00    +0.000 C 
ATOM     15  C   UNL     1       1.811   8.213  17.945  0.00  0.00    +0.000 C 
BRANCH  13  16
ATOM     16  C   UNL     1      -0.375  10.060  19.140  0.00  0.00    +0.000 C 
ATOM     17  C   UNL     1      -1.138  10.455  20.425  0.00  0.00    +0.000 C 
ATOM     18  C   UNL     1      -1.127  11.960  20.684  0.00  0.00    +0.000 C 
ATOM     19  C   UNL     1      -1.754  12.738  19.534  0.00  0.00    +0.000 C 
ATOM     20  C   UNL     1      -1.208  12.340  18.166  0.00  0.00    +0.000 C 
ATOM     21  C   UNL     1      -1.046  10.831  17.969  0.00  0.00    +0.000 C 
ENDBRANCH  13  16
ENDBRANCH   1  10
BRANCH   1  22
ATOM     22  C   UNL     1       3.884   6.028  17.829  0.00  0.00    +0.000 C 
BRANCH  22  23
ATOM     23  C   UNL     1       5.373   6.276  18.031  0.00  0.00    +0.000 A 
ATOM     24  C   UNL     1       6.001   7.345  17.368  0.00  0.00    +0.000 A 
ATOM     25  C   UNL     1       7.372   7.589  17.503  0.00  0.00    +0.000 A 
ATOM     26  C   UNL     1       8.144   6.764  18.307  0.00  0.00    +0.000 A 
ATOM     27  C   UNL     1       7.556   5.681  18.953  0.00  0.00    +0.000 A 
ATOM     28  C   UNL     1       6.185   5.440  18.810  0.00  0.00    +0.000 A 
BRANCH  28  29
ATOM     29  O   UNL     1       5.643   4.343  19.420  0.00  0.00    +0.000 OA
ATOM     30  H   UNL     1       6.324   3.936  19.980  0.00  0.00    +0.000 HD
ENDBRANCH  28  29
ENDBRANCH  22  23
ENDBRANCH   1  22
TORSDOF 7
ENDMDL
MODEL 2
REMARK VINA RESULT:      -8.2      1.152      1.360
REMARK  Name = 
REMARK  7 active torsions:
REMARK  status: ('A' for Active; 'I' for Inactive)
REMARK    1  A    between atoms: O_1  and  C_2
REMARK    2  A    between atoms: C_6  and  C_7
REMARK    3  A    between atoms: C_7  and  C_8
REMARK    4  A    between atoms: C_7  and  N_16
REMARK    5  A    between atoms: C_8  and  C_9
REMARK    6  A    between atoms: C_14  and  O_15
REMARK    7  A    between atoms: N_19  and  C_20
REMARK                            x       y       z     vdW  Elec       q    Type
REMARK                         _______ _______ _______ _____ _____    ______ ____
ROOT
ATOM      1  C   UNL     1       2.922   6.446  18.908  0.00  0.00    +0.000 C 
ENDROOT
BRANCH   1   6
ATOM      2  C   UNL     1       1.792   3.349  20.926  0.00  0.00    +0.000 A 
ATOM      3  C   UNL     1       1.209   2.555  19.949  0.00  0.00    +0.000 A 
ATOM      4  C   UNL     1       1.136   3.033  18.645  0.00  0.00    +0.000 A 
ATOM      5  C   UNL     1       1.708   4.269  18.318  0.00  0.00    +0.000 A 
ATOM      6  C   UNL     1       2.287   5.095  19.308  0.00  0.00    +0.000 A 
ATOM      7  C   UNL     1       2.256   4.627  20.629  0.00  0.00    +0.000 A 
BRANCH   2   8
ATOM      8  O   UNL     1       1.954   2.888  22.200  0.00  0.00    +0.000 OA
ATOM      9  H   UNL     1       2.908   2.769  22.345  0.00  0.00    +0.000 HD
ENDBRANCH   2   8
ENDBRANCH   1   6
BRANCH   1  10
ATOM     10  N   UNL     1       2.063   7.639  19.073  0.00  0.00    +0.000 NA
ATOM     11  C   UNL     1       1.680   8.115  20.401  0.00  0.00    +0.000 C 
ATOM     12  C   UNL     1       1.596   9.659  20.591  0.00  0.00    +0.000 C 
ATOM     13  N   UNL     1       1.007  10.433  19.462  0.00  0.00    +0.000 NA
ATOM     14  C   UNL     1       1.789  10.025  18.282  0.00  0.00    +0.000 C 
ATOM     15  C   UNL     1       1.749   8.514  17.957  0.00  0.00    +0.000 C 
BRANCH  13  16
ATOM     16  C   UNL     1      -0.458  10.215  19.319  0.00  0.00    +0.000 C 
ATOM     17  C   UNL     1      -1.221  10.669  20.585  0.00  0.00    +0.000 C 
ATOM     18  C   UNL     1      -1.232  12.186  20.761  0.00  0.00    +0.000 C 
ATOM     19  C   UNL     1      -1.874  12.890  19.573  0.00  0.00    +0.000 C 
ATOM     20  C   UNL     1      -1.328  12.426  18.226  0.00  0.00    +0.000 C 
ATOM     21  C   UNL     1      -1.145  10.911  18.112  0.00  0.00    +0.000 C 
ENDBRANCH  13  16
ENDBRANCH   1  10
BRANCH   1  22
ATOM     22  C   UNL     1       3.750   6.321  17.570  0.00  0.00    +0.000 C 
BRANCH  22  23
ATOM     23  C   UNL     1       5.143   5.708  17.616  0.00  0.00    +0.000 A 
ATOM     24  C   UNL     1       5.837   5.639  18.836  0.00  0.00    +0.000 A 
ATOM     25  C   UNL     1       7.131   5.109  18.917  0.00  0.00    +0.000 A 
ATOM     26  C   UNL     1       7.756   4.638  17.771  0.00  0.00    +0.000 A 
ATOM     27  C   UNL     1       7.104   4.719  16.545  0.00  0.00    +0.000 A 
ATOM     28  C   UNL     1       5.813   5.253  16.471  0.00  0.00    +0.000 A 
BRANCH  28  29
ATOM     29  O   UNL     1       5.215   5.361  15.246  0.00  0.00    +0.000 OA
ATOM     30  H   UNL     1       5.626   6.100  14.768  0.00  0.00    +0.000 HD
ENDBRANCH  28  29
ENDBRANCH  22  23
ENDBRANCH   1  22
TORSDOF 7
ENDMDL
MODEL 3
REMARK VINA RESULT:      -8.2      1.476      2.194
REMARK  Name = 
REMARK  7 active torsions:
REMARK  status: ('A' for Active; 'I' for Inactive)
REMARK    1  A    between atoms: O_1  and  C_2
REMARK    2  A    between atoms: C_6  and  C_7
REMARK    3  A    between atoms: C_7  and  C_8
REMARK    4  A    between atoms: C_7  and  N_16
REMARK    5  A    between atoms: C_8  and  C_9
REMARK    6  A    between atoms: C_14  and  O_15
REMARK    7  A    between atoms: N_19  and  C_20
REMARK                            x       y       z     vdW  Elec       q    Type
REMARK                         _______ _______ _______ _____ _____    ______ ____
ROOT
ATOM      1  C   UNL     1       2.943   6.886  18.970  0.00  0.00    +0.000 C 
ENDROOT
BRANCH   1   6
ATOM      2  C   UNL     1       1.784   3.755  20.918  0.00  0.00    +0.000 A 
ATOM      3  C   UNL     1       1.153   3.010  19.933  0.00  0.00    +0.000 A 
ATOM      4  C   UNL     1       1.056   3.533  18.648  0.00  0.00    +0.000 A 
ATOM      5  C   UNL     1       1.653   4.763  18.345  0.00  0.00    +0.000 A 
ATOM      6  C   UNL     1       2.283   5.540  19.343  0.00  0.00    +0.000 A 
ATOM      7  C   UNL     1       2.276   5.029  20.649  0.00  0.00    +0.000 A 
BRANCH   2   8
ATOM      8  O   UNL     1       1.970   3.247  22.170  0.00  0.00    +0.000 OA
ATOM      9  H   UNL     1       2.836   2.807  22.179  0.00  0.00    +0.000 HD
ENDBRANCH   2   8
ENDBRANCH   1   6
BRANCH   1  10
ATOM     10  N   UNL     1       2.133   8.096  19.221  0.00  0.00    +0.000 NA
ATOM     11  C   UNL     1       1.713   8.965  18.122  0.00  0.00    +0.000 C 
ATOM     12  C   UNL     1       0.294   9.597  18.234  0.00  0.00    +0.000 C 
ATOM     13  N   UNL     1      -0.114  10.069  19.587  0.00  0.00    +0.000 NA
ATOM     14  C   UNL     1       0.085   8.904  20.466  0.00  0.00    +0.000 C 
ATOM     15  C   UNL     1       1.530   8.358  20.516  0.00  0.00    +0.000 C 
BRANCH  13  16
ATOM     16  C   UNL     1       0.630  11.284  20.019  0.00  0.00    +0.000 C 
ATOM     17  C   UNL     1       0.577  12.391  18.941  0.00  0.00    +0.000 C 
ATOM     18  C   UNL     1      -0.811  13.013  18.795  0.00  0.00    +0.000 C 
ATOM     19  C   UNL     1      -1.294  13.633  20.100  0.00  0.00    +0.000 C 
ATOM     20  C   UNL     1      -1.154  12.703  21.301  0.00  0.00    +0.000 C 
ATOM     21  C   UNL     1       0.171  11.938  21.352  0.00  0.00    +0.000 C 
ENDBRANCH  13  16
ENDBRANCH   1  10
BRANCH   1  22
ATOM     22  C   UNL     1       3.707   6.790  17.591  0.00  0.00    +0.000 C 
BRANCH  22  23
ATOM     23  C   UNL     1       5.033   6.044  17.529  0.00  0.00    +0.000 A 
ATOM     24  C   UNL     1       5.590   5.508  18.704  0.00  0.00    +0.000 A 
ATOM     25  C   UNL     1       6.820   4.841  18.695  0.00  0.00    +0.000 A 
ATOM     26  C   UNL     1       7.519   4.698  17.506  0.00  0.00    +0.000 A 
ATOM     27  C   UNL     1       7.006   5.242  16.333  0.00  0.00    +0.000 A 
ATOM     28  C   UNL     1       5.778   5.911  16.349  0.00  0.00    +0.000 A 
BRANCH  28  29
ATOM     29  O   UNL     1       5.320   6.474  15.190  0.00  0.00    +0.000 OA
ATOM     30  H   UNL     1       5.676   7.375  15.125  0.00  0.00    +0.000 HD
ENDBRANCH  28  29
ENDBRANCH  22  23
ENDBRANCH   1  22
TORSDOF 7
ENDMDL
MODEL 4
REMARK VINA RESULT:      -8.1      1.389      1.804
REMARK  Name = 
REMARK  7 active torsions:
REMARK  status: ('A' for Active; 'I' for Inactive)
REMARK    1  A    between atoms: O_1  and  C_2
REMARK    2  A    between atoms: C_6  and  C_7
REMARK    3  A    between atoms: C_7  and  C_8
REMARK    4  A    between atoms: C_7  and  N_16
REMARK    5  A    between atoms: C_8  and  C_9
REMARK    6  A    between atoms: C_14  and  O_15
REMARK    7  A    between atoms: N_19  and  C_20
REMARK                            x       y       z     vdW  Elec       q    Type
REMARK                         _______ _______ _______ _____ _____    ______ ____
ROOT
ATOM      1  C   UNL     1       2.936   6.366  18.998  0.00  0.00    +0.000 C 
ENDROOT
BRANCH   1   6
ATOM      2  C   UNL     1       1.039   3.009  19.272  0.00  0.00    +0.000 A 
ATOM      3  C   UNL     1       1.191   2.691  20.613  0.00  0.00    +0.000 A 
ATOM      4  C   UNL     1       1.945   3.532  21.426  0.00  0.00    +0.000 A 
ATOM      5  C   UNL     1       2.478   4.717  20.904  0.00  0.00    +0.000 A 
ATOM      6  C   UNL     1       2.346   5.042  19.536  0.00  0.00    +0.000 A 
ATOM      7  C   UNL     1       1.666   4.124  18.723  0.00  0.00    +0.000 A 
BRANCH   2   8
ATOM      8  O   UNL     1       0.245   2.255  18.458  0.00  0.00    +0.000 OA
ATOM      9  H   UNL     1       0.642   1.370  18.406  0.00  0.00    +0.000 HD
ENDBRANCH   2   8
ENDBRANCH   1   6
BRANCH   1  10
ATOM     10  N   UNL     1       2.070   7.557  19.119  0.00  0.00    +0.000 NA
ATOM     11  C   UNL     1       1.682   8.078  20.429  0.00  0.00    +0.000 C 
ATOM     12  C   UNL     1       1.588   9.627  20.565  0.00  0.00    +0.000 C 
ATOM     13  N   UNL     1       0.997  10.357  19.409  0.00  0.00    +0.000 NA
ATOM     14  C   UNL     1       1.782   9.913  18.244  0.00  0.00    +0.000 C 
ATOM     15  C   UNL     1       1.752   8.391  17.973  0.00  0.00    +0.000 C 
BRANCH  13  16
ATOM     16  C   UNL     1      -0.467  10.125  19.272  0.00  0.00    +0.000 C 
ATOM     17  C   UNL     1      -1.232  10.590  20.532  0.00  0.00    +0.000 C 
ATOM     18  C   UNL     1      -1.255  12.110  20.688  0.00  0.00    +0.000 C 
ATOM     19  C   UNL     1      -1.905  12.792  19.491  0.00  0.00    +0.000 C 
ATOM     20  C   UNL     1      -1.358  12.313  18.150  0.00  0.00    +0.000 C 
ATOM     21  C   UNL     1      -1.162  10.799  18.056  0.00  0.00    +0.000 C 
ENDBRANCH  13  16
ENDBRANCH   1  10
BRANCH   1  22
ATOM     22  C   UNL     1       3.690   6.146  17.628  0.00  0.00    +0.000 C 
BRANCH  22  23
ATOM     23  C   UNL     1       5.109   5.594  17.643  0.00  0.00    +0.000 A 
ATOM     24  C   UNL     1       5.837   5.569  18.846  0.00  0.00    +0.000 A 
ATOM     25  C   UNL     1       7.154   5.098  18.898  0.00  0.00    +0.000 A 
ATOM     26  C   UNL     1       7.770   4.642  17.741  0.00  0.00    +0.000 A 
ATOM     27  C   UNL     1       7.084   4.681  16.532  0.00  0.00    +0.000 A 
ATOM     28  C   UNL     1       5.769   5.157  16.486  0.00  0.00    +0.000 A 
BRANCH  28  29
ATOM     29  O   UNL     1       5.136   5.226  15.276  0.00  0.00    +0.000 OA
ATOM     30  H   UNL     1       4.206   5.458  15.429  0.00  0.00    +0.000 HD
ENDBRANCH  28  29
ENDBRANCH  22  23
ENDBRANCH   1  22
TORSDOF 7
ENDMDL
MODEL 5
REMARK VINA RESULT:      -8.0      0.816      1.216
REMARK  Name = 
REMARK  7 active torsions:
REMARK  status: ('A' for Active; 'I' for Inactive)
REMARK    1  A    between atoms: O_1  and  C_2
REMARK    2  A    between atoms: C_6  and  C_7
REMARK    3  A    between atoms: C_7  and  C_8
REMARK    4  A    between atoms: C_7  and  N_16
REMARK    5  A    between atoms: C_8  and  C_9
REMARK    6  A    between atoms: C_14  and  O_15
REMARK    7  A    between atoms: N_19  and  C_20
REMARK                            x       y       z     vdW  Elec       q    Type
REMARK                         _______ _______ _______ _____ _____    ______ ____
ROOT
ATOM      1  C   UNL     1       2.973   6.236  19.219  0.00  0.00    +0.000 C 
ENDROOT
BRANCH   1   6
ATOM      2  C   UNL     1       0.987   2.921  19.309  0.00  0.00    +0.000 A 
ATOM      3  C   UNL     1       1.059   2.569  20.649  0.00  0.00    +0.000 A 
ATOM      4  C   UNL     1       1.786   3.372  21.520  0.00  0.00    +0.000 A 
ATOM      5  C   UNL     1       2.374   4.556  21.057  0.00  0.00    +0.000 A 
ATOM      6  C   UNL     1       2.324   4.915  19.692  0.00  0.00    +0.000 A 
ATOM      7  C   UNL     1       1.668   4.033  18.822  0.00  0.00    +0.000 A 
BRANCH   2   8
ATOM      8  O   UNL     1       0.221   2.205  18.436  0.00  0.00    +0.000 OA
ATOM      9  H   UNL     1      -0.684   2.552  18.494  0.00  0.00    +0.000 HD
ENDBRANCH   2   8
ENDBRANCH   1   6
BRANCH   1  10
ATOM     10  N   UNL     1       2.093   7.424  19.215  0.00  0.00    +0.000 NA
ATOM     11  C   UNL     1       1.652   8.040  20.466  0.00  0.00    +0.000 C 
ATOM     12  C   UNL     1       1.541   9.593  20.478  0.00  0.00    +0.000 C 
ATOM     13  N   UNL     1       0.988  10.226  19.247  0.00  0.00    +0.000 NA
ATOM     14  C   UNL     1       1.821   9.703  18.151  0.00  0.00    +0.000 C 
ATOM     15  C   UNL     1       1.813   8.164  17.997  0.00  0.00    +0.000 C 
BRANCH  13  16
ATOM     16  C   UNL     1      -0.468   9.969  19.074  0.00  0.00    +0.000 C 
ATOM     17  C   UNL     1      -1.261  10.341  20.348  0.00  0.00    +0.000 C 
ATOM     18  C   UNL     1      -1.323  11.847  20.592  0.00  0.00    +0.000 C 
ATOM     19  C   UNL     1      -1.972  12.584  19.428  0.00  0.00    +0.000 C 
ATOM     20  C   UNL     1      -1.395  12.199  18.069  0.00  0.00    +0.000 C 
ATOM     21  C   UNL     1      -1.161  10.697  17.889  0.00  0.00    +0.000 C 
ENDBRANCH  13  16
ENDBRANCH   1  10
BRANCH   1  22
ATOM     22  C   UNL     1       3.896   6.006  17.958  0.00  0.00    +0.000 C 
BRANCH  22  23
ATOM     23  C   UNL     1       5.391   6.265  18.078  0.00  0.00    +0.000 A 
ATOM     24  C   UNL     1       5.971   7.345  17.390  0.00  0.00    +0.000 A 
ATOM     25  C   UNL     1       7.346   7.601  17.450  0.00  0.00    +0.000 A 
ATOM     26  C   UNL     1       8.169   6.777  18.202  0.00  0.00    +0.000 A 
ATOM     27  C   UNL     1       7.628   5.684  18.871  0.00  0.00    +0.000 A 
ATOM     28  C   UNL     1       6.253   5.431  18.804  0.00  0.00    +0.000 A 
BRANCH  28  29
ATOM     29  O   UNL     1       5.756   4.325  19.434  0.00  0.00    +0.000 OA
ATOM     30  H   UNL     1       4.789   4.332  19.350  0.00  0.00    +0.000 HD
ENDBRANCH  28  29
ENDBRANCH  22  23
ENDBRANCH   1  22
TORSDOF 7
ENDMDL
MODEL 6
REMARK VINA RESULT:      -7.9      0.900      1.616
REMARK  Name = 
REMARK  7 active torsions:
REMARK  status: ('A' for Active; 'I' for Inactive)
REMARK    1  A    between atoms: O_1  and  C_2
REMARK    2  A    between atoms: C_6  and  C_7
REMARK    3  A    between atoms: C_7  and  C_8
REMARK    4  A    between atoms: C_7  and  N_16
REMARK    5  A    between atoms: C_8  and  C_9
REMARK    6  A    between atoms: C_14  and  O_15
REMARK    7  A    between atoms: N_19  and  C_20
REMARK                            x       y       z     vdW  Elec       q    Type
REMARK                         _______ _______ _______ _____ _____    ______ ____
ROOT
ATOM      1  C   UNL     1       3.054   6.401  19.141  0.00  0.00    +0.000 C 
ENDROOT
BRANCH   1   6
ATOM      2  C   UNL     1       1.377   3.372  20.860  0.00  0.00    +0.000 A 
ATOM      3  C   UNL     1       0.761   2.731  19.796  0.00  0.00    +0.000 A 
ATOM      4  C   UNL     1       0.843   3.295  18.527  0.00  0.00    +0.000 A 
ATOM      5  C   UNL     1       1.599   4.457  18.325  0.00  0.00    +0.000 A 
ATOM      6  C   UNL     1       2.216   5.129  19.403  0.00  0.00    +0.000 A 
ATOM      7  C   UNL     1       2.030   4.588  20.684  0.00  0.00    +0.000 A 
BRANCH   2   8
ATOM      8  O   UNL     1       1.387   2.813  22.105  0.00  0.00    +0.000 OA
ATOM      9  H   UNL     1       2.068   2.120  22.104  0.00  0.00    +0.000 HD
ENDBRANCH   2   8
ENDBRANCH   1   6
BRANCH   1  10
ATOM     10  N   UNL     1       2.334   7.687  19.257  0.00  0.00    +0.000 NA
ATOM     11  C   UNL     1       2.108   8.533  18.086  0.00  0.00    +0.000 C 
ATOM     12  C   UNL     1       0.747   9.288  18.023  0.00  0.00    +0.000 C 
ATOM     13  N   UNL     1       0.248   9.859  19.306  0.00  0.00    +0.000 NA
ATOM     14  C   UNL     1       0.251   8.725  20.247  0.00  0.00    +0.000 C 
ATOM     15  C   UNL     1       1.629   8.061  20.470  0.00  0.00    +0.000 C 
BRANCH  13  16
ATOM     16  C   UNL     1       1.050  11.026  19.766  0.00  0.00    +0.000 C 
ATOM     17  C   UNL     1       1.088  12.140  18.695  0.00  0.00    +0.000 C 
ATOM     18  C   UNL     1      -0.257  12.843  18.520  0.00  0.00    +0.000 C 
ATOM     19  C   UNL     1      -0.735  13.482  19.817  0.00  0.00    +0.000 C 
ATOM     20  C   UNL     1      -0.680  12.538  21.014  0.00  0.00    +0.000 C 
ATOM     21  C   UNL     1       0.596  11.697  21.092  0.00  0.00    +0.000 C 
ENDBRANCH  13  16
ENDBRANCH   1  10
BRANCH   1  22
ATOM     22  C   UNL     1       4.017   6.211  17.903  0.00  0.00    +0.000 C 
BRANCH  22  23
ATOM     23  C   UNL     1       5.516   6.398  18.095  0.00  0.00    +0.000 A 
ATOM     24  C   UNL     1       6.178   7.455  17.446  0.00  0.00    +0.000 A 
ATOM     25  C   UNL     1       7.559   7.644  17.572  0.00  0.00    +0.000 A 
ATOM     26  C   UNL     1       8.306   6.776  18.354  0.00  0.00    +0.000 A 
ATOM     27  C   UNL     1       7.683   5.705  18.986  0.00  0.00    +0.000 A 
ATOM     28  C   UNL     1       6.302   5.519  18.852  0.00  0.00    +0.000 A 
BRANCH  28  29
ATOM     29  O   UNL     1       5.724   4.432  19.447  0.00  0.00    +0.000 OA
ATOM     30  H   UNL     1       5.748   3.690  18.821  0.00  0.00    +0.000 HD
ENDBRANCH  28  29
ENDBRANCH  22  23
ENDBRANCH   1  22
TORSDOF 7
ENDMDL
MODEL 7
REMARK VINA RESULT:      -7.9      1.718      2.645
REMARK  Name = 
REMARK  7 active torsions:
REMARK  status: ('A' for Active; 'I' for Inactive)
REMARK    1  A    between atoms: O_1  and  C_2
REMARK    2  A    between atoms: C_6  and  C_7
REMARK    3  A    between atoms: C_7  and  C_8
REMARK    4  A    between atoms: C_7  and  N_16
REMARK    5  A    between atoms: C_8  and  C_9
REMARK    6  A    between atoms: C_14  and  O_15
REMARK    7  A    between atoms: N_19  and  C_20
REMARK                            x       y       z     vdW  Elec       q    Type
REMARK                         _______ _______ _______ _____ _____    ______ ____
ROOT
ATOM      1  C   UNL     1       2.816   6.571  19.495  0.00  0.00    +0.000 C 
ENDROOT
BRANCH   1   6
ATOM      2  C   UNL     1       1.035   3.144  19.340  0.00  0.00    +0.000 A 
ATOM      3  C   UNL     1       1.212   2.659  20.628  0.00  0.00    +0.000 A 
ATOM      4  C   UNL     1       1.946   3.412  21.538  0.00  0.00    +0.000 A 
ATOM      5  C   UNL     1       2.434   4.673  21.173  0.00  0.00    +0.000 A 
ATOM      6  C   UNL     1       2.277   5.169  19.859  0.00  0.00    +0.000 A 
ATOM      7  C   UNL     1       1.618   4.342  18.938  0.00  0.00    +0.000 A 
BRANCH   2   8
ATOM      8  O   UNL     1       0.258   2.475  18.440  0.00  0.00    +0.000 OA
ATOM      9  H   UNL     1       0.330   1.528  18.643  0.00  0.00    +0.000 HD
ENDBRANCH   2   8
ENDBRANCH   1   6
BRANCH   1  10
ATOM     10  N   UNL     1       1.972   7.715  19.900  0.00  0.00    +0.000 NA
ATOM     11  C   UNL     1       1.758   8.849  19.003  0.00  0.00    +0.000 C 
ATOM     12  C   UNL     1       0.341   9.496  19.022  0.00  0.00    +0.000 C 
ATOM     13  N   UNL     1      -0.306   9.632  20.358  0.00  0.00    +0.000 NA
ATOM     14  C   UNL     1      -0.268   8.276  20.932  0.00  0.00    +0.000 C 
ATOM     15  C   UNL     1       1.145   7.670  21.093  0.00  0.00    +0.000 C 
BRANCH  13  16
ATOM     16  C   UNL     1       0.346  10.665  21.209  0.00  0.00    +0.000 C 
ATOM     17  C   UNL     1       0.165  12.081  20.615  0.00  0.00    +0.000 C 
ATOM     18  C   UNL     1      -1.274  12.584  20.707  0.00  0.00    +0.000 C 
ATOM     19  C   UNL     1      -1.766  12.635  22.148  0.00  0.00    +0.000 C 
ATOM     20  C   UNL     1      -1.509  11.345  22.922  0.00  0.00    +0.000 C 
ATOM     21  C   UNL     1      -0.124  10.738  22.688  0.00  0.00    +0.000 C 
ENDBRANCH  13  16
ENDBRANCH   1  10
BRANCH   1  22
ATOM     22  C   UNL     1       3.428   6.593  18.040  0.00  0.00    +0.000 C 
BRANCH  22  23
ATOM     23  C   UNL     1       4.834   6.051  17.819  0.00  0.00    +0.000 A 
ATOM     24  C   UNL     1       5.506   5.400  18.869  0.00  0.00    +0.000 A 
ATOM     25  C   UNL     1       6.809   4.914  18.717  0.00  0.00    +0.000 A 
ATOM     26  C   UNL     1       7.468   5.071  17.506  0.00  0.00    +0.000 A 
ATOM     27  C   UNL     1       6.839   5.735  16.458  0.00  0.00    +0.000 A 
ATOM     28  C   UNL     1       5.537   6.222  16.618  0.00  0.00    +0.000 A 
BRANCH  28  29
ATOM     29  O   UNL     1       4.960   6.911  15.587  0.00  0.00    +0.000 OA
ATOM     30  H   UNL     1       5.624   7.511  15.210  0.00  0.00    +0.000 HD
ENDBRANCH  28  29
ENDBRANCH  22  23
ENDBRANCH   1  22
TORSDOF 7
ENDMDL
MODEL 8
REMARK VINA RESULT:      -7.5      1.669      2.487
REMARK  Name = 
REMARK  7 active torsions:
REMARK  status: ('A' for Active; 'I' for Inactive)
REMARK    1  A    between atoms: O_1  and  C_2
REMARK    2  A    between atoms: C_6  and  C_7
REMARK    3  A    between atoms: C_7  and  C_8
REMARK    4  A    between atoms: C_7  and  N_16
REMARK    5  A    between atoms: C_8  and  C_9
REMARK    6  A    between atoms: C_14  and  O_15
REMARK    7  A    between atoms: N_19  and  C_20
REMARK                            x       y       z     vdW  Elec       q    Type
REMARK                         _______ _______ _______ _____ _____    ______ ____
ROOT
ATOM      1  C   UNL     1       2.879   6.571  19.140  0.00  0.00    +0.000 C 
ENDROOT
BRANCH   1   6
ATOM      2  C   UNL     1       2.351   3.136  20.831  0.00  0.00    +0.000 A 
ATOM      3  C   UNL     1       1.560   2.469  19.908  0.00  0.00    +0.000 A 
ATOM      4  C   UNL     1       1.153   3.138  18.758  0.00  0.00    +0.000 A 
ATOM      5  C   UNL     1       1.601   4.442  18.511  0.00  0.00    +0.000 A 
ATOM      6  C   UNL     1       2.392   5.138  19.452  0.00  0.00    +0.000 A 
ATOM      7  C   UNL     1       2.701   4.470  20.646  0.00  0.00    +0.000 A 
BRANCH   2   8
ATOM      8  O   UNL     1       2.835   2.493  21.933  0.00  0.00    +0.000 OA
ATOM      9  H   UNL     1       2.072   2.158  22.431  0.00  0.00    +0.000 HD
ENDBRANCH   2   8
ENDBRANCH   1   6
BRANCH   1  10
ATOM     10  N   UNL     1       2.064   7.669  19.701  0.00  0.00    +0.000 NA
ATOM     11  C   UNL     1       1.860   8.913  18.960  0.00  0.00    +0.000 C 
ATOM     12  C   UNL     1       0.457   9.577  19.085  0.00  0.00    +0.000 C 
ATOM     13  N   UNL     1      -0.168   9.553  20.438  0.00  0.00    +0.000 NA
ATOM     14  C   UNL     1      -0.150   8.134  20.833  0.00  0.00    +0.000 C 
ATOM     15  C   UNL     1       1.253   7.487  20.892  0.00  0.00    +0.000 C 
BRANCH  13  16
ATOM     16  C   UNL     1       0.517  10.456  21.403  0.00  0.00    +0.000 C 
ATOM     17  C   UNL     1       0.460  11.928  20.935  0.00  0.00    +0.000 C 
ATOM     18  C   UNL     1      -0.944  12.525  21.019  0.00  0.00    +0.000 C 
ATOM     19  C   UNL     1      -1.492  12.485  22.440  0.00  0.00    +0.000 C 
ATOM     20  C   UNL     1      -1.360  11.116  23.101  0.00  0.00    +0.000 C 
ATOM     21  C   UNL     1      -0.011  10.433  22.864  0.00  0.00    +0.000 C 
ENDBRANCH  13  16
ENDBRANCH   1  10
BRANCH   1  22
ATOM     22  C   UNL     1       3.351   6.705  17.639  0.00  0.00    +0.000 C 
BRANCH  22  23
ATOM     23  C   UNL     1       4.596   5.956  17.184  0.00  0.00    +0.000 A 
ATOM     24  C   UNL     1       4.493   4.620  16.759  0.00  0.00    +0.000 A 
ATOM     25  C   UNL     1       5.617   3.887  16.361  0.00  0.00    +0.000 A 
ATOM     26  C   UNL     1       6.871   4.480  16.383  0.00  0.00    +0.000 A 
ATOM     27  C   UNL     1       7.008   5.792  16.826  0.00  0.00    +0.000 A 
ATOM     28  C   UNL     1       5.880   6.517  17.226  0.00  0.00    +0.000 A 
BRANCH  28  29
ATOM     29  O   UNL     1       6.050   7.789  17.699  0.00  0.00    +0.000 OA
ATOM     30  H   UNL     1       6.310   8.360  16.958  0.00  0.00    +0.000 HD
ENDBRANCH  28  29
ENDBRANCH  22  23
ENDBRANCH   1  22
TORSDOF 7
ENDMDL
MODEL 9
REMARK VINA RESULT:      -7.4      1.976      2.752
REMARK  Name = 
REMARK  7 active torsions:
REMARK  status: ('A' for Active; 'I' for Inactive)
REMARK    1  A    between atoms: O_1  and  C_2
REMARK    2  A    between atoms: C_6  and  C_7
REMARK    3  A    between atoms: C_7  and  C_8
REMARK    4  A    between atoms: C_7  and  N_16
REMARK    5  A    between atoms: C_8  and  C_9
REMARK    6  A    between atoms: C_14  and  O_15
REMARK    7  A    between atoms: N_19  and  C_20
REMARK                            x       y       z     vdW  Elec       q    Type
REMARK                         _______ _______ _______ _____ _____    ______ ____
ROOT
ATOM      1  C   UNL     1       3.587   6.520  18.658  0.00  0.00    +0.000 C 
ENDROOT
BRANCH   1   6
ATOM      2  C   UNL     1       3.363   2.664  18.795  0.00  0.00    +0.000 A 
ATOM      3  C   UNL     1       2.140   2.416  18.190  0.00  0.00    +0.000 A 
ATOM      4  C   UNL     1       1.360   3.492  17.778  0.00  0.00    +0.000 A 
ATOM      5  C   UNL     1       1.843   4.799  17.910  0.00  0.00    +0.000 A 
ATOM      6  C   UNL     1       3.079   5.065  18.542  0.00  0.00    +0.000 A 
ATOM      7  C   UNL     1       3.794   3.965  19.035  0.00  0.00    +0.000 A 
BRANCH   2   8
ATOM      8  O   UNL     1       4.193   1.638  19.144  0.00  0.00    +0.000 OA
ATOM      9  H   UNL     1       4.612   1.316  18.328  0.00  0.00    +0.000 HD
ENDBRANCH   2   8
ENDBRANCH   1   6
BRANCH   1  10
ATOM     10  N   UNL     1       2.681   7.470  19.339  0.00  0.00    +0.000 NA
ATOM     11  C   UNL     1       2.256   8.707  18.685  0.00  0.00    +0.000 C 
ATOM     12  C   UNL     1       0.791   9.167  18.950  0.00  0.00    +0.000 C 
ATOM     13  N   UNL     1       0.285   8.996  20.341  0.00  0.00    +0.000 NA
ATOM     14  C   UNL     1       0.523   7.576  20.653  0.00  0.00    +0.000 C 
ATOM     15  C   UNL     1       1.999   7.124  20.574  0.00  0.00    +0.000 C 
BRANCH  13  16
ATOM     16  C   UNL     1       0.919   9.939  21.302  0.00  0.00    +0.000 C 
ATOM     17  C   UNL     1       0.567  11.407  20.968  0.00  0.00    +0.000 C 
ATOM     18  C   UNL     1      -0.896  11.746  21.246  0.00  0.00    +0.000 C 
ATOM     19  C   UNL     1      -1.262  11.518  22.707  0.00  0.00    +0.000 C 
ATOM     20  C   UNL     1      -0.831  10.153  23.234  0.00  0.00    +0.000 C 
ATOM     21  C   UNL     1       0.575   9.730  22.803  0.00  0.00    +0.000 C 
ENDBRANCH  13  16
ENDBRANCH   1  10
BRANCH   1  22
ATOM     22  C   UNL     1       4.277   6.999  17.321  0.00  0.00    +0.000 C 
BRANCH  22  23
ATOM     23  C   UNL     1       5.283   6.082  16.638  0.00  0.00    +0.000 A 
ATOM     24  C   UNL     1       4.992   5.542  15.373  0.00  0.00    +0.000 A 
ATOM     25  C   UNL     1       5.876   4.673  14.724  0.00  0.00    +0.000 A 
ATOM     26  C   UNL     1       7.073   4.326  15.332  0.00  0.00    +0.000 A 
ATOM     27  C   UNL     1       7.376   4.822  16.596  0.00  0.00    +0.000 A 
ATOM     28  C   UNL     1       6.486   5.688  17.241  0.00  0.00    +0.000 A 
BRANCH  28  29
ATOM     29  O   UNL     1       6.788   6.124  18.500  0.00  0.00    +0.000 OA
ATOM     30  H   UNL     1       5.980   6.477  18.906  0.00  0.00    +0.000 HD
ENDBRANCH  28  29
ENDBRANCH  22  23
ENDBRANCH   1  22
TORSDOF 7
ENDMDL
