MODEL 1
REMARK VINA RESULT:      -7.2      0.000      0.000
REMARK  Name = 
REMARK  6 active torsions:
REMARK  status: ('A' for Active; 'I' for Inactive)
REMARK    1  A    between atoms: C_1  and  C_2
REMARK    2  A    between atoms: C_5  and  N_6
REMARK    3  A    between atoms: N_9  and  C_10
REMARK    4  A    between atoms: C_10  and  C_11
REMARK    5  A    between atoms: C_11  and  N_12
REMARK    6  A    between atoms: N_15  and  C_16
REMARK                            x       y       z     vdW  Elec       q    Type
REMARK                         _______ _______ _______ _____ _____    ______ ____
ROOT
ATOM      1  N   UNL     1       5.301   5.308  18.264  0.00  0.00    +0.000 NA
ATOM      2  C   UNL     1       4.394   5.578  17.123  0.00  0.00    +0.000 C 
ATOM      3  C   UNL     1       5.207   6.104  15.912  0.00  0.00    +0.000 C 
ATOM      4  N   UNL     1       6.298   5.175  15.572  0.00  0.00    +0.000 N 
ATOM      5  C   UNL     1       7.133   4.743  16.694  0.00  0.00    +0.000 C 
ATOM      6  C   UNL     1       6.237   4.241  17.840  0.00  0.00    +0.000 C 
ENDROOT
BRANCH   4   7
ATOM      7  C   UNL     1       6.581   4.772  14.286  0.00  0.00    +0.000 A 
ATOM      8  C   UNL     1       5.845   3.759  13.648  0.00  0.00    +0.000 A 
ATOM      9  C   UNL     1       6.089   3.391  12.324  0.00  0.00    +0.000 A 
ATOM     10  C   UNL     1       7.088   4.027  11.601  0.00  0.00    +0.000 A 
ATOM     11  C   UNL     1       7.840   5.027  12.207  0.00  0.00    +0.000 A 
ATOM     12  C   UNL     1       7.589   5.388  13.535  0.00  0.00    +0.000 A 
ENDBRANCH   4   7
BRANCH   1  13
ATOM     13  C   UNL     1       4.594   5.026  19.515  0.00  0.00    +0.000 C 
BRANCH  13  14
ATOM     14  C   UNL     1       4.409   3.510  19.676  0.00  0.00    +0.000 C 
BRANCH  14  20
ATOM     15  C   UNL     1       3.541   2.004  17.144  0.00  0.00    +0.000 C 
ATOM     16  C   UNL     1       2.640   2.418  18.255  0.00  0.00    +0.000 A 
ATOM     17  N   UNL     1       1.322   2.318  18.244  0.00  0.00    +0.000 NA
ATOM     18  C   UNL     1       0.881   2.897  19.406  0.00  0.00    +0.000 A 
ATOM     19  C   UNL     1       1.951   3.312  20.151  0.00  0.00    +0.000 A 
ATOM     20  N   UNL     1       3.072   3.012  19.425  0.00  0.00    +0.000 N 
BRANCH  19  21
ATOM     21  N   UNL     1       1.961   4.012  21.377  0.00  0.00    +0.000 N 
ATOM     22  O   UNL     1       2.122   3.337  22.398  0.00  0.00    +0.000 OA
ATOM     23  O   UNL     1       1.770   5.231  21.326  0.00  0.00    +0.000 OA
ENDBRANCH  19  21
ENDBRANCH  14  20
ENDBRANCH  13  14
ENDBRANCH   1  13
TORSDOF 5
ENDMDL
MODEL 2
REMARK VINA RESULT:      -7.1      0.062      1.000
REMARK  Name = 
REMARK  6 active torsions:
REMARK  status: ('A' for Active; 'I' for Inactive)
REMARK    1  A    between atoms: C_1  and  C_2
REMARK    2  A    between atoms: C_5  and  N_6
REMARK    3  A    between atoms: N_9  and  C_10
REMARK    4  A    between atoms: C_10  and  C_11
REMARK    5  A    between atoms: C_11  and  N_12
REMARK    6  A    between atoms: N_15  and  C_16
REMARK                            x       y       z     vdW  Elec       q    Type
REMARK                         _______ _______ _______ _____ _____    ______ ____
ROOT
ATOM      1  N   UNL     1       5.309   5.323  18.275  0.00  0.00    +0.000 NA
ATOM      2  C   UNL     1       4.380   5.605  17.156  0.00  0.00    +0.000 C 
ATOM      3  C   UNL     1       5.168   6.139  15.933  0.00  0.00    +0.000 C 
ATOM      4  N   UNL     1       6.248   5.208  15.561  0.00  0.00    +0.000 N 
ATOM      5  C   UNL     1       7.106   4.766  16.662  0.00  0.00    +0.000 C 
ATOM      6  C   UNL     1       6.233   4.257  17.823  0.00  0.00    +0.000 C 
ENDROOT
BRANCH   4   7
ATOM      7  C   UNL     1       6.503   4.815  14.267  0.00  0.00    +0.000 A 
ATOM      8  C   UNL     1       7.550   5.377  13.516  0.00  0.00    +0.000 A 
ATOM      9  C   UNL     1       7.851   4.938  12.226  0.00  0.00    +0.000 A 
ATOM     10  C   UNL     1       7.102   3.923  11.647  0.00  0.00    +0.000 A 
ATOM     11  C   UNL     1       6.054   3.355  12.361  0.00  0.00    +0.000 A 
ATOM     12  C   UNL     1       5.759   3.802  13.653  0.00  0.00    +0.000 A 
ENDBRANCH   4   7
BRANCH   1  13
ATOM     13  C   UNL     1       4.628   5.034  19.539  0.00  0.00    +0.000 C 
BRANCH  13  14
ATOM     14  C   UNL     1       4.437   3.517  19.690  0.00  0.00    +0.000 C 
BRANCH  14  20
ATOM     15  C   UNL     1       3.614   2.036  17.128  0.00  0.00    +0.000 C 
ATOM     16  C   UNL     1       2.693   2.441  18.227  0.00  0.00    +0.000 A 
ATOM     17  N   UNL     1       1.376   2.342  18.190  0.00  0.00    +0.000 NA
ATOM     18  C   UNL     1       0.914   2.911  19.350  0.00  0.00    +0.000 A 
ATOM     19  C   UNL     1       1.971   3.317  20.118  0.00  0.00    +0.000 A 
ATOM     20  N   UNL     1       3.105   3.023  19.410  0.00  0.00    +0.000 N 
BRANCH  19  21
ATOM     21  N   UNL     1       1.960   4.005  21.351  0.00  0.00    +0.000 N 
ATOM     22  O   UNL     1       2.139   3.326  22.365  0.00  0.00    +0.000 OA
ATOM     23  O   UNL     1       1.734   5.219  21.311  0.00  0.00    +0.000 OA
ENDBRANCH  19  21
ENDBRANCH  14  20
ENDBRANCH  13  14
ENDBRANCH   1  13
TORSDOF 5
ENDMDL
MODEL 3
REMARK VINA RESULT:      -7.0      1.869      2.429
REMARK  Name = 
REMARK  6 active torsions:
REMARK  status: ('A' for Active; 'I' for Inactive)
REMARK    1  A    between atoms: C_1  and  C_2
REMARK    2  A    between atoms: C_5  and  N_6
REMARK    3  A    between atoms: N_9  and  C_10
REMARK    4  A    between atoms: C_10  and  C_11
REMARK    5  A    between atoms: C_11  and  N_12
REMARK    6  A    between atoms: N_15  and  C_16
REMARK                            x       y       z     vdW  Elec       q    Type
REMARK                         _______ _______ _______ _____ _____    ______ ____
ROOT
ATOM      1  N   UNL     1       5.492   5.445  17.992  0.00  0.00    +0.000 NA
ATOM      2  C   UNL     1       4.611   5.806  16.856  0.00  0.00    +0.000 C 
ATOM      3  C   UNL     1       5.467   6.198  15.625  0.00  0.00    +0.000 C 
ATOM      4  N   UNL     1       6.423   5.128  15.291  0.00  0.00    +0.000 N 
ATOM      5  C   UNL     1       7.212   4.615  16.413  0.00  0.00    +0.000 C 
ATOM      6  C   UNL     1       6.276   4.257  17.580  0.00  0.00    +0.000 C 
ENDROOT
BRANCH   4   7
ATOM      7  C   UNL     1       6.632   4.665  14.012  0.00  0.00    +0.000 A 
ATOM      8  C   UNL     1       5.835   3.653  13.451  0.00  0.00    +0.000 A 
ATOM      9  C   UNL     1       6.004   3.225  12.133  0.00  0.00    +0.000 A 
ATOM     10  C   UNL     1       6.988   3.798  11.340  0.00  0.00    +0.000 A 
ATOM     11  C   UNL     1       7.799   4.795  11.869  0.00  0.00    +0.000 A 
ATOM     12  C   UNL     1       7.623   5.217  13.191  0.00  0.00    +0.000 A 
ENDBRANCH   4   7
BRANCH   1  13
ATOM     13  C   UNL     1       4.774   5.283  19.258  0.00  0.00    +0.000 C 
BRANCH  13  14
ATOM     14  C   UNL     1       3.355   4.760  18.986  0.00  0.00    +0.000 C 
BRANCH  14  20
ATOM     15  C   UNL     1       1.353   5.800  21.070  0.00  0.00    +0.000 C 
ATOM     16  C   UNL     1       1.943   4.433  21.044  0.00  0.00    +0.000 A 
ATOM     17  N   UNL     1       1.794   3.522  21.990  0.00  0.00    +0.000 NA
ATOM     18  C   UNL     1       2.573   2.454  21.624  0.00  0.00    +0.000 A 
ATOM     19  C   UNL     1       3.164   2.706  20.417  0.00  0.00    +0.000 A 
ATOM     20  N   UNL     1       2.769   3.962  20.042  0.00  0.00    +0.000 N 
BRANCH  19  21
ATOM     21  N   UNL     1       4.090   1.917  19.700  0.00  0.00    +0.000 N 
ATOM     22  O   UNL     1       3.693   1.423  18.641  0.00  0.00    +0.000 OA
ATOM     23  O   UNL     1       5.202   1.758  20.212  0.00  0.00    +0.000 OA
ENDBRANCH  19  21
ENDBRANCH  14  20
ENDBRANCH  13  14
ENDBRANCH   1  13
TORSDOF 5
ENDMDL
MODEL 4
REMARK VINA RESULT:      -7.0      1.864      2.605
REMARK  Name = 
REMARK  6 active torsions:
REMARK  status: ('A' for Active; 'I' for Inactive)
REMARK    1  A    between atoms: C_1  and  C_2
REMARK    2  A    between atoms: C_5  and  N_6
REMARK    3  A    between atoms: N_9  and  C_10
REMARK    4  A    between atoms: C_10  and  C_11
REMARK    5  A    between atoms: C_11  and  N_12
REMARK    6  A    between atoms: N_15  and  C_16
REMARK                            x       y       z     vdW  Elec       q    Type
REMARK                         _______ _______ _______ _____ _____    ______ ____
ROOT
ATOM      1  N   UNL     1       5.427   5.519  18.003  0.00  0.00    +0.000 NA
ATOM      2  C   UNL     1       4.642   6.041  16.860  0.00  0.00    +0.000 C 
ATOM      3  C   UNL     1       5.584   6.361  15.671  0.00  0.00    +0.000 C 
ATOM      4  N   UNL     1       6.398   5.185  15.318  0.00  0.00    +0.000 N 
ATOM      5  C   UNL     1       7.073   4.527  16.439  0.00  0.00    +0.000 C 
ATOM      6  C   UNL     1       6.058   4.253  17.562  0.00  0.00    +0.000 C 
ENDROOT
BRANCH   4   7
ATOM      7  C   UNL     1       6.587   4.749  14.026  0.00  0.00    +0.000 A 
ATOM      8  C   UNL     1       7.584   5.295  13.200  0.00  0.00    +0.000 A 
ATOM      9  C   UNL     1       7.820   4.814  11.911  0.00  0.00    +0.000 A 
ATOM     10  C   UNL     1       7.053   3.771  11.410  0.00  0.00    +0.000 A 
ATOM     11  C   UNL     1       6.053   3.217  12.200  0.00  0.00    +0.000 A 
ATOM     12  C   UNL     1       5.823   3.707  13.490  0.00  0.00    +0.000 A 
ENDBRANCH   4   7
BRANCH   1  13
ATOM     13  C   UNL     1       4.651   5.407  19.239  0.00  0.00    +0.000 C 
BRANCH  13  14
ATOM     14  C   UNL     1       3.299   4.739  18.944  0.00  0.00    +0.000 C 
BRANCH  14  20
ATOM     15  C   UNL     1       1.330   5.782  21.058  0.00  0.00    +0.000 C 
ATOM     16  C   UNL     1       1.934   4.420  21.036  0.00  0.00    +0.000 A 
ATOM     17  N   UNL     1       1.814   3.520  21.995  0.00  0.00    +0.000 NA
ATOM     18  C   UNL     1       2.597   2.456  21.625  0.00  0.00    +0.000 A 
ATOM     19  C   UNL     1       3.160   2.699  20.403  0.00  0.00    +0.000 A 
ATOM     20  N   UNL     1       2.744   3.947  20.022  0.00  0.00    +0.000 N 
BRANCH  19  21
ATOM     21  N   UNL     1       4.080   1.912  19.675  0.00  0.00    +0.000 N 
ATOM     22  O   UNL     1       5.230   1.853  20.119  0.00  0.00    +0.000 OA
ATOM     23  O   UNL     1       3.665   1.384  18.639  0.00  0.00    +0.000 OA
ENDBRANCH  19  21
ENDBRANCH  14  20
ENDBRANCH  13  14
ENDBRANCH   1  13
TORSDOF 5
ENDMDL
MODEL 5
REMARK VINA RESULT:      -6.9      1.064      1.628
REMARK  Name = 
REMARK  6 active torsions:
REMARK  status: ('A' for Active; 'I' for Inactive)
REMARK    1  A    between atoms: C_1  and  C_2
REMARK    2  A    between atoms: C_5  and  N_6
REMARK    3  A    between atoms: N_9  and  C_10
REMARK    4  A    between atoms: C_10  and  C_11
REMARK    5  A    between atoms: C_11  and  N_12
REMARK    6  A    between atoms: N_15  and  C_16
REMARK                            x       y       z     vdW  Elec       q    Type
REMARK                         _______ _______ _______ _____ _____    ______ ____
ROOT
ATOM      1  N   UNL     1       5.268   5.311  18.524  0.00  0.00    +0.000 NA
ATOM      2  C   UNL     1       4.400   5.755  17.408  0.00  0.00    +0.000 C 
ATOM      3  C   UNL     1       5.270   6.241  16.220  0.00  0.00    +0.000 C 
ATOM      4  N   UNL     1       6.233   5.201  15.820  0.00  0.00    +0.000 N 
ATOM      5  C   UNL     1       7.011   4.607  16.909  0.00  0.00    +0.000 C 
ATOM      6  C   UNL     1       6.061   4.160  18.034  0.00  0.00    +0.000 C 
ENDROOT
BRANCH   4   7
ATOM      7  C   UNL     1       6.461   4.837  14.511  0.00  0.00    +0.000 A 
ATOM      8  C   UNL     1       7.514   5.389  13.763  0.00  0.00    +0.000 A 
ATOM      9  C   UNL     1       7.787   4.978  12.457  0.00  0.00    +0.000 A 
ATOM     10  C   UNL     1       7.001   4.002  11.860  0.00  0.00    +0.000 A 
ATOM     11  C   UNL     1       5.946   3.444  12.572  0.00  0.00    +0.000 A 
ATOM     12  C   UNL     1       5.680   3.863  13.880  0.00  0.00    +0.000 A 
ENDBRANCH   4   7
BRANCH   1  13
ATOM     13  C   UNL     1       4.534   5.052  19.765  0.00  0.00    +0.000 C 
BRANCH  13  14
ATOM     14  C   UNL     1       3.023   5.129  19.499  0.00  0.00    +0.000 C 
BRANCH  14  20
ATOM     15  C   UNL     1       1.200   4.567  17.091  0.00  0.00    +0.000 C 
ATOM     16  C   UNL     1       1.472   3.621  18.209  0.00  0.00    +0.000 A 
ATOM     17  N   UNL     1       0.861   2.464  18.392  0.00  0.00    +0.000 NA
ATOM     18  C   UNL     1       1.333   1.962  19.578  0.00  0.00    +0.000 A 
ATOM     19  C   UNL     1       2.276   2.807  20.096  0.00  0.00    +0.000 A 
ATOM     20  N   UNL     1       2.369   3.865  19.231  0.00  0.00    +0.000 N 
BRANCH  19  21
ATOM     21  N   UNL     1       2.970   2.719  21.322  0.00  0.00    +0.000 N 
ATOM     22  O   UNL     1       4.057   2.135  21.301  0.00  0.00    +0.000 OA
ATOM     23  O   UNL     1       2.414   3.199  22.314  0.00  0.00    +0.000 OA
ENDBRANCH  19  21
ENDBRANCH  14  20
ENDBRANCH  13  14
ENDBRANCH   1  13
TORSDOF 5
ENDMDL
MODEL 6
REMARK VINA RESULT:      -6.8      1.781      2.376
REMARK  Name = 
REMARK  6 active torsions:
REMARK  status: ('A' for Active; 'I' for Inactive)
REMARK    1  A    between atoms: C_1  and  C_2
REMARK    2  A    between atoms: C_5  and  N_6
REMARK    3  A    between atoms: N_9  and  C_10
REMARK    4  A    between atoms: C_10  and  C_11
REMARK    5  A    between atoms: C_11  and  N_12
REMARK    6  A    between atoms: N_15  and  C_16
REMARK                            x       y       z     vdW  Elec       q    Type
REMARK                         _______ _______ _______ _____ _____    ______ ____
ROOT
ATOM      1  N   UNL     1       5.243   5.765  18.245  0.00  0.00    +0.000 NA
ATOM      2  C   UNL     1       4.383   6.050  17.071  0.00  0.00    +0.000 C 
ATOM      3  C   UNL     1       5.262   6.391  15.840  0.00  0.00    +0.000 C 
ATOM      4  N   UNL     1       6.243   5.321  15.587  0.00  0.00    +0.000 N 
ATOM      5  C   UNL     1       7.013   4.883  16.753  0.00  0.00    +0.000 C 
ATOM      6  C   UNL     1       6.055   4.571  17.916  0.00  0.00    +0.000 C 
ENDROOT
BRANCH   4   7
ATOM      7  C   UNL     1       6.491   4.795  14.339  0.00  0.00    +0.000 A 
ATOM      8  C   UNL     1       5.672   3.800  13.780  0.00  0.00    +0.000 A 
ATOM      9  C   UNL     1       5.883   3.308  12.491  0.00  0.00    +0.000 A 
ATOM     10  C   UNL     1       6.932   3.798  11.726  0.00  0.00    +0.000 A 
ATOM     11  C   UNL     1       7.765   4.776  12.255  0.00  0.00    +0.000 A 
ATOM     12  C   UNL     1       7.546   5.262  13.548  0.00  0.00    +0.000 A 
ENDBRANCH   4   7
BRANCH   1  13
ATOM     13  C   UNL     1       4.496   5.659  19.500  0.00  0.00    +0.000 C 
BRANCH  13  14
ATOM     14  C   UNL     1       4.181   4.184  19.793  0.00  0.00    +0.000 C 
BRANCH  14  20
ATOM     15  C   UNL     1       1.570   5.353  20.910  0.00  0.00    +0.000 C 
ATOM     16  C   UNL     1       1.671   4.190  19.986  0.00  0.00    +0.000 A 
ATOM     17  N   UNL     1       0.663   3.414  19.628  0.00  0.00    +0.000 NA
ATOM     18  C   UNL     1       1.200   2.415  18.856  0.00  0.00    +0.000 A 
ATOM     19  C   UNL     1       2.544   2.617  18.709  0.00  0.00    +0.000 A 
ATOM     20  N   UNL     1       2.852   3.743  19.425  0.00  0.00    +0.000 N 
BRANCH  19  21
ATOM     21  N   UNL     1       3.498   1.807  18.055  0.00  0.00    +0.000 N 
ATOM     22  O   UNL     1       3.855   2.171  16.931  0.00  0.00    +0.000 OA
ATOM     23  O   UNL     1       3.864   0.787  18.646  0.00  0.00    +0.000 OA
ENDBRANCH  19  21
ENDBRANCH  14  20
ENDBRANCH  13  14
ENDBRANCH   1  13
TORSDOF 5
ENDMDL
MODEL 7
REMARK VINA RESULT:      -6.7      5.700      8.541
REMARK  Name = 
REMARK  6 active torsions:
REMARK  status: ('A' for Active; 'I' for Inactive)
REMARK    1  A    between atoms: C_1  and  C_2
REMARK    2  A    between atoms: C_5  and  N_6
REMARK    3  A    between atoms: N_9  and  C_10
REMARK    4  A    between atoms: C_10  and  C_11
REMARK    5  A    between atoms: C_11  and  N_12
REMARK    6  A    between atoms: N_15  and  C_16
REMARK                            x       y       z     vdW  Elec       q    Type
REMARK                         _______ _______ _______ _____ _____    ______ ____
ROOT
ATOM      1  N   UNL     1       2.143   7.963  19.478  0.00  0.00    +0.000 NA
ATOM      2  C   UNL     1       1.428   7.611  20.728  0.00  0.00    +0.000 C 
ATOM      3  C   UNL     1       1.258   8.871  21.615  0.00  0.00    +0.000 C 
ATOM      4  N   UNL     1       0.602   9.954  20.864  0.00  0.00    +0.000 N 
ATOM      5  C   UNL     1       1.168  10.240  19.544  0.00  0.00    +0.000 C 
ATOM      6  C   UNL     1       1.296   8.931  18.744  0.00  0.00    +0.000 C 
ENDROOT
BRANCH   4   7
ATOM      7  C   UNL     1      -0.433  10.711  21.366  0.00  0.00    +0.000 A 
ATOM      8  C   UNL     1      -0.797  10.658  22.722  0.00  0.00    +0.000 A 
ATOM      9  C   UNL     1      -1.804  11.469  23.248  0.00  0.00    +0.000 A 
ATOM     10  C   UNL     1      -2.481  12.356  22.423  0.00  0.00    +0.000 A 
ATOM     11  C   UNL     1      -2.150  12.424  21.075  0.00  0.00    +0.000 A 
ATOM     12  C   UNL     1      -1.140  11.607  20.556  0.00  0.00    +0.000 A 
ENDBRANCH   4   7
BRANCH   1  13
ATOM     13  C   UNL     1       2.546   6.796  18.690  0.00  0.00    +0.000 C 
BRANCH  13  14
ATOM     14  C   UNL     1       3.228   5.765  19.602  0.00  0.00    +0.000 C 
BRANCH  14  20
ATOM     15  C   UNL     1       0.903   3.881  20.294  0.00  0.00    +0.000 C 
ATOM     16  C   UNL     1       2.136   3.496  19.553  0.00  0.00    +0.000 A 
ATOM     17  N   UNL     1       2.464   2.263  19.211  0.00  0.00    +0.000 NA
ATOM     18  C   UNL     1       3.709   2.339  18.639  0.00  0.00    +0.000 A 
ATOM     19  C   UNL     1       4.118   3.643  18.594  0.00  0.00    +0.000 A 
ATOM     20  N   UNL     1       3.124   4.385  19.174  0.00  0.00    +0.000 N 
BRANCH  19  21
ATOM     21  N   UNL     1       5.349   4.174  18.152  0.00  0.00    +0.000 N 
ATOM     22  O   UNL     1       6.247   4.264  18.994  0.00  0.00    +0.000 OA
ATOM     23  O   UNL     1       5.410   4.537  16.973  0.00  0.00    +0.000 OA
ENDBRANCH  19  21
ENDBRANCH  14  20
ENDBRANCH  13  14
ENDBRANCH   1  13
TORSDOF 5
ENDMDL
MODEL 8
REMARK VINA RESULT:      -6.7      1.786      2.534
REMARK  Name = 
REMARK  6 active torsions:
REMARK  status: ('A' for Active; 'I' for Inactive)
REMARK    1  A    between atoms: C_1  and  C_2
REMARK    2  A    between atoms: C_5  and  N_6
REMARK    3  A    between atoms: N_9  and  C_10
REMARK    4  A    between atoms: C_10  and  C_11
REMARK    5  A    between atoms: C_11  and  N_12
REMARK    6  A    between atoms: N_15  and  C_16
REMARK                            x       y       z     vdW  Elec       q    Type
REMARK                         _______ _______ _______ _____ _____    ______ ____
ROOT
ATOM      1  N   UNL     1       5.143   5.512  18.315  0.00  0.00    +0.000 NA
ATOM      2  C   UNL     1       4.346   5.978  17.155  0.00  0.00    +0.000 C 
ATOM      3  C   UNL     1       5.288   6.379  15.991  0.00  0.00    +0.000 C 
ATOM      4  N   UNL     1       6.201   5.274  15.654  0.00  0.00    +0.000 N 
ATOM      5  C   UNL     1       6.900   4.664  16.788  0.00  0.00    +0.000 C 
ATOM      6  C   UNL     1       5.883   4.304  17.885  0.00  0.00    +0.000 C 
ENDROOT
BRANCH   4   7
ATOM      7  C   UNL     1       6.456   4.863  14.365  0.00  0.00    +0.000 A 
ATOM      8  C   UNL     1       7.529   5.382  13.621  0.00  0.00    +0.000 A 
ATOM      9  C   UNL     1       7.828   4.924  12.337  0.00  0.00    +0.000 A 
ATOM     10  C   UNL     1       7.050   3.931  11.758  0.00  0.00    +0.000 A 
ATOM     11  C   UNL     1       5.976   3.404  12.465  0.00  0.00    +0.000 A 
ATOM     12  C   UNL     1       5.684   3.871  13.751  0.00  0.00    +0.000 A 
ENDBRANCH   4   7
BRANCH   1  13
ATOM     13  C   UNL     1       4.348   5.331  19.531  0.00  0.00    +0.000 C 
BRANCH  13  14
ATOM     14  C   UNL     1       4.089   3.834  19.764  0.00  0.00    +0.000 C 
BRANCH  14  20
ATOM     15  C   UNL     1       2.081   3.802  22.087  0.00  0.00    +0.000 C 
ATOM     16  C   UNL     1       1.817   3.303  20.710  0.00  0.00    +0.000 A 
ATOM     17  N   UNL     1       0.731   2.651  20.332  0.00  0.00    +0.000 NA
ATOM     18  C   UNL     1       0.933   2.290  19.024  0.00  0.00    +0.000 A 
ATOM     19  C   UNL     1       2.138   2.771  18.593  0.00  0.00    +0.000 A 
ATOM     20  N   UNL     1       2.707   3.415  19.659  0.00  0.00    +0.000 N 
BRANCH  19  21
ATOM     21  N   UNL     1       2.775   2.583  17.347  0.00  0.00    +0.000 N 
ATOM     22  O   UNL     1       3.661   1.725  17.302  0.00  0.00    +0.000 OA
ATOM     23  O   UNL     1       2.418   3.319  16.421  0.00  0.00    +0.000 OA
ENDBRANCH  19  21
ENDBRANCH  14  20
ENDBRANCH  13  14
ENDBRANCH   1  13
TORSDOF 5
ENDMDL
MODEL 9
REMARK VINA RESULT:      -6.6      5.356      8.158
REMARK  Name = 
REMARK  6 active torsions:
REMARK  status: ('A' for Active; 'I' for Inactive)
REMARK    1  A    between atoms: C_1  and  C_2
REMARK    2  A    between atoms: C_5  and  N_6
REMARK    3  A    between atoms: N_9  and  C_10
REMARK    4  A    between atoms: C_10  and  C_11
REMARK    5  A    between atoms: C_11  and  N_12
REMARK    6  A    between atoms: N_15  and  C_16
REMARK                            x       y       z     vdW  Elec       q    Type
REMARK                         _______ _______ _______ _____ _____    ______ ____
ROOT
ATOM      1  N   UNL     1       2.241   7.753  19.454  0.00  0.00    +0.000 NA
ATOM      2  C   UNL     1       1.525   7.444  20.714  0.00  0.00    +0.000 C 
ATOM      3  C   UNL     1       1.381   8.728  21.570  0.00  0.00    +0.000 C 
ATOM      4  N   UNL     1       0.739   9.803  20.795  0.00  0.00    +0.000 N 
ATOM      5  C   UNL     1       1.305  10.047  19.466  0.00  0.00    +0.000 C 
ATOM      6  C   UNL     1       1.408   8.717  18.699  0.00  0.00    +0.000 C 
ENDROOT
BRANCH   4   7
ATOM      7  C   UNL     1      -0.280  10.590  21.282  0.00  0.00    +0.000 A 
ATOM      8  C   UNL     1      -0.673  10.540  22.630  0.00  0.00    +0.000 A 
ATOM      9  C   UNL     1      -1.664  11.380  23.142  0.00  0.00    +0.000 A 
ATOM     10  C   UNL     1      -2.296  12.293  22.309  0.00  0.00    +0.000 A 
ATOM     11  C   UNL     1      -1.935  12.360  20.969  0.00  0.00    +0.000 A 
ATOM     12  C   UNL     1      -0.942  11.513  20.465  0.00  0.00    +0.000 A 
ENDBRANCH   4   7
BRANCH   1  13
ATOM     13  C   UNL     1       2.621   6.560  18.694  0.00  0.00    +0.000 C 
BRANCH  13  14
ATOM     14  C   UNL     1       3.567   5.689  19.534  0.00  0.00    +0.000 C 
BRANCH  14  20
ATOM     15  C   UNL     1       5.086   4.348  17.226  0.00  0.00    +0.000 C 
ATOM     16  C   UNL     1       4.139   3.664  18.150  0.00  0.00    +0.000 A 
ATOM     17  N   UNL     1       3.715   2.419  18.021  0.00  0.00    +0.000 NA
ATOM     18  C   UNL     1       2.789   2.222  19.013  0.00  0.00    +0.000 A 
ATOM     19  C   UNL     1       2.687   3.349  19.781  0.00  0.00    +0.000 A 
ATOM     20  N   UNL     1       3.541   4.271  19.237  0.00  0.00    +0.000 N 
BRANCH  19  21
ATOM     21  N   UNL     1       1.817   3.612  20.861  0.00  0.00    +0.000 N 
ATOM     22  O   UNL     1       0.711   4.082  20.579  0.00  0.00    +0.000 OA
ATOM     23  O   UNL     1       2.251   3.387  21.995  0.00  0.00    +0.000 OA
ENDBRANCH  19  21
ENDBRANCH  14  20
ENDBRANCH  13  14
ENDBRANCH   1  13
TORSDOF 5
ENDMDL
