MODEL 1
REMARK VINA RESULT:      -7.8      0.000      0.000
REMARK  Name = 
REMARK  6 active torsions:
REMARK  status: ('A' for Active; 'I' for Inactive)
REMARK    1  A    between atoms: C_1  and  O_2
REMARK    2  A    between atoms: O_2  and  C_3
REMARK    3  A    between atoms: C_11  and  O_12
REMARK    4  A    between atoms: O_12  and  C_13
REMARK    5  A    between atoms: C_14  and  O_15
REMARK    6  A    between atoms: O_15  and  C_16
REMARK                            x       y       z     vdW  Elec       q    Type
REMARK                         _______ _______ _______ _____ _____    ______ ____
ROOT
ATOM      1  C   UNL     1       5.963   5.098  15.316  0.00  0.00    +0.000 A 
ATOM      2  C   UNL     1       5.570   6.389  15.047  0.00  0.00    +0.000 A 
ATOM      3  C   UNL     1       4.700   7.037  15.929  0.00  0.00    +0.000 A 
ATOM      4  C   UNL     1       4.187   6.432  17.112  0.00  0.00    +0.000 A 
ATOM      5  C   UNL     1       4.603   5.108  17.402  0.00  0.00    +0.000 A 
ATOM      6  C   UNL     1       5.489   4.485  16.475  0.00  0.00    +0.000 A 
ATOM      7  C   UNL     1       4.129   4.445  18.582  0.00  0.00    +0.000 A 
ATOM      8  C   UNL     1       4.533   3.121  18.921  0.00  0.00    +0.000 A 
ATOM      9  C   UNL     1       4.099   2.422  20.054  0.00  0.00    +0.000 A 
ATOM     10  C   UNL     1       3.215   3.064  20.911  0.00  0.00    +0.000 A 
ATOM     11  C   UNL     1       2.803   4.374  20.606  0.00  0.00    +0.000 A 
ATOM     12  C   UNL     1       3.232   5.101  19.459  0.00  0.00    +0.000 A 
ATOM     13  C   UNL     1       2.799   6.438  19.161  0.00  0.00    +0.000 A 
ATOM     14  C   UNL     1       1.893   7.146  19.986  0.00  0.00    +0.000 A 
ATOM     15  N   UNL     1       1.504   8.393  19.682  0.00  0.00    +0.000 N 
ATOM     16  C   UNL     1       1.945   9.035  18.603  0.00  0.00    +0.000 A 
ATOM     17  C   UNL     1       2.831   8.419  17.746  0.00  0.00    +0.000 A 
ATOM     18  C   UNL     1       3.281   7.100  17.995  0.00  0.00    +0.000 A 
ATOM     19  C   UNL     1       1.376  10.398  18.479  0.00  0.00    +0.000 C 
ATOM     20  C   UNL     1       0.468  10.507  19.702  0.00  0.00    +0.000 C 
ATOM     21  C   UNL     1       0.565   9.190  20.470  0.00  0.00    +0.000 C 
ENDROOT
BRANCH   1  23
ATOM     22  C   UNL     1       6.243   3.782  13.358  0.00  0.00    +0.000 C 
ATOM     23  O   UNL     1       6.790   4.325  14.555  0.00  0.00    +0.000 OA
ENDBRANCH   1  23
BRANCH   9  24
ATOM     24  O   UNL     1       4.505   1.150  20.344  0.00  0.00    +0.000 OA
ATOM     25  C   UNL     1       5.508   0.951  21.335  0.00  0.00    +0.000 C 
ENDBRANCH   9  24
BRANCH  10  26
ATOM     26  O   UNL     1       2.652   2.595  22.070  0.00  0.00    +0.000 OA
ATOM     27  C   UNL     1       1.244   2.397  22.114  0.00  0.00    +0.000 C 
ENDBRANCH  10  26
TORSDOF 3
ENDMDL
MODEL 2
REMARK VINA RESULT:      -6.9      8.730     10.336
REMARK  Name = 
REMARK  6 active torsions:
REMARK  status: ('A' for Active; 'I' for Inactive)
REMARK    1  A    between atoms: C_1  and  O_2
REMARK    2  A    between atoms: O_2  and  C_3
REMARK    3  A    between atoms: C_11  and  O_12
REMARK    4  A    between atoms: O_12  and  C_13
REMARK    5  A    between atoms: C_14  and  O_15
REMARK    6  A    between atoms: O_15  and  C_16
REMARK                            x       y       z     vdW  Elec       q    Type
REMARK                         _______ _______ _______ _____ _____    ______ ____
ROOT
ATOM      1  C   UNL     1      -3.067  10.895  16.111  0.00  0.00    +0.000 A 
ATOM      2  C   UNL     1      -4.397  10.877  16.460  0.00  0.00    +0.000 A 
ATOM      3  C   UNL     1      -4.780  11.343  17.721  0.00  0.00    +0.000 A 
ATOM      4  C   UNL     1      -3.859  11.847  18.684  0.00  0.00    +0.000 A 
ATOM      5  C   UNL     1      -2.489  11.883  18.322  0.00  0.00    +0.000 A 
ATOM      6  C   UNL     1      -2.144  11.397  17.028  0.00  0.00    +0.000 A 
ATOM      7  C   UNL     1      -1.512  12.386  19.244  0.00  0.00    +0.000 A 
ATOM      8  C   UNL     1      -0.127  12.455  18.917  0.00  0.00    +0.000 A 
ATOM      9  C   UNL     1       0.871  12.929  19.776  0.00  0.00    +0.000 A 
ATOM     10  C   UNL     1       0.486  13.367  21.036  0.00  0.00    +0.000 A 
ATOM     11  C   UNL     1      -0.876  13.316  21.387  0.00  0.00    +0.000 A 
ATOM     12  C   UNL     1      -1.905  12.837  20.527  0.00  0.00    +0.000 A 
ATOM     13  C   UNL     1      -3.292  12.790  20.901  0.00  0.00    +0.000 A 
ATOM     14  C   UNL     1      -3.751  13.211  22.172  0.00  0.00    +0.000 A 
ATOM     15  N   UNL     1      -5.051  13.153  22.495  0.00  0.00    +0.000 N 
ATOM     16  C   UNL     1      -5.978  12.709  21.649  0.00  0.00    +0.000 A 
ATOM     17  C   UNL     1      -5.617  12.281  20.390  0.00  0.00    +0.000 A 
ATOM     18  C   UNL     1      -4.262  12.303  19.979  0.00  0.00    +0.000 A 
ATOM     19  C   UNL     1      -7.341  12.740  22.231  0.00  0.00    +0.000 C 
ATOM     20  C   UNL     1      -7.107  13.295  23.634  0.00  0.00    +0.000 C 
ATOM     21  C   UNL     1      -5.609  13.556  23.786  0.00  0.00    +0.000 C 
ENDROOT
BRANCH   1  23
ATOM     22  C   UNL     1      -3.442  10.037  13.928  0.00  0.00    +0.000 C 
ATOM     23  O   UNL     1      -2.530  10.465  14.933  0.00  0.00    +0.000 OA
ENDBRANCH   1  23
BRANCH   9  24
ATOM     24  O   UNL     1       2.192  12.977  19.428  0.00  0.00    +0.000 OA
ATOM     25  C   UNL     1       2.568  13.629  18.221  0.00  0.00    +0.000 C 
ENDBRANCH   9  24
BRANCH  10  26
ATOM     26  O   UNL     1       1.267  13.868  22.046  0.00  0.00    +0.000 OA
ATOM     27  C   UNL     1       1.618  15.247  22.018  0.00  0.00    +0.000 C 
ENDBRANCH  10  26
TORSDOF 3
ENDMDL
MODEL 3
REMARK VINA RESULT:      -6.7      6.173     10.049
REMARK  Name = 
REMARK  6 active torsions:
REMARK  status: ('A' for Active; 'I' for Inactive)
REMARK    1  A    between atoms: C_1  and  O_2
REMARK    2  A    between atoms: O_2  and  C_3
REMARK    3  A    between atoms: C_11  and  O_12
REMARK    4  A    between atoms: O_12  and  C_13
REMARK    5  A    between atoms: C_14  and  O_15
REMARK    6  A    between atoms: O_15  and  C_16
REMARK                            x       y       z     vdW  Elec       q    Type
REMARK                         _______ _______ _______ _____ _____    ______ ____
ROOT
ATOM      1  C   UNL     1       0.805   9.703  19.846  0.00  0.00    +0.000 A 
ATOM      2  C   UNL     1       1.022  10.227  21.099  0.00  0.00    +0.000 A 
ATOM      3  C   UNL     1       0.085  11.110  21.644  0.00  0.00    +0.000 A 
ATOM      4  C   UNL     1      -1.104  11.507  20.968  0.00  0.00    +0.000 A 
ATOM      5  C   UNL     1      -1.340  10.957  19.683  0.00  0.00    +0.000 A 
ATOM      6  C   UNL     1      -0.358  10.062  19.166  0.00  0.00    +0.000 A 
ATOM      7  C   UNL     1      -2.524  11.310  18.954  0.00  0.00    +0.000 A 
ATOM      8  C   UNL     1      -2.810  10.769  17.666  0.00  0.00    +0.000 A 
ATOM      9  C   UNL     1      -3.942  11.081  16.906  0.00  0.00    +0.000 A 
ATOM     10  C   UNL     1      -4.855  11.979  17.443  0.00  0.00    +0.000 A 
ATOM     11  C   UNL     1      -4.604  12.525  18.715  0.00  0.00    +0.000 A 
ATOM     12  C   UNL     1      -3.457  12.221  19.503  0.00  0.00    +0.000 A 
ATOM     13  C   UNL     1      -3.214  12.790  20.800  0.00  0.00    +0.000 A 
ATOM     14  C   UNL     1      -4.098  13.717  21.402  0.00  0.00    +0.000 A 
ATOM     15  N   UNL     1      -3.844  14.235  22.613  0.00  0.00    +0.000 N 
ATOM     16  C   UNL     1      -2.763  13.906  23.316  0.00  0.00    +0.000 A 
ATOM     17  C   UNL     1      -1.850  13.009  22.805  0.00  0.00    +0.000 A 
ATOM     18  C   UNL     1      -2.045  12.427  21.529  0.00  0.00    +0.000 A 
ATOM     19  C   UNL     1      -2.700  14.606  24.622  0.00  0.00    +0.000 C 
ATOM     20  C   UNL     1      -3.966  15.460  24.619  0.00  0.00    +0.000 C 
ATOM     21  C   UNL     1      -4.695  15.204  23.301  0.00  0.00    +0.000 C 
ENDROOT
BRANCH   1  23
ATOM     22  C   UNL     1       1.840   9.116  17.790  0.00  0.00    +0.000 C 
ATOM     23  O   UNL     1       1.623   8.846  19.171  0.00  0.00    +0.000 OA
ENDBRANCH   1  23
BRANCH   9  24
ATOM     24  O   UNL     1      -4.181  10.545  15.672  0.00  0.00    +0.000 OA
ATOM     25  C   UNL     1      -3.090  10.339  14.782  0.00  0.00    +0.000 C 
ENDBRANCH   9  24
BRANCH  10  26
ATOM     26  O   UNL     1      -6.027  12.439  16.899  0.00  0.00    +0.000 OA
ATOM     27  C   UNL     1      -7.184  12.505  17.725  0.00  0.00    +0.000 C 
ENDBRANCH  10  26
TORSDOF 3
ENDMDL
MODEL 4
REMARK VINA RESULT:      -6.7      5.603      8.933
REMARK  Name = 
REMARK  6 active torsions:
REMARK  status: ('A' for Active; 'I' for Inactive)
REMARK    1  A    between atoms: C_1  and  O_2
REMARK    2  A    between atoms: O_2  and  C_3
REMARK    3  A    between atoms: C_11  and  O_12
REMARK    4  A    between atoms: O_12  and  C_13
REMARK    5  A    between atoms: C_14  and  O_15
REMARK    6  A    between atoms: O_15  and  C_16
REMARK                            x       y       z     vdW  Elec       q    Type
REMARK                         _______ _______ _______ _____ _____    ______ ____
ROOT
ATOM      1  C   UNL     1      -3.293  10.466  15.369  0.00  0.00    +0.000 A 
ATOM      2  C   UNL     1      -4.429  11.191  15.645  0.00  0.00    +0.000 A 
ATOM      3  C   UNL     1      -4.592  11.753  16.915  0.00  0.00    +0.000 A 
ATOM      4  C   UNL     1      -3.633  11.620  17.960  0.00  0.00    +0.000 A 
ATOM      5  C   UNL     1      -2.453  10.888  17.675  0.00  0.00    +0.000 A 
ATOM      6  C   UNL     1      -2.330  10.332  16.368  0.00  0.00    +0.000 A 
ATOM      7  C   UNL     1      -1.445  10.723  18.682  0.00  0.00    +0.000 A 
ATOM      8  C   UNL     1      -0.237  10.009  18.435  0.00  0.00    +0.000 A 
ATOM      9  C   UNL     1       0.778   9.811  19.379  0.00  0.00    +0.000 A 
ATOM     10  C   UNL     1       0.598  10.350  20.645  0.00  0.00    +0.000 A 
ATOM     11  C   UNL     1      -0.583  11.067  20.918  0.00  0.00    +0.000 A 
ATOM     12  C   UNL     1      -1.626  11.278  19.972  0.00  0.00    +0.000 A 
ATOM     13  C   UNL     1      -2.827  12.010  20.267  0.00  0.00    +0.000 A 
ATOM     14  C   UNL     1      -3.079  12.577  21.539  0.00  0.00    +0.000 A 
ATOM     15  N   UNL     1      -4.210  13.253  21.787  0.00  0.00    +0.000 N 
ATOM     16  C   UNL     1      -5.150  13.435  20.863  0.00  0.00    +0.000 A 
ATOM     17  C   UNL     1      -4.985  12.917  19.597  0.00  0.00    +0.000 A 
ATOM     18  C   UNL     1      -3.821  12.183  19.261  0.00  0.00    +0.000 A 
ATOM     19  C   UNL     1      -6.306  14.212  21.372  0.00  0.00    +0.000 C 
ATOM     20  C   UNL     1      -5.922  14.494  22.822  0.00  0.00    +0.000 C 
ATOM     21  C   UNL     1      -4.555  13.859  23.072  0.00  0.00    +0.000 C 
ENDROOT
BRANCH   1  23
ATOM     22  C   UNL     1      -3.966   9.916  13.158  0.00  0.00    +0.000 C 
ATOM     23  O   UNL     1      -2.991   9.845  14.193  0.00  0.00    +0.000 OA
ENDBRANCH   1  23
BRANCH   9  24
ATOM     24  O   UNL     1       1.922   9.116  19.106  0.00  0.00    +0.000 OA
ATOM     25  C   UNL     1       2.178   8.698  17.771  0.00  0.00    +0.000 C 
ENDBRANCH   9  24
BRANCH  10  26
ATOM     26  O   UNL     1       1.435  10.293  21.729  0.00  0.00    +0.000 OA
ATOM     27  C   UNL     1       1.213   9.287  22.711  0.00  0.00    +0.000 C 
ENDBRANCH  10  26
TORSDOF 3
ENDMDL
MODEL 5
REMARK VINA RESULT:      -6.6      5.845      9.485
REMARK  Name = 
REMARK  6 active torsions:
REMARK  status: ('A' for Active; 'I' for Inactive)
REMARK    1  A    between atoms: C_1  and  O_2
REMARK    2  A    between atoms: O_2  and  C_3
REMARK    3  A    between atoms: C_11  and  O_12
REMARK    4  A    between atoms: O_12  and  C_13
REMARK    5  A    between atoms: C_14  and  O_15
REMARK    6  A    between atoms: O_15  and  C_16
REMARK                            x       y       z     vdW  Elec       q    Type
REMARK                         _______ _______ _______ _____ _____    ______ ____
ROOT
ATOM      1  C   UNL     1       1.227   9.416  18.702  0.00  0.00    +0.000 A 
ATOM      2  C   UNL     1       1.569   9.866  19.956  0.00  0.00    +0.000 A 
ATOM      3  C   UNL     1       0.683  10.695  20.651  0.00  0.00    +0.000 A 
ATOM      4  C   UNL     1      -0.577  11.108  20.130  0.00  0.00    +0.000 A 
ATOM      5  C   UNL     1      -0.941  10.632  18.845  0.00  0.00    +0.000 A 
ATOM      6  C   UNL     1      -0.007   9.791  18.172  0.00  0.00    +0.000 A 
ATOM      7  C   UNL     1      -2.200  11.005  18.268  0.00  0.00    +0.000 A 
ATOM      8  C   UNL     1      -2.613  10.538  16.986  0.00  0.00    +0.000 A 
ATOM      9  C   UNL     1      -3.825  10.872  16.370  0.00  0.00    +0.000 A 
ATOM     10  C   UNL     1      -4.688  11.717  17.056  0.00  0.00    +0.000 A 
ATOM     11  C   UNL     1      -4.310  12.190  18.326  0.00  0.00    +0.000 A 
ATOM     12  C   UNL     1      -3.082  11.861  18.969  0.00  0.00    +0.000 A 
ATOM     13  C   UNL     1      -2.710  12.355  20.266  0.00  0.00    +0.000 A 
ATOM     14  C   UNL     1      -3.538  13.225  21.015  0.00  0.00    +0.000 A 
ATOM     15  N   UNL     1      -3.164  13.673  22.222  0.00  0.00    +0.000 N 
ATOM     16  C   UNL     1      -2.010  13.325  22.786  0.00  0.00    +0.000 A 
ATOM     17  C   UNL     1      -1.144  12.480  22.126  0.00  0.00    +0.000 A 
ATOM     18  C   UNL     1      -1.465  11.973  20.844  0.00  0.00    +0.000 A 
ATOM     19  C   UNL     1      -1.818  13.945  24.119  0.00  0.00    +0.000 C 
ATOM     20  C   UNL     1      -3.089  14.771  24.303  0.00  0.00    +0.000 C 
ATOM     21  C   UNL     1      -3.950  14.582  23.055  0.00  0.00    +0.000 C 
ENDROOT
BRANCH   1  23
ATOM     22  C   UNL     1       2.538   7.448  18.478  0.00  0.00    +0.000 C 
ATOM     23  O   UNL     1       1.981   8.618  17.892  0.00  0.00    +0.000 OA
ENDBRANCH   1  23
BRANCH   9  24
ATOM     24  O   UNL     1      -4.186  10.408  15.137  0.00  0.00    +0.000 OA
ATOM     25  C   UNL     1      -3.173   9.991  14.229  0.00  0.00    +0.000 C 
ENDBRANCH   9  24
BRANCH  10  26
ATOM     26  O   UNL     1      -5.917  12.186  16.668  0.00  0.00    +0.000 OA
ATOM     27  C   UNL     1      -6.757  12.787  17.647  0.00  0.00    +0.000 C 
ENDBRANCH  10  26
TORSDOF 3
ENDMDL
MODEL 6
REMARK VINA RESULT:      -6.5      5.871      9.511
REMARK  Name = 
REMARK  6 active torsions:
REMARK  status: ('A' for Active; 'I' for Inactive)
REMARK    1  A    between atoms: C_1  and  O_2
REMARK    2  A    between atoms: O_2  and  C_3
REMARK    3  A    between atoms: C_11  and  O_12
REMARK    4  A    between atoms: O_12  and  C_13
REMARK    5  A    between atoms: C_14  and  O_15
REMARK    6  A    between atoms: O_15  and  C_16
REMARK                            x       y       z     vdW  Elec       q    Type
REMARK                         _______ _______ _______ _____ _____    ______ ____
ROOT
ATOM      1  C   UNL     1      -4.219  11.051  16.345  0.00  0.00    +0.000 A 
ATOM      2  C   UNL     1      -5.231  11.869  16.789  0.00  0.00    +0.000 A 
ATOM      3  C   UNL     1      -5.140  12.443  18.060  0.00  0.00    +0.000 A 
ATOM      4  C   UNL     1      -4.040  12.230  18.941  0.00  0.00    +0.000 A 
ATOM      5  C   UNL     1      -2.987  11.401  18.481  0.00  0.00    +0.000 A 
ATOM      6  C   UNL     1      -3.122  10.835  17.179  0.00  0.00    +0.000 A 
ATOM      7  C   UNL     1      -1.847  11.152  19.316  0.00  0.00    +0.000 A 
ATOM      8  C   UNL     1      -0.758  10.338  18.889  0.00  0.00    +0.000 A 
ATOM      9  C   UNL     1       0.374  10.055  19.661  0.00  0.00    +0.000 A 
ATOM     10  C   UNL     1       0.445  10.608  20.932  0.00  0.00    +0.000 A 
ATOM     11  C   UNL     1      -0.612  11.422  21.380  0.00  0.00    +0.000 A 
ATOM     12  C   UNL     1      -1.772  11.720  20.610  0.00  0.00    +0.000 A 
ATOM     13  C   UNL     1      -2.845  12.551  21.084  0.00  0.00    +0.000 A 
ATOM     14  C   UNL     1      -2.841  13.139  22.371  0.00  0.00    +0.000 A 
ATOM     15  N   UNL     1      -3.858  13.907  22.788  0.00  0.00    +0.000 N 
ATOM     16  C   UNL     1      -4.915  14.167  22.023  0.00  0.00    +0.000 A 
ATOM     17  C   UNL     1      -4.999  13.637  20.754  0.00  0.00    +0.000 A 
ATOM     18  C   UNL     1      -3.969  12.808  20.247  0.00  0.00    +0.000 A 
ATOM     19  C   UNL     1      -5.905  15.040  22.699  0.00  0.00    +0.000 C 
ATOM     20  C   UNL     1      -5.271  15.290  24.066  0.00  0.00    +0.000 C 
ATOM     21  C   UNL     1      -3.939  14.541  24.103  0.00  0.00    +0.000 C 
ENDROOT
BRANCH   1  23
ATOM     22  C   UNL     1      -2.868  10.078  14.650  0.00  0.00    +0.000 C 
ATOM     23  O   UNL     1      -4.162  10.406  15.145  0.00  0.00    +0.000 OA
ENDBRANCH   1  23
BRANCH   9  24
ATOM     24  O   UNL     1       1.399   9.266  19.219  0.00  0.00    +0.000 OA
ATOM     25  C   UNL     1       1.734   9.275  17.836  0.00  0.00    +0.000 C 
ENDBRANCH   9  24
BRANCH  10  26
ATOM     26  O   UNL     1       1.439  10.480  21.870  0.00  0.00    +0.000 OA
ATOM     27  C   UNL     1       1.500   9.285  22.640  0.00  0.00    +0.000 C 
ENDBRANCH  10  26
TORSDOF 3
ENDMDL
MODEL 7
REMARK VINA RESULT:      -6.3      9.723     11.498
REMARK  Name = 
REMARK  6 active torsions:
REMARK  status: ('A' for Active; 'I' for Inactive)
REMARK    1  A    between atoms: C_1  and  O_2
REMARK    2  A    between atoms: O_2  and  C_3
REMARK    3  A    between atoms: C_11  and  O_12
REMARK    4  A    between atoms: O_12  and  C_13
REMARK    5  A    between atoms: C_14  and  O_15
REMARK    6  A    between atoms: O_15  and  C_16
REMARK                            x       y       z     vdW  Elec       q    Type
REMARK                         _______ _______ _______ _____ _____    ______ ____
ROOT
ATOM      1  C   UNL     1      11.191  17.010  21.750  0.00  0.00    +0.000 A 
ATOM      2  C   UNL     1      10.535  17.263  22.933  0.00  0.00    +0.000 A 
ATOM      3  C   UNL     1       9.711  16.277  23.483  0.00  0.00    +0.000 A 
ATOM      4  C   UNL     1       9.506  15.001  22.883  0.00  0.00    +0.000 A 
ATOM      5  C   UNL     1      10.193  14.730  21.674  0.00  0.00    +0.000 A 
ATOM      6  C   UNL     1      11.021  15.764  21.147  0.00  0.00    +0.000 A 
ATOM      7  C   UNL     1      10.034  13.461  21.023  0.00  0.00    +0.000 A 
ATOM      8  C   UNL     1      10.717  13.139  19.815  0.00  0.00    +0.000 A 
ATOM      9  C   UNL     1      10.598  11.923  19.133  0.00  0.00    +0.000 A 
ATOM     10  C   UNL     1       9.758  10.958  19.672  0.00  0.00    +0.000 A 
ATOM     11  C   UNL     1       9.074  11.244  20.869  0.00  0.00    +0.000 A 
ATOM     12  C   UNL     1       9.182  12.476  21.576  0.00  0.00    +0.000 A 
ATOM     13  C   UNL     1       8.475  12.753  22.796  0.00  0.00    +0.000 A 
ATOM     14  C   UNL     1       7.597  11.819  23.395  0.00  0.00    +0.000 A 
ATOM     15  N   UNL     1       6.947  12.106  24.533  0.00  0.00    +0.000 N 
ATOM     16  C   UNL     1       7.093  13.268  25.164  0.00  0.00    +0.000 A 
ATOM     17  C   UNL     1       7.931  14.234  24.650  0.00  0.00    +0.000 A 
ATOM     18  C   UNL     1       8.644  14.008  23.448  0.00  0.00    +0.000 A 
ATOM     19  C   UNL     1       6.276  13.353  26.398  0.00  0.00    +0.000 C 
ATOM     20  C   UNL     1       5.565  12.002  26.436  0.00  0.00    +0.000 C 
ATOM     21  C   UNL     1       6.015  11.207  25.211  0.00  0.00    +0.000 C 
ENDROOT
BRANCH   1  23
ATOM     22  C   UNL     1      11.931  17.855  19.657  0.00  0.00    +0.000 C 
ATOM     23  O   UNL     1      12.014  17.865  21.078  0.00  0.00    +0.000 OA
ENDBRANCH   1  23
BRANCH   9  24
ATOM     24  O   UNL     1      11.266  11.651  17.972  0.00  0.00    +0.000 OA
ATOM     25  C   UNL     1      11.616  12.724  17.106  0.00  0.00    +0.000 C 
ENDBRANCH   9  24
BRANCH  10  26
ATOM     26  O   UNL     1       9.475   9.703  19.197  0.00  0.00    +0.000 OA
ATOM     27  C   UNL     1       8.455   9.558  18.215  0.00  0.00    +0.000 C 
ENDBRANCH  10  26
TORSDOF 3
ENDMDL
MODEL 8
REMARK VINA RESULT:      -6.3      6.505     10.162
REMARK  Name = 
REMARK  6 active torsions:
REMARK  status: ('A' for Active; 'I' for Inactive)
REMARK    1  A    between atoms: C_1  and  O_2
REMARK    2  A    between atoms: O_2  and  C_3
REMARK    3  A    between atoms: C_11  and  O_12
REMARK    4  A    between atoms: O_12  and  C_13
REMARK    5  A    between atoms: C_14  and  O_15
REMARK    6  A    between atoms: O_15  and  C_16
REMARK                            x       y       z     vdW  Elec       q    Type
REMARK                         _______ _______ _______ _____ _____    ______ ____
ROOT
ATOM      1  C   UNL     1      -4.267  10.917  16.638  0.00  0.00    +0.000 A 
ATOM      2  C   UNL     1      -5.411  11.444  17.190  0.00  0.00    +0.000 A 
ATOM      3  C   UNL     1      -5.329  12.150  18.393  0.00  0.00    +0.000 A 
ATOM      4  C   UNL     1      -4.107  12.363  19.095  0.00  0.00    +0.000 A 
ATOM      5  C   UNL     1      -2.923  11.837  18.521  0.00  0.00    +0.000 A 
ATOM      6  C   UNL     1      -3.054  11.123  17.295  0.00  0.00    +0.000 A 
ATOM      7  C   UNL     1      -1.660  12.024  19.175  0.00  0.00    +0.000 A 
ATOM      8  C   UNL     1      -0.442  11.526  18.627  0.00  0.00    +0.000 A 
ATOM      9  C   UNL     1       0.816  11.671  19.221  0.00  0.00    +0.000 A 
ATOM     10  C   UNL     1       0.887  12.352  20.429  0.00  0.00    +0.000 A 
ATOM     11  C   UNL     1      -0.298  12.861  20.993  0.00  0.00    +0.000 A 
ATOM     12  C   UNL     1      -1.587  12.722  20.404  0.00  0.00    +0.000 A 
ATOM     13  C   UNL     1      -2.788  13.246  20.994  0.00  0.00    +0.000 A 
ATOM     14  C   UNL     1      -2.790  13.941  22.227  0.00  0.00    +0.000 A 
ATOM     15  N   UNL     1      -3.926  14.416  22.756  0.00  0.00    +0.000 N 
ATOM     16  C   UNL     1      -5.106  14.272  22.158  0.00  0.00    +0.000 A 
ATOM     17  C   UNL     1      -5.195  13.609  20.953  0.00  0.00    +0.000 A 
ATOM     18  C   UNL     1      -4.040  13.071  20.337  0.00  0.00    +0.000 A 
ATOM     19  C   UNL     1      -6.215  14.881  22.932  0.00  0.00    +0.000 C 
ATOM     20  C   UNL     1      -5.508  15.449  24.161  0.00  0.00    +0.000 C 
ATOM     21  C   UNL     1      -4.019  15.134  24.027  0.00  0.00    +0.000 C 
ENDROOT
BRANCH   1  23
ATOM     22  C   UNL     1      -2.934  10.230  14.795  0.00  0.00    +0.000 C 
ATOM     23  O   UNL     1      -4.179  10.194  15.484  0.00  0.00    +0.000 OA
ENDBRANCH   1  23
BRANCH   9  24
ATOM     24  O   UNL     1       1.963  11.176  18.667  0.00  0.00    +0.000 OA
ATOM     25  C   UNL     1       1.913   9.946  17.953  0.00  0.00    +0.000 C 
ENDBRANCH   9  24
BRANCH  10  26
ATOM     26  O   UNL     1       1.989  12.621  21.199  0.00  0.00    +0.000 OA
ATOM     27  C   UNL     1       2.739  13.800  20.930  0.00  0.00    +0.000 C 
ENDBRANCH  10  26
TORSDOF 3
ENDMDL
MODEL 9
REMARK VINA RESULT:      -6.2      9.437     11.633
REMARK  Name = 
REMARK  6 active torsions:
REMARK  status: ('A' for Active; 'I' for Inactive)
REMARK    1  A    between atoms: C_1  and  O_2
REMARK    2  A    between atoms: O_2  and  C_3
REMARK    3  A    between atoms: C_11  and  O_12
REMARK    4  A    between atoms: O_12  and  C_13
REMARK    5  A    between atoms: C_14  and  O_15
REMARK    6  A    between atoms: O_15  and  C_16
REMARK                            x       y       z     vdW  Elec       q    Type
REMARK                         _______ _______ _______ _____ _____    ______ ____
ROOT
ATOM      1  C   UNL     1      10.749  12.252  18.652  0.00  0.00    +0.000 A 
ATOM      2  C   UNL     1      10.552  11.258  19.582  0.00  0.00    +0.000 A 
ATOM      3  C   UNL     1       9.679  11.484  20.651  0.00  0.00    +0.000 A 
ATOM      4  C   UNL     1       8.965  12.702  20.836  0.00  0.00    +0.000 A 
ATOM      5  C   UNL     1       9.151  13.723  19.871  0.00  0.00    +0.000 A 
ATOM      6  C   UNL     1      10.052  13.451  18.799  0.00  0.00    +0.000 A 
ATOM      7  C   UNL     1       8.455  14.971  19.996  0.00  0.00    +0.000 A 
ATOM      8  C   UNL     1       8.600  16.018  19.041  0.00  0.00    +0.000 A 
ATOM      9  C   UNL     1       7.954  17.257  19.114  0.00  0.00    +0.000 A 
ATOM     10  C   UNL     1       7.108  17.483  20.191  0.00  0.00    +0.000 A 
ATOM     11  C   UNL     1       6.939  16.465  21.149  0.00  0.00    +0.000 A 
ATOM     12  C   UNL     1       7.589  15.199  21.092  0.00  0.00    +0.000 A 
ATOM     13  C   UNL     1       7.408  14.171  22.079  0.00  0.00    +0.000 A 
ATOM     14  C   UNL     1       6.568  14.337  23.206  0.00  0.00    +0.000 A 
ATOM     15  N   UNL     1       6.420  13.362  24.114  0.00  0.00    +0.000 N 
ATOM     16  C   UNL     1       7.040  12.189  24.007  0.00  0.00    +0.000 A 
ATOM     17  C   UNL     1       7.875  11.942  22.940  0.00  0.00    +0.000 A 
ATOM     18  C   UNL     1       8.089  12.927  21.945  0.00  0.00    +0.000 A 
ATOM     19  C   UNL     1       6.721  11.273  25.129  0.00  0.00    +0.000 C 
ATOM     20  C   UNL     1       5.765  12.097  25.988  0.00  0.00    +0.000 C 
ATOM     21  C   UNL     1       5.585  13.454  25.310  0.00  0.00    +0.000 C 
ENDROOT
BRANCH   1  23
ATOM     22  C   UNL     1      11.676  13.377  16.776  0.00  0.00    +0.000 C 
ATOM     23  O   UNL     1      11.573  12.197  17.566  0.00  0.00    +0.000 OA
ENDBRANCH   1  23
BRANCH   9  24
ATOM     24  O   UNL     1       8.121  18.241  18.180  0.00  0.00    +0.000 OA
ATOM     25  C   UNL     1       9.438  18.628  17.809  0.00  0.00    +0.000 C 
ENDBRANCH   9  24
BRANCH  10  26
ATOM     26  O   UNL     1       6.370  18.602  20.484  0.00  0.00    +0.000 OA
ATOM     27  C   UNL     1       5.626  18.631  21.696  0.00  0.00    +0.000 C 
ENDBRANCH  10  26
TORSDOF 3
ENDMDL
