MODEL 1
REMARK VINA RESULT:      -7.6      0.000      0.000
REMARK  Name = 
REMARK  6 active torsions:
REMARK  status: ('A' for Active; 'I' for Inactive)
REMARK    1  A    between atoms: C_1  and  C_2
REMARK    2  A    between atoms: CA_4  and  C_5
REMARK    3  A    between atoms: C_5  and  OXT_7
REMARK    4  A    between atoms: C_8  and  C_9
REMARK    5  A    between atoms: C_10  and  C_11
REMARK    6  A    between atoms: N_13  and  C_14
REMARK                            x       y       z     vdW  Elec       q    Type
REMARK                         _______ _______ _______ _____ _____    ______ ____
ROOT
ATOM      1  C   UNL     1       1.898   3.135  22.023  0.00  0.00    +0.000 C 
ATOM      2  C   UNL     1       2.241   4.048  20.906  0.00  0.00    +0.000 A 
ATOM      3  N   UNL     1       1.950   5.390  20.940  0.00  0.00    +0.000 N 
ATOM      4  CA  UNL     1       2.418   6.030  19.803  0.00  0.00    +0.000 A 
ATOM      5  C   UNL     1       2.959   5.036  18.997  0.00  0.00    +0.000 A 
ATOM      6  C   UNL     1       2.856   3.812  19.699  0.00  0.00    +0.000 A 
ATOM      7 BR   UNL     1       3.455   2.147  19.063  0.00  0.00    +0.000 Br
ATOM      8  H   UNL     1       1.484   5.877  21.699  0.00  0.00    +0.000 HD
ENDROOT
BRANCH   4   9
ATOM      9  C   UNL     1       2.241   7.457  19.660  0.00  0.00    +0.000 C 
ATOM     10  O   UNL     1       2.365   8.058  18.603  0.00  0.00    +0.000 OA
BRANCH   9  11
ATOM     11  OXT UNL     1       1.858   8.078  20.798  0.00  0.00    +0.000 OA
ATOM     12  HXT UNL     1       2.164   7.634  21.608  0.00  0.00    +0.000 HD
ENDBRANCH   9  11
ENDBRANCH   4   9
BRANCH   5  13
ATOM     13  C   UNL     1       3.534   5.224  17.710  0.00  0.00    +0.000 C 
ATOM     14  C   UNL     1       4.740   5.766  17.481  0.00  0.00    +0.000 C 
BRANCH  14  15
ATOM     15  C   UNL     1       5.196   5.845  16.068  0.00  0.00    +0.000 C 
ATOM     16  O   UNL     1       5.153   6.915  15.471  0.00  0.00    +0.000 OA
ATOM     17  N   UNL     1       5.587   4.627  15.550  0.00  0.00    +0.000 N 
ATOM     18  H   UNL     1       5.424   3.797  16.103  0.00  0.00    +0.000 HD
BRANCH  17  19
ATOM     19  C   UNL     1       6.107   4.420  14.253  0.00  0.00    +0.000 A 
ATOM     20  C   UNL     1       5.540   3.534  13.333  0.00  0.00    +0.000 A 
ATOM     21  C   UNL     1       6.104   3.359  12.067  0.00  0.00    +0.000 A 
ATOM     22  C   UNL     1       7.243   4.071  11.707  0.00  0.00    +0.000 A 
ATOM     23  C   UNL     1       7.810   4.969  12.609  0.00  0.00    +0.000 A 
ATOM     24  C   UNL     1       7.239   5.153  13.873  0.00  0.00    +0.000 A 
ENDBRANCH  17  19
ENDBRANCH  14  15
ENDBRANCH   5  13
TORSDOF 5
ENDMDL
MODEL 2
REMARK VINA RESULT:      -7.3      0.230      1.280
REMARK  Name = 
REMARK  6 active torsions:
REMARK  status: ('A' for Active; 'I' for Inactive)
REMARK    1  A    between atoms: C_1  and  C_2
REMARK    2  A    between atoms: CA_4  and  C_5
REMARK    3  A    between atoms: C_5  and  OXT_7
REMARK    4  A    between atoms: C_8  and  C_9
REMARK    5  A    between atoms: C_10  and  C_11
REMARK    6  A    between atoms: N_13  and  C_14
REMARK                            x       y       z     vdW  Elec       q    Type
REMARK                         _______ _______ _______ _____ _____    ______ ____
ROOT
ATOM      1  C   UNL     1       1.552   2.876  21.761  0.00  0.00    +0.000 C 
ATOM      2  C   UNL     1       1.984   3.849  20.727  0.00  0.00    +0.000 A 
ATOM      3  N   UNL     1       1.717   5.192  20.827  0.00  0.00    +0.000 N 
ATOM      4  CA  UNL     1       2.269   5.890  19.765  0.00  0.00    +0.000 A 
ATOM      5  C   UNL     1       2.840   4.936  18.933  0.00  0.00    +0.000 A 
ATOM      6  C   UNL     1       2.669   3.673  19.548  0.00  0.00    +0.000 A 
ATOM      7 BR   UNL     1       3.275   2.037  18.846  0.00  0.00    +0.000 Br
ATOM      8  H   UNL     1       1.214   5.642  21.586  0.00  0.00    +0.000 HD
ENDROOT
BRANCH   4   9
ATOM      9  C   UNL     1       2.129   7.327  19.701  0.00  0.00    +0.000 C 
ATOM     10  O   UNL     1       1.825   8.027  20.656  0.00  0.00    +0.000 OA
BRANCH   9  11
ATOM     11  OXT UNL     1       2.427   7.852  18.492  0.00  0.00    +0.000 OA
ATOM     12  HXT UNL     1       2.570   7.184  17.799  0.00  0.00    +0.000 HD
ENDBRANCH   9  11
ENDBRANCH   4   9
BRANCH   5  13
ATOM     13  C   UNL     1       3.500   5.189  17.699  0.00  0.00    +0.000 C 
ATOM     14  C   UNL     1       4.756   5.645  17.580  0.00  0.00    +0.000 C 
BRANCH  14  15
ATOM     15  C   UNL     1       5.295   5.812  16.204  0.00  0.00    +0.000 C 
ATOM     16  O   UNL     1       5.344   6.928  15.699  0.00  0.00    +0.000 OA
ATOM     17  N   UNL     1       5.648   4.620  15.607  0.00  0.00    +0.000 N 
ATOM     18  H   UNL     1       5.410   3.759  16.078  0.00  0.00    +0.000 HD
BRANCH  17  19
ATOM     19  C   UNL     1       6.230   4.490  14.325  0.00  0.00    +0.000 A 
ATOM     20  C   UNL     1       7.357   5.210  13.920  0.00  0.00    +0.000 A 
ATOM     21  C   UNL     1       7.883   5.052  12.636  0.00  0.00    +0.000 A 
ATOM     22  C   UNL     1       7.287   4.168  11.743  0.00  0.00    +0.000 A 
ATOM     23  C   UNL     1       6.173   3.433  12.139  0.00  0.00    +0.000 A 
ATOM     24  C   UNL     1       5.651   3.583  13.429  0.00  0.00    +0.000 A 
ENDBRANCH  17  19
ENDBRANCH  14  15
ENDBRANCH   5  13
TORSDOF 5
ENDMDL
MODEL 3
REMARK VINA RESULT:      -7.3      3.854      7.018
REMARK  Name = 
REMARK  6 active torsions:
REMARK  status: ('A' for Active; 'I' for Inactive)
REMARK    1  A    between atoms: C_1  and  C_2
REMARK    2  A    between atoms: CA_4  and  C_5
REMARK    3  A    between atoms: C_5  and  OXT_7
REMARK    4  A    between atoms: C_8  and  C_9
REMARK    5  A    between atoms: C_10  and  C_11
REMARK    6  A    between atoms: N_13  and  C_14
REMARK                            x       y       z     vdW  Elec       q    Type
REMARK                         _______ _______ _______ _____ _____    ______ ____
ROOT
ATOM      1  C   UNL     1       3.789   1.030  18.683  0.00  0.00    +0.000 C 
ATOM      2  C   UNL     1       3.900   2.494  18.894  0.00  0.00    +0.000 A 
ATOM      3  N   UNL     1       5.097   3.159  18.800  0.00  0.00    +0.000 N 
ATOM      4  CA  UNL     1       4.926   4.522  18.988  0.00  0.00    +0.000 A 
ATOM      5  C   UNL     1       3.580   4.703  19.283  0.00  0.00    +0.000 A 
ATOM      6  C   UNL     1       2.951   3.438  19.208  0.00  0.00    +0.000 A 
ATOM      7 BR   UNL     1       1.121   3.121  19.503  0.00  0.00    +0.000 Br
ATOM      8  H   UNL     1       5.996   2.737  18.588  0.00  0.00    +0.000 HD
ENDROOT
BRANCH   4   9
ATOM      9  C   UNL     1       6.064   5.407  18.894  0.00  0.00    +0.000 C 
ATOM     10  O   UNL     1       6.215   6.234  18.007  0.00  0.00    +0.000 OA
BRANCH   9  11
ATOM     11  OXT UNL     1       6.935   5.288  19.921  0.00  0.00    +0.000 OA
ATOM     12  HXT UNL     1       7.825   5.627  19.721  0.00  0.00    +0.000 HD
ENDBRANCH   9  11
ENDBRANCH   4   9
BRANCH   5  13
ATOM     13  C   UNL     1       2.949   5.942  19.580  0.00  0.00    +0.000 C 
ATOM     14  C   UNL     1       2.656   6.890  18.677  0.00  0.00    +0.000 C 
BRANCH  14  15
ATOM     15  C   UNL     1       1.956   8.107  19.167  0.00  0.00    +0.000 C 
ATOM     16  O   UNL     1       1.763   8.259  20.368  0.00  0.00    +0.000 OA
ATOM     17  N   UNL     1       1.539   8.944  18.152  0.00  0.00    +0.000 N 
ATOM     18  H   UNL     1       1.627   8.621  17.198  0.00  0.00    +0.000 HD
BRANCH  17  19
ATOM     19  C   UNL     1       0.894  10.189  18.333  0.00  0.00    +0.000 A 
ATOM     20  C   UNL     1       1.582  11.372  18.614  0.00  0.00    +0.000 A 
ATOM     21  C   UNL     1       0.893  12.574  18.796  0.00  0.00    +0.000 A 
ATOM     22  C   UNL     1      -0.494  12.603  18.697  0.00  0.00    +0.000 A 
ATOM     23  C   UNL     1      -1.190  11.434  18.402  0.00  0.00    +0.000 A 
ATOM     24  C   UNL     1      -0.499  10.232  18.209  0.00  0.00    +0.000 A 
ENDBRANCH  17  19
ENDBRANCH  14  15
ENDBRANCH   5  13
TORSDOF 5
ENDMDL
MODEL 4
REMARK VINA RESULT:      -7.3      3.915      6.966
REMARK  Name = 
REMARK  6 active torsions:
REMARK  status: ('A' for Active; 'I' for Inactive)
REMARK    1  A    between atoms: C_1  and  C_2
REMARK    2  A    between atoms: CA_4  and  C_5
REMARK    3  A    between atoms: C_5  and  OXT_7
REMARK    4  A    between atoms: C_8  and  C_9
REMARK    5  A    between atoms: C_10  and  C_11
REMARK    6  A    between atoms: N_13  and  C_14
REMARK                            x       y       z     vdW  Elec       q    Type
REMARK                         _______ _______ _______ _____ _____    ______ ____
ROOT
ATOM      1  C   UNL     1       3.804   1.043  18.495  0.00  0.00    +0.000 C 
ATOM      2  C   UNL     1       3.910   2.495  18.779  0.00  0.00    +0.000 A 
ATOM      3  N   UNL     1       5.116   3.152  18.797  0.00  0.00    +0.000 N 
ATOM      4  CA  UNL     1       4.941   4.507  19.033  0.00  0.00    +0.000 A 
ATOM      5  C   UNL     1       3.580   4.688  19.242  0.00  0.00    +0.000 A 
ATOM      6  C   UNL     1       2.948   3.434  19.067  0.00  0.00    +0.000 A 
ATOM      7 BR   UNL     1       1.100   3.123  19.221  0.00  0.00    +0.000 Br
ATOM      8  H   UNL     1       6.024   2.731  18.629  0.00  0.00    +0.000 HD
ENDROOT
BRANCH   4   9
ATOM      9  C   UNL     1       6.089   5.384  19.058  0.00  0.00    +0.000 C 
ATOM     10  O   UNL     1       6.972   5.330  19.901  0.00  0.00    +0.000 OA
BRANCH   9  11
ATOM     11  OXT UNL     1       6.140   6.247  18.018  0.00  0.00    +0.000 OA
ATOM     12  HXT UNL     1       6.434   5.839  17.185  0.00  0.00    +0.000 HD
ENDBRANCH   9  11
ENDBRANCH   4   9
BRANCH   5  13
ATOM     13  C   UNL     1       2.937   5.920  19.550  0.00  0.00    +0.000 C 
ATOM     14  C   UNL     1       2.652   6.880  18.657  0.00  0.00    +0.000 C 
BRANCH  14  15
ATOM     15  C   UNL     1       1.939   8.086  19.156  0.00  0.00    +0.000 C 
ATOM     16  O   UNL     1       1.729   8.218  20.356  0.00  0.00    +0.000 OA
ATOM     17  N   UNL     1       1.530   8.935  18.148  0.00  0.00    +0.000 N 
ATOM     18  H   UNL     1       1.632   8.627  17.191  0.00  0.00    +0.000 HD
BRANCH  17  19
ATOM     19  C   UNL     1       0.876  10.173  18.339  0.00  0.00    +0.000 A 
ATOM     20  C   UNL     1      -0.513  10.319  18.298  0.00  0.00    +0.000 A 
ATOM     21  C   UNL     1      -1.107  11.570  18.481  0.00  0.00    +0.000 A 
ATOM     22  C   UNL     1      -0.315  12.690  18.708  0.00  0.00    +0.000 A 
ATOM     23  C   UNL     1       1.070  12.557  18.767  0.00  0.00    +0.000 A 
ATOM     24  C   UNL     1       1.665  11.301  18.595  0.00  0.00    +0.000 A 
ENDBRANCH  17  19
ENDBRANCH  14  15
ENDBRANCH   5  13
TORSDOF 5
ENDMDL
MODEL 5
REMARK VINA RESULT:      -7.3      3.924      7.261
REMARK  Name = 
REMARK  6 active torsions:
REMARK  status: ('A' for Active; 'I' for Inactive)
REMARK    1  A    between atoms: C_1  and  C_2
REMARK    2  A    between atoms: CA_4  and  C_5
REMARK    3  A    between atoms: C_5  and  OXT_7
REMARK    4  A    between atoms: C_8  and  C_9
REMARK    5  A    between atoms: C_10  and  C_11
REMARK    6  A    between atoms: N_13  and  C_14
REMARK                            x       y       z     vdW  Elec       q    Type
REMARK                         _______ _______ _______ _____ _____    ______ ____
ROOT
ATOM      1  C   UNL     1       3.933   1.336  18.972  0.00  0.00    +0.000 C 
ATOM      2  C   UNL     1       4.101   2.809  19.007  0.00  0.00    +0.000 A 
ATOM      3  N   UNL     1       5.337   3.406  18.995  0.00  0.00    +0.000 N 
ATOM      4  CA  UNL     1       5.224   4.787  18.980  0.00  0.00    +0.000 A 
ATOM      5  C   UNL     1       3.864   5.062  19.058  0.00  0.00    +0.000 A 
ATOM      6  C   UNL     1       3.176   3.825  19.060  0.00  0.00    +0.000 A 
ATOM      7 BR   UNL     1       1.308   3.627  19.135  0.00  0.00    +0.000 Br
ATOM      8  H   UNL     1       6.230   2.922  18.967  0.00  0.00    +0.000 HD
ENDROOT
BRANCH   4   9
ATOM      9  C   UNL     1       6.414   5.604  18.932  0.00  0.00    +0.000 C 
ATOM     10  O   UNL     1       6.681   6.372  18.019  0.00  0.00    +0.000 OA
BRANCH   9  11
ATOM     11  OXT UNL     1       7.196   5.496  20.030  0.00  0.00    +0.000 OA
ATOM     12  HXT UNL     1       8.143   5.399  19.829  0.00  0.00    +0.000 HD
ENDBRANCH   9  11
ENDBRANCH   4   9
BRANCH   5  13
ATOM     13  C   UNL     1       3.273   6.355  19.101  0.00  0.00    +0.000 C 
ATOM     14  C   UNL     1       2.834   7.034  18.030  0.00  0.00    +0.000 C 
BRANCH  14  15
ATOM     15  C   UNL     1       2.205   8.359  18.273  0.00  0.00    +0.000 C 
ATOM     16  O   UNL     1       2.409   9.284  17.494  0.00  0.00    +0.000 OA
ATOM     17  N   UNL     1       1.468   8.409  19.438  0.00  0.00    +0.000 N 
ATOM     18  H   UNL     1       1.512   7.620  20.067  0.00  0.00    +0.000 HD
BRANCH  17  19
ATOM     19  C   UNL     1       0.726   9.526  19.888  0.00  0.00    +0.000 A 
ATOM     20  C   UNL     1       0.909  10.109  21.145  0.00  0.00    +0.000 A 
ATOM     21  C   UNL     1       0.139  11.204  21.544  0.00  0.00    +0.000 A 
ATOM     22  C   UNL     1      -0.823  11.728  20.687  0.00  0.00    +0.000 A 
ATOM     23  C   UNL     1      -1.004  11.166  19.425  0.00  0.00    +0.000 A 
ATOM     24  C   UNL     1      -0.225  10.076  19.021  0.00  0.00    +0.000 A 
ENDBRANCH  17  19
ENDBRANCH  14  15
ENDBRANCH   5  13
TORSDOF 5
ENDMDL
MODEL 6
REMARK VINA RESULT:      -7.2      5.350      7.289
REMARK  Name = 
REMARK  6 active torsions:
REMARK  status: ('A' for Active; 'I' for Inactive)
REMARK    1  A    between atoms: C_1  and  C_2
REMARK    2  A    between atoms: CA_4  and  C_5
REMARK    3  A    between atoms: C_5  and  OXT_7
REMARK    4  A    between atoms: C_8  and  C_9
REMARK    5  A    between atoms: C_10  and  C_11
REMARK    6  A    between atoms: N_13  and  C_14
REMARK                            x       y       z     vdW  Elec       q    Type
REMARK                         _______ _______ _______ _____ _____    ______ ____
ROOT
ATOM      1  C   UNL     1       2.640   3.904  17.412  0.00  0.00    +0.000 C 
ATOM      2  C   UNL     1       3.905   4.678  17.358  0.00  0.00    +0.000 A 
ATOM      3  N   UNL     1       5.100   4.104  17.002  0.00  0.00    +0.000 N 
ATOM      4  CA  UNL     1       6.117   5.046  16.977  0.00  0.00    +0.000 A 
ATOM      5  C   UNL     1       5.547   6.239  17.404  0.00  0.00    +0.000 A 
ATOM      6  C   UNL     1       4.169   6.001  17.624  0.00  0.00    +0.000 A 
ATOM      7 BR   UNL     1       2.927   7.292  18.196  0.00  0.00    +0.000 Br
ATOM      8  H   UNL     1       5.240   3.130  16.754  0.00  0.00    +0.000 HD
ENDROOT
BRANCH   4   9
ATOM      9  C   UNL     1       7.452   4.649  16.593  0.00  0.00    +0.000 C 
ATOM     10  O   UNL     1       8.258   4.134  17.354  0.00  0.00    +0.000 OA
BRANCH   9  11
ATOM     11  OXT UNL     1       7.724   4.842  15.282  0.00  0.00    +0.000 OA
ATOM     12  HXT UNL     1       7.115   5.461  14.843  0.00  0.00    +0.000 HD
ENDBRANCH   9  11
ENDBRANCH   4   9
BRANCH   5  13
ATOM     13  C   UNL     1       6.224   7.479  17.564  0.00  0.00    +0.000 C 
ATOM     14  C   UNL     1       7.501   7.612  17.954  0.00  0.00    +0.000 C 
BRANCH  14  15
ATOM     15  C   UNL     1       8.053   8.990  18.027  0.00  0.00    +0.000 C 
ATOM     16  O   UNL     1       7.698   9.834  17.212  0.00  0.00    +0.000 OA
ATOM     17  N   UNL     1       8.990   9.152  19.027  0.00  0.00    +0.000 N 
ATOM     18  H   UNL     1       9.303   8.331  19.526  0.00  0.00    +0.000 HD
BRANCH  17  19
ATOM     19  C   UNL     1       9.637  10.366  19.351  0.00  0.00    +0.000 A 
ATOM     20  C   UNL     1      10.491  11.036  18.471  0.00  0.00    +0.000 A 
ATOM     21  C   UNL     1      11.115  12.227  18.848  0.00  0.00    +0.000 A 
ATOM     22  C   UNL     1      10.890  12.762  20.112  0.00  0.00    +0.000 A 
ATOM     23  C   UNL     1      10.030  12.112  20.994  0.00  0.00    +0.000 A 
ATOM     24  C   UNL     1       9.396  10.924  20.612  0.00  0.00    +0.000 A 
ENDBRANCH  17  19
ENDBRANCH  14  15
ENDBRANCH   5  13
TORSDOF 5
ENDMDL
MODEL 7
REMARK VINA RESULT:      -7.2      3.873      7.114
REMARK  Name = 
REMARK  6 active torsions:
REMARK  status: ('A' for Active; 'I' for Inactive)
REMARK    1  A    between atoms: C_1  and  C_2
REMARK    2  A    between atoms: CA_4  and  C_5
REMARK    3  A    between atoms: C_5  and  OXT_7
REMARK    4  A    between atoms: C_8  and  C_9
REMARK    5  A    between atoms: C_10  and  C_11
REMARK    6  A    between atoms: N_13  and  C_14
REMARK                            x       y       z     vdW  Elec       q    Type
REMARK                         _______ _______ _______ _____ _____    ______ ____
ROOT
ATOM      1  C   UNL     1       3.800   1.350  18.672  0.00  0.00    +0.000 C 
ATOM      2  C   UNL     1       4.009   2.815  18.576  0.00  0.00    +0.000 A 
ATOM      3  N   UNL     1       5.224   3.400  18.835  0.00  0.00    +0.000 N 
ATOM      4  CA  UNL     1       5.173   4.769  18.625  0.00  0.00    +0.000 A 
ATOM      5  C   UNL     1       3.855   5.058  18.292  0.00  0.00    +0.000 A 
ATOM      6  C   UNL     1       3.146   3.834  18.251  0.00  0.00    +0.000 A 
ATOM      7 BR   UNL     1       1.321   3.656  17.831  0.00  0.00    +0.000 Br
ATOM      8  H   UNL     1       6.071   2.913  19.112  0.00  0.00    +0.000 HD
ENDROOT
BRANCH   4   9
ATOM      9  C   UNL     1       6.362   5.569  18.812  0.00  0.00    +0.000 C 
ATOM     10  O   UNL     1       7.055   5.538  19.818  0.00  0.00    +0.000 OA
BRANCH   9  11
ATOM     11  OXT UNL     1       6.687   6.323  17.738  0.00  0.00    +0.000 OA
ATOM     12  HXT UNL     1       7.640   6.333  17.541  0.00  0.00    +0.000 HD
ENDBRANCH   9  11
ENDBRANCH   4   9
BRANCH   5  13
ATOM     13  C   UNL     1       3.325   6.349  18.018  0.00  0.00    +0.000 C 
ATOM     14  C   UNL     1       2.535   7.046  18.848  0.00  0.00    +0.000 C 
BRANCH  14  15
ATOM     15  C   UNL     1       2.109   8.401  18.408  0.00  0.00    +0.000 C 
ATOM     16  O   UNL     1       2.560   8.877  17.372  0.00  0.00    +0.000 OA
ATOM     17  N   UNL     1       1.247   9.018  19.292  0.00  0.00    +0.000 N 
ATOM     18  H   UNL     1       1.079   8.575  20.184  0.00  0.00    +0.000 HD
BRANCH  17  19
ATOM     19  C   UNL     1       0.650  10.284  19.101  0.00  0.00    +0.000 A 
ATOM     20  C   UNL     1      -0.555  10.466  18.416  0.00  0.00    +0.000 A 
ATOM     21  C   UNL     1      -1.095  11.743  18.245  0.00  0.00    +0.000 A 
ATOM     22  C   UNL     1      -0.434  12.853  18.760  0.00  0.00    +0.000 A 
ATOM     23  C   UNL     1       0.760  12.684  19.458  0.00  0.00    +0.000 A 
ATOM     24  C   UNL     1       1.295  11.404  19.639  0.00  0.00    +0.000 A 
ENDBRANCH  17  19
ENDBRANCH  14  15
ENDBRANCH   5  13
TORSDOF 5
ENDMDL
MODEL 8
REMARK VINA RESULT:      -7.1      3.246      7.898
REMARK  Name = 
REMARK  6 active torsions:
REMARK  status: ('A' for Active; 'I' for Inactive)
REMARK    1  A    between atoms: C_1  and  C_2
REMARK    2  A    between atoms: CA_4  and  C_5
REMARK    3  A    between atoms: C_5  and  OXT_7
REMARK    4  A    between atoms: C_8  and  C_9
REMARK    5  A    between atoms: C_10  and  C_11
REMARK    6  A    between atoms: N_13  and  C_14
REMARK                            x       y       z     vdW  Elec       q    Type
REMARK                         _______ _______ _______ _____ _____    ______ ____
ROOT
ATOM      1  C   UNL     1       6.717   4.271  15.054  0.00  0.00    +0.000 C 
ATOM      2  C   UNL     1       5.617   4.223  16.048  0.00  0.00    +0.000 A 
ATOM      3  N   UNL     1       5.152   3.041  16.569  0.00  0.00    +0.000 N 
ATOM      4  CA  UNL     1       4.162   3.267  17.512  0.00  0.00    +0.000 A 
ATOM      5  C   UNL     1       3.953   4.640  17.527  0.00  0.00    +0.000 A 
ATOM      6  C   UNL     1       4.872   5.224  16.624  0.00  0.00    +0.000 A 
ATOM      7 BR   UNL     1       5.024   7.066  16.275  0.00  0.00    +0.000 Br
ATOM      8  H   UNL     1       5.494   2.114  16.335  0.00  0.00    +0.000 HD
ENDROOT
BRANCH   4   9
ATOM      9  C   UNL     1       3.563   2.150  18.205  0.00  0.00    +0.000 C 
ATOM     10  O   UNL     1       3.994   1.682  19.249  0.00  0.00    +0.000 OA
BRANCH   9  11
ATOM     11  OXT UNL     1       2.428   1.693  17.628  0.00  0.00    +0.000 OA
ATOM     12  HXT UNL     1       2.382   1.859  16.670  0.00  0.00    +0.000 HD
ENDBRANCH   9  11
ENDBRANCH   4   9
BRANCH   5  13
ATOM     13  C   UNL     1       3.002   5.333  18.327  0.00  0.00    +0.000 C 
ATOM     14  C   UNL     1       3.025   5.392  19.667  0.00  0.00    +0.000 C 
BRANCH  14  15
ATOM     15  C   UNL     1       1.969   6.199  20.334  0.00  0.00    +0.000 C 
ATOM     16  O   UNL     1       1.051   5.638  20.920  0.00  0.00    +0.000 OA
ATOM     17  N   UNL     1       2.128   7.558  20.159  0.00  0.00    +0.000 N 
ATOM     18  H   UNL     1       2.843   7.879  19.521  0.00  0.00    +0.000 HD
BRANCH  17  19
ATOM     19  C   UNL     1       1.300   8.556  20.722  0.00  0.00    +0.000 A 
ATOM     20  C   UNL     1       1.169   8.754  22.100  0.00  0.00    +0.000 A 
ATOM     21  C   UNL     1       0.326   9.748  22.603  0.00  0.00    +0.000 A 
ATOM     22  C   UNL     1      -0.395  10.557  21.731  0.00  0.00    +0.000 A 
ATOM     23  C   UNL     1      -0.261  10.380  20.355  0.00  0.00    +0.000 A 
ATOM     24  C   UNL     1       0.592   9.392  19.851  0.00  0.00    +0.000 A 
ENDBRANCH  17  19
ENDBRANCH  14  15
ENDBRANCH   5  13
TORSDOF 5
ENDMDL
MODEL 9
REMARK VINA RESULT:      -7.1      2.365      3.106
REMARK  Name = 
REMARK  6 active torsions:
REMARK  status: ('A' for Active; 'I' for Inactive)
REMARK    1  A    between atoms: C_1  and  C_2
REMARK    2  A    between atoms: CA_4  and  C_5
REMARK    3  A    between atoms: C_5  and  OXT_7
REMARK    4  A    between atoms: C_8  and  C_9
REMARK    5  A    between atoms: C_10  and  C_11
REMARK    6  A    between atoms: N_13  and  C_14
REMARK                            x       y       z     vdW  Elec       q    Type
REMARK                         _______ _______ _______ _____ _____    ______ ____
ROOT
ATOM      1  C   UNL     1       0.759   8.504  21.437  0.00  0.00    +0.000 C 
ATOM      2  C   UNL     1       1.566   7.686  20.498  0.00  0.00    +0.000 A 
ATOM      3  N   UNL     1       2.029   6.437  20.827  0.00  0.00    +0.000 N 
ATOM      4  CA  UNL     1       2.708   5.861  19.765  0.00  0.00    +0.000 A 
ATOM      5  C   UNL     1       2.729   6.819  18.758  0.00  0.00    +0.000 A 
ATOM      6  C   UNL     1       2.004   7.943  19.220  0.00  0.00    +0.000 A 
ATOM      7 BR   UNL     1       1.712   9.520  18.238  0.00  0.00    +0.000 Br
ATOM      8  H   UNL     1       1.880   5.962  21.712  0.00  0.00    +0.000 HD
ENDROOT
BRANCH   4   9
ATOM      9  C   UNL     1       3.248   4.528  19.896  0.00  0.00    +0.000 C 
ATOM     10  O   UNL     1       4.436   4.258  19.793  0.00  0.00    +0.000 OA
BRANCH   9  11
ATOM     11  OXT UNL     1       2.324   3.592  20.211  0.00  0.00    +0.000 OA
ATOM     12  HXT UNL     1       1.448   3.760  19.821  0.00  0.00    +0.000 HD
ENDBRANCH   9  11
ENDBRANCH   4   9
BRANCH   5  13
ATOM     13  C   UNL     1       3.347   6.680  17.485  0.00  0.00    +0.000 C 
ATOM     14  C   UNL     1       4.665   6.525  17.284  0.00  0.00    +0.000 C 
BRANCH  14  15
ATOM     15  C   UNL     1       5.127   6.355  15.881  0.00  0.00    +0.000 C 
ATOM     16  O   UNL     1       5.098   7.307  15.109  0.00  0.00    +0.000 OA
ATOM     17  N   UNL     1       5.506   5.062  15.584  0.00  0.00    +0.000 N 
ATOM     18  H   UNL     1       5.331   4.341  16.270  0.00  0.00    +0.000 HD
BRANCH  17  19
ATOM     19  C   UNL     1       6.029   4.629  14.344  0.00  0.00    +0.000 A 
ATOM     20  C   UNL     1       7.255   5.068  13.837  0.00  0.00    +0.000 A 
ATOM     21  C   UNL     1       7.719   4.617  12.598  0.00  0.00    +0.000 A 
ATOM     22  C   UNL     1       6.960   3.720  11.855  0.00  0.00    +0.000 A 
ATOM     23  C   UNL     1       5.744   3.263  12.356  0.00  0.00    +0.000 A 
ATOM     24  C   UNL     1       5.284   3.706  13.601  0.00  0.00    +0.000 A 
ENDBRANCH  17  19
ENDBRANCH  14  15
ENDBRANCH   5  13
TORSDOF 5
ENDMDL
