MODEL 1
REMARK VINA RESULT:      -7.0      0.000      0.000
REMARK  Name = 
REMARK  11 active torsions:
REMARK  status: ('A' for Active; 'I' for Inactive)
REMARK    1  A    between atoms: C_1  and  C_2
REMARK    2  A    between atoms: C_2  and  C_3
REMARK    3  A    between atoms: C_3  and  N_4
REMARK    4  A    between atoms: C_3  and  C_11
REMARK    5  A    between atoms: C_5  and  C_7
REMARK    6  A    between atoms: C_7  and  C_8
REMARK    7  A    between atoms: C_7  and  N_9
REMARK    8  A    between atoms: N_9  and  C_10
REMARK    9  A    between atoms: C_17  and  C_18
REMARK   10  A    between atoms: C_20  and  C_21
REMARK   11  A    between atoms: C_27  and  C_28
REMARK                            x       y       z     vdW  Elec       q    Type
REMARK                         _______ _______ _______ _____ _____    ______ ____
ROOT
ATOM      1  C   UNL     1       2.063  14.830  21.579  0.00  0.00    +0.000 C 
ATOM      2  O   UNL     1       2.826  14.594  22.522  0.00  0.00    +0.000 OA
ATOM      3  N   UNL     1       2.539  14.913  20.276  0.00  0.00    +0.000 N 
ATOM      4  C   UNL     1       3.932  14.632  19.965  0.00  0.00    +0.000 C 
ATOM      5  C   UNL     1       4.125  15.240  18.590  0.00  0.00    +0.000 C 
ATOM      6  C   UNL     1       2.774  15.057  17.902  0.00  0.00    +0.000 C 
ATOM      7  C   UNL     1       1.741  14.937  19.040  0.00  0.00    +0.000 C 
ENDROOT
BRANCH   7   8
ATOM      8  C   UNL     1       0.960  13.665  18.876  0.00  0.00    +0.000 A 
ATOM      9  N   UNL     1      -0.309  13.504  18.561  0.00  0.00    +0.000 NA
ATOM     10  C   UNL     1      -0.483  12.140  18.566  0.00  0.00    +0.000 A 
ATOM     11  C   UNL     1       0.714  11.513  18.874  0.00  0.00    +0.000 A 
ATOM     12  O   UNL     1       1.644  12.501  19.084  0.00  0.00    +0.000 OA
BRANCH  10  13
ATOM     13  C   UNL     1      -1.765  11.526  18.279  0.00  0.00    +0.000 A 
ATOM     14  C   UNL     1      -1.825  10.427  17.413  0.00  0.00    +0.000 A 
ATOM     15  C   UNL     1      -3.043   9.802  17.143  0.00  0.00    +0.000 A 
ATOM     16  C   UNL     1      -4.214  10.274  17.732  0.00  0.00    +0.000 A 
ATOM     17  C   UNL     1      -4.169  11.382  18.576  0.00  0.00    +0.000 A 
ATOM     18  C   UNL     1      -2.953  12.014  18.837  0.00  0.00    +0.000 A 
ENDBRANCH  10  13
BRANCH  11  19
ATOM     19  C   UNL     1       1.206  10.148  18.999  0.00  0.00    +0.000 A 
ATOM     20  C   UNL     1       1.047   9.434  20.194  0.00  0.00    +0.000 A 
ATOM     21  C   UNL     1       1.556   8.142  20.330  0.00  0.00    +0.000 A 
ATOM     22  C   UNL     1       2.211   7.536  19.262  0.00  0.00    +0.000 A 
ATOM     23  C   UNL     1       2.361   8.224  18.059  0.00  0.00    +0.000 A 
ATOM     24  C   UNL     1       1.862   9.523  17.929  0.00  0.00    +0.000 A 
ENDBRANCH  11  19
ENDBRANCH   7   8
BRANCH   1  25
ATOM     25  C   UNL     1       0.557  15.100  21.836  0.00  0.00    +0.000 C 
BRANCH  25  26
ATOM     26  N   UNL     1      -0.076  13.953  22.477  0.00  0.00    +0.000 N 
ATOM     27  C   UNL     1      -1.378  13.598  22.197  0.00  0.00    +0.000 C 
ATOM     28  O   UNL     1      -2.058  14.177  21.352  0.00  0.00    +0.000 OA
ATOM     29  H   UNL     1       0.376  13.527  23.283  0.00  0.00    +0.000 HD
BRANCH  27  30
ATOM     30  C   UNL     1      -1.894  12.390  23.019  0.00  0.00    +0.000 C 
ATOM     31  C   UNL     1      -1.106  11.133  22.640  0.00  0.00    +0.000 C 
BRANCH  30  32
ATOM     32  N   UNL     1      -3.350  12.260  22.784  0.00  0.00    +0.000 NA
ATOM     33  C   UNL     1      -4.148  12.802  23.874  0.00  0.00    +0.000 C 
ATOM     34  H   UNL     1      -3.573  11.271  22.660  0.00  0.00    +0.000 HD
ENDBRANCH  30  32
ENDBRANCH  27  30
ENDBRANCH  25  26
BRANCH  25  36
ATOM     35  C   UNL     1      -0.176  17.589  21.806  0.00  0.00    +0.000 C 
ATOM     36  C   UNL     1       0.300  16.394  22.625  0.00  0.00    +0.000 C 
ENDBRANCH  25  36
ENDBRANCH   1  25
TORSDOF 8
ENDMDL
MODEL 2
REMARK VINA RESULT:      -6.9      0.583      1.278
REMARK  Name = 
REMARK  11 active torsions:
REMARK  status: ('A' for Active; 'I' for Inactive)
REMARK    1  A    between atoms: C_1  and  C_2
REMARK    2  A    between atoms: C_2  and  C_3
REMARK    3  A    between atoms: C_3  and  N_4
REMARK    4  A    between atoms: C_3  and  C_11
REMARK    5  A    between atoms: C_5  and  C_7
REMARK    6  A    between atoms: C_7  and  C_8
REMARK    7  A    between atoms: C_7  and  N_9
REMARK    8  A    between atoms: N_9  and  C_10
REMARK    9  A    between atoms: C_17  and  C_18
REMARK   10  A    between atoms: C_20  and  C_21
REMARK   11  A    between atoms: C_27  and  C_28
REMARK                            x       y       z     vdW  Elec       q    Type
REMARK                         _______ _______ _______ _____ _____    ______ ____
ROOT
ATOM      1  C   UNL     1       2.202  14.820  21.450  0.00  0.00    +0.000 C 
ATOM      2  O   UNL     1       2.976  14.602  22.390  0.00  0.00    +0.000 OA
ATOM      3  N   UNL     1       2.661  14.862  20.139  0.00  0.00    +0.000 N 
ATOM      4  C   UNL     1       4.047  14.557  19.818  0.00  0.00    +0.000 C 
ATOM      5  C   UNL     1       4.227  15.124  18.424  0.00  0.00    +0.000 C 
ATOM      6  C   UNL     1       2.865  14.936  17.759  0.00  0.00    +0.000 C 
ATOM      7  C   UNL     1       1.847  14.858  18.914  0.00  0.00    +0.000 C 
ENDROOT
BRANCH   7   8
ATOM      8  C   UNL     1       1.051  13.590  18.796  0.00  0.00    +0.000 A 
ATOM      9  N   UNL     1      -0.226  13.434  18.512  0.00  0.00    +0.000 NA
ATOM     10  C   UNL     1      -0.412  12.072  18.553  0.00  0.00    +0.000 A 
ATOM     11  C   UNL     1       0.786  11.442  18.850  0.00  0.00    +0.000 A 
ATOM     12  O   UNL     1       1.729  12.426  19.016  0.00  0.00    +0.000 OA
BRANCH  10  13
ATOM     13  C   UNL     1      -1.705  11.463  18.308  0.00  0.00    +0.000 A 
ATOM     14  C   UNL     1      -2.869  12.137  18.699  0.00  0.00    +0.000 A 
ATOM     15  C   UNL     1      -4.126  11.585  18.449  0.00  0.00    +0.000 A 
ATOM     16  C   UNL     1      -4.230  10.351  17.809  0.00  0.00    +0.000 A 
ATOM     17  C   UNL     1      -3.077   9.661  17.438  0.00  0.00    +0.000 A 
ATOM     18  C   UNL     1      -1.820  10.208  17.698  0.00  0.00    +0.000 A 
ENDBRANCH  10  13
BRANCH  11  19
ATOM     19  C   UNL     1       1.269  10.075  18.995  0.00  0.00    +0.000 A 
ATOM     20  C   UNL     1       1.051   9.359  20.181  0.00  0.00    +0.000 A 
ATOM     21  C   UNL     1       1.551   8.066  20.339  0.00  0.00    +0.000 A 
ATOM     22  C   UNL     1       2.255   7.461  19.302  0.00  0.00    +0.000 A 
ATOM     23  C   UNL     1       2.463   8.150  18.108  0.00  0.00    +0.000 A 
ATOM     24  C   UNL     1       1.974   9.450  17.957  0.00  0.00    +0.000 A 
ENDBRANCH  11  19
ENDBRANCH   7   8
BRANCH   1  25
ATOM     25  C   UNL     1       0.703  15.112  21.719  0.00  0.00    +0.000 C 
BRANCH  25  26
ATOM     26  N   UNL     1      -0.040  13.874  21.929  0.00  0.00    +0.000 N 
ATOM     27  C   UNL     1      -1.414  13.833  21.836  0.00  0.00    +0.000 C 
ATOM     28  O   UNL     1      -2.087  14.808  21.508  0.00  0.00    +0.000 OA
ATOM     29  H   UNL     1       0.438  13.077  22.342  0.00  0.00    +0.000 HD
BRANCH  27  30
ATOM     30  C   UNL     1      -2.027  12.445  22.149  0.00  0.00    +0.000 C 
ATOM     31  C   UNL     1      -3.530  12.589  22.401  0.00  0.00    +0.000 C 
BRANCH  30  32
ATOM     32  N   UNL     1      -1.295  11.866  23.298  0.00  0.00    +0.000 NA
ATOM     33  C   UNL     1      -0.912  10.478  23.082  0.00  0.00    +0.000 C 
ATOM     34  H   UNL     1      -1.886  11.929  24.128  0.00  0.00    +0.000 HD
ENDBRANCH  30  32
ENDBRANCH  27  30
ENDBRANCH  25  26
BRANCH  25  36
ATOM     35  C   UNL     1       0.512  17.581  22.498  0.00  0.00    +0.000 C 
ATOM     36  C   UNL     1       0.477  16.102  22.874  0.00  0.00    +0.000 C 
ENDBRANCH  25  36
ENDBRANCH   1  25
TORSDOF 8
ENDMDL
MODEL 3
REMARK VINA RESULT:      -6.7      2.784      6.115
REMARK  Name = 
REMARK  11 active torsions:
REMARK  status: ('A' for Active; 'I' for Inactive)
REMARK    1  A    between atoms: C_1  and  C_2
REMARK    2  A    between atoms: C_2  and  C_3
REMARK    3  A    between atoms: C_3  and  N_4
REMARK    4  A    between atoms: C_3  and  C_11
REMARK    5  A    between atoms: C_5  and  C_7
REMARK    6  A    between atoms: C_7  and  C_8
REMARK    7  A    between atoms: C_7  and  N_9
REMARK    8  A    between atoms: N_9  and  C_10
REMARK    9  A    between atoms: C_17  and  C_18
REMARK   10  A    between atoms: C_20  and  C_21
REMARK   11  A    between atoms: C_27  and  C_28
REMARK                            x       y       z     vdW  Elec       q    Type
REMARK                         _______ _______ _______ _____ _____    ______ ____
ROOT
ATOM      1  C   UNL     1      -5.163  11.816  17.268  0.00  0.00    +0.000 C 
ATOM      2  O   UNL     1      -5.775  12.777  16.786  0.00  0.00    +0.000 OA
ATOM      3  N   UNL     1      -4.325  11.034  16.482  0.00  0.00    +0.000 N 
ATOM      4  C   UNL     1      -4.064  11.374  15.092  0.00  0.00    +0.000 C 
ATOM      5  C   UNL     1      -3.497  10.096  14.509  0.00  0.00    +0.000 C 
ATOM      6  C   UNL     1      -2.721   9.464  15.662  0.00  0.00    +0.000 C 
ATOM      7  C   UNL     1      -3.353  10.033  16.948  0.00  0.00    +0.000 C 
ENDROOT
BRANCH   7   8
ATOM      8  C   UNL     1      -2.285  10.667  17.792  0.00  0.00    +0.000 A 
ATOM      9  N   UNL     1      -1.645  11.804  17.608  0.00  0.00    +0.000 NA
ATOM     10  C   UNL     1      -0.776  11.873  18.672  0.00  0.00    +0.000 A 
ATOM     11  C   UNL     1      -0.937  10.763  19.485  0.00  0.00    +0.000 A 
ATOM     12  O   UNL     1      -1.906   9.979  18.909  0.00  0.00    +0.000 OA
BRANCH  10  13
ATOM     13  C   UNL     1       0.142  12.983  18.846  0.00  0.00    +0.000 A 
ATOM     14  C   UNL     1       1.515  12.776  18.668  0.00  0.00    +0.000 A 
ATOM     15  C   UNL     1       2.415  13.834  18.803  0.00  0.00    +0.000 A 
ATOM     16  C   UNL     1       1.949  15.108  19.122  0.00  0.00    +0.000 A 
ATOM     17  C   UNL     1       0.587  15.320  19.325  0.00  0.00    +0.000 A 
ATOM     18  C   UNL     1      -0.312  14.259  19.202  0.00  0.00    +0.000 A 
ENDBRANCH  10  13
BRANCH  11  19
ATOM     19  C   UNL     1      -0.384  10.264  20.737  0.00  0.00    +0.000 A 
ATOM     20  C   UNL     1      -0.946  10.631  21.967  0.00  0.00    +0.000 A 
ATOM     21  C   UNL     1      -0.390  10.190  23.169  0.00  0.00    +0.000 A 
ATOM     22  C   UNL     1       0.722   9.354  23.155  0.00  0.00    +0.000 A 
ATOM     23  C   UNL     1       1.282   8.962  21.940  0.00  0.00    +0.000 A 
ATOM     24  C   UNL     1       0.732   9.416  20.739  0.00  0.00    +0.000 A 
ENDBRANCH  11  19
ENDBRANCH   7   8
BRANCH   1  25
ATOM     25  C   UNL     1      -5.365  11.424  18.755  0.00  0.00    +0.000 C 
BRANCH  25  26
ATOM     26  N   UNL     1      -5.618  12.602  19.576  0.00  0.00    +0.000 N 
ATOM     27  C   UNL     1      -4.668  13.092  20.447  0.00  0.00    +0.000 C 
ATOM     28  O   UNL     1      -3.540  12.614  20.537  0.00  0.00    +0.000 OA
ATOM     29  H   UNL     1      -6.570  12.951  19.656  0.00  0.00    +0.000 HD
BRANCH  27  30
ATOM     30  C   UNL     1      -5.141  14.313  21.275  0.00  0.00    +0.000 C 
ATOM     31  C   UNL     1      -3.944  15.206  21.610  0.00  0.00    +0.000 C 
BRANCH  30  32
ATOM     32  N   UNL     1      -5.850  13.811  22.474  0.00  0.00    +0.000 NA
ATOM     33  C   UNL     1      -5.027  13.850  23.674  0.00  0.00    +0.000 C 
ATOM     34  H   UNL     1      -6.149  12.850  22.299  0.00  0.00    +0.000 HD
ENDBRANCH  30  32
ENDBRANCH  27  30
ENDBRANCH  25  26
BRANCH  25  36
ATOM     35  C   UNL     1      -7.306  10.505  20.213  0.00  0.00    +0.000 C 
ATOM     36  C   UNL     1      -6.453  10.357  18.957  0.00  0.00    +0.000 C 
ENDBRANCH  25  36
ENDBRANCH   1  25
TORSDOF 8
ENDMDL
MODEL 4
REMARK VINA RESULT:      -6.5      2.675      7.200
REMARK  Name = 
REMARK  11 active torsions:
REMARK  status: ('A' for Active; 'I' for Inactive)
REMARK    1  A    between atoms: C_1  and  C_2
REMARK    2  A    between atoms: C_2  and  C_3
REMARK    3  A    between atoms: C_3  and  N_4
REMARK    4  A    between atoms: C_3  and  C_11
REMARK    5  A    between atoms: C_5  and  C_7
REMARK    6  A    between atoms: C_7  and  C_8
REMARK    7  A    between atoms: C_7  and  N_9
REMARK    8  A    between atoms: N_9  and  C_10
REMARK    9  A    between atoms: C_17  and  C_18
REMARK   10  A    between atoms: C_20  and  C_21
REMARK   11  A    between atoms: C_27  and  C_28
REMARK                            x       y       z     vdW  Elec       q    Type
REMARK                         _______ _______ _______ _____ _____    ______ ____
ROOT
ATOM      1  C   UNL     1      -6.323  11.931  20.054  0.00  0.00    +0.000 C 
ATOM      2  O   UNL     1      -6.992  10.901  20.193  0.00  0.00    +0.000 OA
ATOM      3  N   UNL     1      -6.216  12.860  21.083  0.00  0.00    +0.000 N 
ATOM      4  C   UNL     1      -6.807  12.608  22.388  0.00  0.00    +0.000 C 
ATOM      5  C   UNL     1      -6.847  13.977  23.036  0.00  0.00    +0.000 C 
ATOM      6  C   UNL     1      -5.610  14.689  22.496  0.00  0.00    +0.000 C 
ATOM      7  C   UNL     1      -5.275  13.988  21.164  0.00  0.00    +0.000 C 
ENDROOT
BRANCH   7   8
ATOM      8  C   UNL     1      -3.853  13.506  21.195  0.00  0.00    +0.000 A 
ATOM      9  N   UNL     1      -3.382  12.328  21.549  0.00  0.00    +0.000 NA
ATOM     10  C   UNL     1      -2.021  12.455  21.396  0.00  0.00    +0.000 A 
ATOM     11  C   UNL     1      -1.714  13.723  20.932  0.00  0.00    +0.000 A 
ATOM     12  O   UNL     1      -2.900  14.406  20.812  0.00  0.00    +0.000 OA
BRANCH  10  13
ATOM     13  C   UNL     1      -1.108  11.368  21.698  0.00  0.00    +0.000 A 
ATOM     14  C   UNL     1      -1.068  10.841  22.995  0.00  0.00    +0.000 A 
ATOM     15  C   UNL     1      -0.219   9.778  23.302  0.00  0.00    +0.000 A 
ATOM     16  C   UNL     1       0.603   9.235  22.316  0.00  0.00    +0.000 A 
ATOM     17  C   UNL     1       0.589   9.768  21.029  0.00  0.00    +0.000 A 
ATOM     18  C   UNL     1      -0.252  10.839  20.724  0.00  0.00    +0.000 A 
ENDBRANCH  10  13
BRANCH  11  19
ATOM     19  C   UNL     1      -0.521  14.460  20.540  0.00  0.00    +0.000 A 
ATOM     20  C   UNL     1       0.038  15.426  21.388  0.00  0.00    +0.000 A 
ATOM     21  C   UNL     1       1.155  16.164  20.995  0.00  0.00    +0.000 A 
ATOM     22  C   UNL     1       1.746  15.927  19.758  0.00  0.00    +0.000 A 
ATOM     23  C   UNL     1       1.216  14.955  18.910  0.00  0.00    +0.000 A 
ATOM     24  C   UNL     1       0.089  14.228  19.299  0.00  0.00    +0.000 A 
ENDBRANCH  11  19
ENDBRANCH   7   8
BRANCH   1  25
ATOM     25  C   UNL     1      -5.632  12.242  18.701  0.00  0.00    +0.000 C 
BRANCH  25  26
ATOM     26  N   UNL     1      -4.917  11.074  18.200  0.00  0.00    +0.000 N 
ATOM     27  C   UNL     1      -3.569  11.120  17.914  0.00  0.00    +0.000 C 
ATOM     28  O   UNL     1      -2.880  12.116  18.124  0.00  0.00    +0.000 OA
ATOM     29  H   UNL     1      -5.451  10.274  17.869  0.00  0.00    +0.000 HD
BRANCH  27  30
ATOM     30  C   UNL     1      -3.000   9.800  17.337  0.00  0.00    +0.000 C 
ATOM     31  C   UNL     1      -1.471   9.837  17.372  0.00  0.00    +0.000 C 
BRANCH  30  32
ATOM     32  N   UNL     1      -3.550   9.617  15.974  0.00  0.00    +0.000 NA
ATOM     33  C   UNL     1      -2.895  10.459  14.983  0.00  0.00    +0.000 C 
ATOM     34  H   UNL     1      -4.549   9.830  15.993  0.00  0.00    +0.000 HD
ENDBRANCH  30  32
ENDBRANCH  27  30
ENDBRANCH  25  26
BRANCH  25  36
ATOM     35  C   UNL     1      -6.979  14.271  17.804  0.00  0.00    +0.000 C 
ATOM     36  C   UNL     1      -6.597  12.803  17.643  0.00  0.00    +0.000 C 
ENDBRANCH  25  36
ENDBRANCH   1  25
TORSDOF 8
ENDMDL
MODEL 5
REMARK VINA RESULT:      -6.4      3.018      6.797
REMARK  Name = 
REMARK  11 active torsions:
REMARK  status: ('A' for Active; 'I' for Inactive)
REMARK    1  A    between atoms: C_1  and  C_2
REMARK    2  A    between atoms: C_2  and  C_3
REMARK    3  A    between atoms: C_3  and  N_4
REMARK    4  A    between atoms: C_3  and  C_11
REMARK    5  A    between atoms: C_5  and  C_7
REMARK    6  A    between atoms: C_7  and  C_8
REMARK    7  A    between atoms: C_7  and  N_9
REMARK    8  A    between atoms: N_9  and  C_10
REMARK    9  A    between atoms: C_17  and  C_18
REMARK   10  A    between atoms: C_20  and  C_21
REMARK   11  A    between atoms: C_27  and  C_28
REMARK                            x       y       z     vdW  Elec       q    Type
REMARK                         _______ _______ _______ _____ _____    ______ ____
ROOT
ATOM      1  C   UNL     1      -5.048  11.811  17.554  0.00  0.00    +0.000 C 
ATOM      2  O   UNL     1      -5.827  12.367  16.772  0.00  0.00    +0.000 OA
ATOM      3  N   UNL     1      -3.959  11.084  17.087  0.00  0.00    +0.000 N 
ATOM      4  C   UNL     1      -3.644  11.032  15.668  0.00  0.00    +0.000 C 
ATOM      5  C   UNL     1      -2.713   9.843  15.549  0.00  0.00    +0.000 C 
ATOM      6  C   UNL     1      -1.932   9.840  16.861  0.00  0.00    +0.000 C 
ATOM      7  C   UNL     1      -2.822  10.586  17.875  0.00  0.00    +0.000 C 
ENDROOT
BRANCH   7   8
ATOM      8  C   UNL     1      -2.047  11.718  18.485  0.00  0.00    +0.000 A 
ATOM      9  N   UNL     1      -1.169  12.523  17.921  0.00  0.00    +0.000 NA
ATOM     10  C   UNL     1      -0.771  13.351  18.944  0.00  0.00    +0.000 A 
ATOM     11  C   UNL     1      -1.448  13.021  20.108  0.00  0.00    +0.000 A 
ATOM     12  O   UNL     1      -2.265  11.958  19.811  0.00  0.00    +0.000 OA
BRANCH  10  13
ATOM     13  C   UNL     1       0.217  14.395  18.750  0.00  0.00    +0.000 A 
ATOM     14  C   UNL     1       1.574  14.054  18.674  0.00  0.00    +0.000 A 
ATOM     15  C   UNL     1       2.540  15.037  18.460  0.00  0.00    +0.000 A 
ATOM     16  C   UNL     1       2.160  16.371  18.326  0.00  0.00    +0.000 A 
ATOM     17  C   UNL     1       0.815  16.723  18.424  0.00  0.00    +0.000 A 
ATOM     18  C   UNL     1      -0.150  15.742  18.649  0.00  0.00    +0.000 A 
ENDBRANCH  10  13
BRANCH  11  19
ATOM     19  C   UNL     1      -1.520  13.509  21.478  0.00  0.00    +0.000 A 
ATOM     20  C   UNL     1      -1.241  14.849  21.779  0.00  0.00    +0.000 A 
ATOM     21  C   UNL     1      -1.266  15.308  23.096  0.00  0.00    +0.000 A 
ATOM     22  C   UNL     1      -1.597  14.437  24.130  0.00  0.00    +0.000 A 
ATOM     23  C   UNL     1      -1.898  13.105  23.847  0.00  0.00    +0.000 A 
ATOM     24  C   UNL     1      -1.858  12.645  22.529  0.00  0.00    +0.000 A 
ENDBRANCH  11  19
ENDBRANCH   7   8
BRANCH   1  25
ATOM     25  C   UNL     1      -5.303  11.861  19.084  0.00  0.00    +0.000 C 
BRANCH  25  26
ATOM     26  N   UNL     1      -5.101  13.210  19.602  0.00  0.00    +0.000 N 
ATOM     27  C   UNL     1      -5.102  13.470  20.955  0.00  0.00    +0.000 C 
ATOM     28  O   UNL     1      -5.203  12.585  21.802  0.00  0.00    +0.000 OA
ATOM     29  H   UNL     1      -5.158  13.997  18.961  0.00  0.00    +0.000 HD
BRANCH  27  30
ATOM     30  C   UNL     1      -4.931  14.968  21.310  0.00  0.00    +0.000 C 
ATOM     31  C   UNL     1      -5.135  15.170  22.814  0.00  0.00    +0.000 C 
BRANCH  30  32
ATOM     32  N   UNL     1      -5.876  15.750  20.481  0.00  0.00    +0.000 NA
ATOM     33  C   UNL     1      -5.254  16.905  19.851  0.00  0.00    +0.000 C 
ATOM     34  H   UNL     1      -6.649  16.061  21.073  0.00  0.00    +0.000 HD
ENDBRANCH  30  32
ENDBRANCH  27  30
ENDBRANCH  25  26
BRANCH  25  36
ATOM     35  C   UNL     1      -6.899   9.819  19.235  0.00  0.00    +0.000 C 
ATOM     36  C   UNL     1      -6.680  11.308  19.487  0.00  0.00    +0.000 C 
ENDBRANCH  25  36
ENDBRANCH   1  25
TORSDOF 8
ENDMDL
MODEL 6
REMARK VINA RESULT:      -6.4      0.750      1.116
REMARK  Name = 
REMARK  11 active torsions:
REMARK  status: ('A' for Active; 'I' for Inactive)
REMARK    1  A    between atoms: C_1  and  C_2
REMARK    2  A    between atoms: C_2  and  C_3
REMARK    3  A    between atoms: C_3  and  N_4
REMARK    4  A    between atoms: C_3  and  C_11
REMARK    5  A    between atoms: C_5  and  C_7
REMARK    6  A    between atoms: C_7  and  C_8
REMARK    7  A    between atoms: C_7  and  N_9
REMARK    8  A    between atoms: N_9  and  C_10
REMARK    9  A    between atoms: C_17  and  C_18
REMARK   10  A    between atoms: C_20  and  C_21
REMARK   11  A    between atoms: C_27  and  C_28
REMARK                            x       y       z     vdW  Elec       q    Type
REMARK                         _______ _______ _______ _____ _____    ______ ____
ROOT
ATOM      1  C   UNL     1       1.838  15.079  21.475  0.00  0.00    +0.000 C 
ATOM      2  O   UNL     1       2.423  14.951  22.557  0.00  0.00    +0.000 OA
ATOM      3  N   UNL     1       2.524  14.968  20.272  0.00  0.00    +0.000 N 
ATOM      4  C   UNL     1       3.932  14.603  20.240  0.00  0.00    +0.000 C 
ATOM      5  C   UNL     1       4.379  15.011  18.850  0.00  0.00    +0.000 C 
ATOM      6  C   UNL     1       3.151  14.776  17.974  0.00  0.00    +0.000 C 
ATOM      7  C   UNL     1       1.941  14.845  18.927  0.00  0.00    +0.000 C 
ENDROOT
BRANCH   7   8
ATOM      8  C   UNL     1       1.131  13.588  18.800  0.00  0.00    +0.000 A 
ATOM      9  N   UNL     1      -0.137  13.445  18.472  0.00  0.00    +0.000 NA
ATOM     10  C   UNL     1      -0.345  12.087  18.528  0.00  0.00    +0.000 A 
ATOM     11  C   UNL     1       0.831  11.444  18.879  0.00  0.00    +0.000 A 
ATOM     12  O   UNL     1       1.782  12.417  19.064  0.00  0.00    +0.000 OA
BRANCH  10  13
ATOM     13  C   UNL     1      -1.638  11.494  18.244  0.00  0.00    +0.000 A 
ATOM     14  C   UNL     1      -1.707  10.326  17.474  0.00  0.00    +0.000 A 
ATOM     15  C   UNL     1      -2.937   9.721  17.212  0.00  0.00    +0.000 A 
ATOM     16  C   UNL     1      -4.110  10.282  17.713  0.00  0.00    +0.000 A 
ATOM     17  C   UNL     1      -4.055  11.457  18.459  0.00  0.00    +0.000 A 
ATOM     18  C   UNL     1      -2.827  12.068  18.713  0.00  0.00    +0.000 A 
ENDBRANCH  10  13
BRANCH  11  19
ATOM     19  C   UNL     1       1.286  10.074  19.064  0.00  0.00    +0.000 A 
ATOM     20  C   UNL     1       1.940   9.388  18.031  0.00  0.00    +0.000 A 
ATOM     21  C   UNL     1       2.337   8.060  18.192  0.00  0.00    +0.000 A 
ATOM     22  C   UNL     1       2.109   7.407  19.399  0.00  0.00    +0.000 A 
ATOM     23  C   UNL     1       1.478   8.079  20.445  0.00  0.00    +0.000 A 
ATOM     24  C   UNL     1       1.068   9.405  20.277  0.00  0.00    +0.000 A 
ENDBRANCH  11  19
ENDBRANCH   7   8
BRANCH   1  25
ATOM     25  C   UNL     1       0.327  15.427  21.437  0.00  0.00    +0.000 C 
BRANCH  25  26
ATOM     26  N   UNL     1      -0.485  14.267  21.786  0.00  0.00    +0.000 N 
ATOM     27  C   UNL     1      -0.855  14.011  23.089  0.00  0.00    +0.000 C 
ATOM     28  O   UNL     1      -0.586  14.770  24.017  0.00  0.00    +0.000 OA
ATOM     29  H   UNL     1      -0.614  13.531  21.096  0.00  0.00    +0.000 HD
BRANCH  27  30
ATOM     30  C   UNL     1      -1.665  12.703  23.270  0.00  0.00    +0.000 C 
ATOM     31  C   UNL     1      -1.391  11.759  22.096  0.00  0.00    +0.000 C 
BRANCH  30  32
ATOM     32  N   UNL     1      -3.094  13.060  23.411  0.00  0.00    +0.000 NA
ATOM     33  C   UNL     1      -3.893  12.661  22.261  0.00  0.00    +0.000 C 
ATOM     34  H   UNL     1      -3.167  14.071  23.539  0.00  0.00    +0.000 HD
ENDBRANCH  30  32
ENDBRANCH  27  30
ENDBRANCH  25  26
BRANCH  25  36
ATOM     35  C   UNL     1      -1.028  17.627  21.689  0.00  0.00    +0.000 C 
ATOM     36  C   UNL     1      -0.036  16.645  22.303  0.00  0.00    +0.000 C 
ENDBRANCH  25  36
ENDBRANCH   1  25
TORSDOF 8
ENDMDL
MODEL 7
REMARK VINA RESULT:      -6.4      2.859      6.288
REMARK  Name = 
REMARK  11 active torsions:
REMARK  status: ('A' for Active; 'I' for Inactive)
REMARK    1  A    between atoms: C_1  and  C_2
REMARK    2  A    between atoms: C_2  and  C_3
REMARK    3  A    between atoms: C_3  and  N_4
REMARK    4  A    between atoms: C_3  and  C_11
REMARK    5  A    between atoms: C_5  and  C_7
REMARK    6  A    between atoms: C_7  and  C_8
REMARK    7  A    between atoms: C_7  and  N_9
REMARK    8  A    between atoms: N_9  and  C_10
REMARK    9  A    between atoms: C_17  and  C_18
REMARK   10  A    between atoms: C_20  and  C_21
REMARK   11  A    between atoms: C_27  and  C_28
REMARK                            x       y       z     vdW  Elec       q    Type
REMARK                         _______ _______ _______ _____ _____    ______ ____
ROOT
ATOM      1  C   UNL     1      -5.188  12.015  17.049  0.00  0.00    +0.000 C 
ATOM      2  O   UNL     1      -5.712  12.948  16.431  0.00  0.00    +0.000 OA
ATOM      3  N   UNL     1      -4.346  11.114  16.409  0.00  0.00    +0.000 N 
ATOM      4  C   UNL     1      -3.977  11.292  15.013  0.00  0.00    +0.000 C 
ATOM      5  C   UNL     1      -3.446   9.932  14.604  0.00  0.00    +0.000 C 
ATOM      6  C   UNL     1      -2.784   9.388  15.867  0.00  0.00    +0.000 C 
ATOM      7  C   UNL     1      -3.464  10.121  17.041  0.00  0.00    +0.000 C 
ENDROOT
BRANCH   7   8
ATOM      8  C   UNL     1      -2.419  10.786  17.889  0.00  0.00    +0.000 A 
ATOM      9  N   UNL     1      -1.859  11.969  17.742  0.00  0.00    +0.000 NA
ATOM     10  C   UNL     1      -0.971  12.049  18.789  0.00  0.00    +0.000 A 
ATOM     11  C   UNL     1      -1.039  10.897  19.555  0.00  0.00    +0.000 A 
ATOM     12  O   UNL     1      -1.969  10.076  18.966  0.00  0.00    +0.000 OA
BRANCH  10  13
ATOM     13  C   UNL     1      -0.123  13.209  18.993  0.00  0.00    +0.000 A 
ATOM     14  C   UNL     1       1.241  13.129  18.682  0.00  0.00    +0.000 A 
ATOM     15  C   UNL     1       2.071  14.239  18.843  0.00  0.00    +0.000 A 
ATOM     16  C   UNL     1       1.545  15.438  19.322  0.00  0.00    +0.000 A 
ATOM     17  C   UNL     1       0.196  15.521  19.656  0.00  0.00    +0.000 A 
ATOM     18  C   UNL     1      -0.632  14.408  19.506  0.00  0.00    +0.000 A 
ENDBRANCH  10  13
BRANCH  11  19
ATOM     19  C   UNL     1      -0.424  10.382  20.770  0.00  0.00    +0.000 A 
ATOM     20  C   UNL     1       0.700   9.546  20.708  0.00  0.00    +0.000 A 
ATOM     21  C   UNL     1       1.263   9.015  21.869  0.00  0.00    +0.000 A 
ATOM     22  C   UNL     1       0.725   9.335  23.112  0.00  0.00    +0.000 A 
ATOM     23  C   UNL     1      -0.379  10.181  23.194  0.00  0.00    +0.000 A 
ATOM     24  C   UNL     1      -0.951  10.699  22.030  0.00  0.00    +0.000 A 
ENDBRANCH  11  19
ENDBRANCH   7   8
BRANCH   1  25
ATOM     25  C   UNL     1      -5.507  11.791  18.551  0.00  0.00    +0.000 C 
BRANCH  25  26
ATOM     26  N   UNL     1      -5.416  13.042  19.295  0.00  0.00    +0.000 N 
ATOM     27  C   UNL     1      -4.602  13.166  20.400  0.00  0.00    +0.000 C 
ATOM     28  O   UNL     1      -3.860  12.265  20.784  0.00  0.00    +0.000 OA
ATOM     29  H   UNL     1      -6.105  13.770  19.121  0.00  0.00    +0.000 HD
BRANCH  27  30
ATOM     30  C   UNL     1      -4.684  14.550  21.092  0.00  0.00    +0.000 C 
ATOM     31  C   UNL     1      -6.037  14.700  21.791  0.00  0.00    +0.000 C 
BRANCH  30  32
ATOM     32  N   UNL     1      -4.434  15.592  20.071  0.00  0.00    +0.000 NA
ATOM     33  C   UNL     1      -3.662  16.714  20.585  0.00  0.00    +0.000 C 
ATOM     34  H   UNL     1      -5.333  15.931  19.724  0.00  0.00    +0.000 HD
ENDBRANCH  30  32
ENDBRANCH  27  30
ENDBRANCH  25  26
BRANCH  25  36
ATOM     35  C   UNL     1      -6.792   9.677  19.337  0.00  0.00    +0.000 C 
ATOM     36  C   UNL     1      -6.859  11.098  18.786  0.00  0.00    +0.000 C 
ENDBRANCH  25  36
ENDBRANCH   1  25
TORSDOF 8
ENDMDL
MODEL 8
REMARK VINA RESULT:      -6.4      2.761      6.251
REMARK  Name = 
REMARK  11 active torsions:
REMARK  status: ('A' for Active; 'I' for Inactive)
REMARK    1  A    between atoms: C_1  and  C_2
REMARK    2  A    between atoms: C_2  and  C_3
REMARK    3  A    between atoms: C_3  and  N_4
REMARK    4  A    between atoms: C_3  and  C_11
REMARK    5  A    between atoms: C_5  and  C_7
REMARK    6  A    between atoms: C_7  and  C_8
REMARK    7  A    between atoms: C_7  and  N_9
REMARK    8  A    between atoms: N_9  and  C_10
REMARK    9  A    between atoms: C_17  and  C_18
REMARK   10  A    between atoms: C_20  and  C_21
REMARK   11  A    between atoms: C_27  and  C_28
REMARK                            x       y       z     vdW  Elec       q    Type
REMARK                         _______ _______ _______ _____ _____    ______ ____
ROOT
ATOM      1  C   UNL     1      -5.166  11.844  17.308  0.00  0.00    +0.000 C 
ATOM      2  O   UNL     1      -5.777  12.800  16.818  0.00  0.00    +0.000 OA
ATOM      3  N   UNL     1      -4.342  11.044  16.526  0.00  0.00    +0.000 N 
ATOM      4  C   UNL     1      -4.094  11.360  15.128  0.00  0.00    +0.000 C 
ATOM      5  C   UNL     1      -3.542  10.068  14.559  0.00  0.00    +0.000 C 
ATOM      6  C   UNL     1      -2.758   9.450  15.713  0.00  0.00    +0.000 C 
ATOM      7  C   UNL     1      -3.371  10.044  16.997  0.00  0.00    +0.000 C 
ENDROOT
BRANCH   7   8
ATOM      8  C   UNL     1      -2.290  10.684  17.819  0.00  0.00    +0.000 A 
ATOM      9  N   UNL     1      -1.620  11.795  17.591  0.00  0.00    +0.000 NA
ATOM     10  C   UNL     1      -0.753  11.885  18.655  0.00  0.00    +0.000 A 
ATOM     11  C   UNL     1      -0.945  10.814  19.511  0.00  0.00    +0.000 A 
ATOM     12  O   UNL     1      -1.932  10.032  18.964  0.00  0.00    +0.000 OA
BRANCH  10  13
ATOM     13  C   UNL     1       0.193  12.978  18.787  0.00  0.00    +0.000 A 
ATOM     14  C   UNL     1      -0.281  14.277  19.004  0.00  0.00    +0.000 A 
ATOM     15  C   UNL     1       0.609  15.340  19.163  0.00  0.00    +0.000 A 
ATOM     16  C   UNL     1       1.983  15.112  19.099  0.00  0.00    +0.000 A 
ATOM     17  C   UNL     1       2.464  13.827  18.859  0.00  0.00    +0.000 A 
ATOM     18  C   UNL     1       1.574  12.767  18.689  0.00  0.00    +0.000 A 
ENDBRANCH  10  13
BRANCH  11  19
ATOM     19  C   UNL     1      -0.408  10.352  20.784  0.00  0.00    +0.000 A 
ATOM     20  C   UNL     1       0.694   9.487  20.828  0.00  0.00    +0.000 A 
ATOM     21  C   UNL     1       1.181   9.009  22.045  0.00  0.00    +0.000 A 
ATOM     22  C   UNL     1       0.588   9.410  23.238  0.00  0.00    +0.000 A 
ATOM     23  C   UNL     1      -0.496  10.286  23.215  0.00  0.00    +0.000 A 
ATOM     24  C   UNL     1      -0.991  10.753  21.995  0.00  0.00    +0.000 A 
ENDBRANCH  11  19
ENDBRANCH   7   8
BRANCH   1  25
ATOM     25  C   UNL     1      -5.353  11.476  18.804  0.00  0.00    +0.000 C 
BRANCH  25  26
ATOM     26  N   UNL     1      -4.903  12.561  19.668  0.00  0.00    +0.000 N 
ATOM     27  C   UNL     1      -5.287  12.638  20.989  0.00  0.00    +0.000 C 
ATOM     28  O   UNL     1      -5.969  11.773  21.534  0.00  0.00    +0.000 OA
ATOM     29  H   UNL     1      -4.464  13.376  19.247  0.00  0.00    +0.000 HD
BRANCH  27  30
ATOM     30  C   UNL     1      -4.757  13.891  21.729  0.00  0.00    +0.000 C 
ATOM     31  C   UNL     1      -4.838  15.110  20.806  0.00  0.00    +0.000 C 
BRANCH  30  32
ATOM     32  N   UNL     1      -3.382  13.604  22.198  0.00  0.00    +0.000 NA
ATOM     33  C   UNL     1      -3.333  13.212  23.599  0.00  0.00    +0.000 C 
ATOM     34  H   UNL     1      -2.809  14.437  22.059  0.00  0.00    +0.000 HD
ENDBRANCH  30  32
ENDBRANCH  27  30
ENDBRANCH  25  26
BRANCH  25  36
ATOM     35  C   UNL     1      -7.025   9.544  19.263  0.00  0.00    +0.000 C 
ATOM     36  C   UNL     1      -6.789  11.047  19.147  0.00  0.00    +0.000 C 
ENDBRANCH  25  36
ENDBRANCH   1  25
TORSDOF 8
ENDMDL
MODEL 9
REMARK VINA RESULT:      -6.3      3.078      6.657
REMARK  Name = 
REMARK  11 active torsions:
REMARK  status: ('A' for Active; 'I' for Inactive)
REMARK    1  A    between atoms: C_1  and  C_2
REMARK    2  A    between atoms: C_2  and  C_3
REMARK    3  A    between atoms: C_3  and  N_4
REMARK    4  A    between atoms: C_3  and  C_11
REMARK    5  A    between atoms: C_5  and  C_7
REMARK    6  A    between atoms: C_7  and  C_8
REMARK    7  A    between atoms: C_7  and  N_9
REMARK    8  A    between atoms: N_9  and  C_10
REMARK    9  A    between atoms: C_17  and  C_18
REMARK   10  A    between atoms: C_20  and  C_21
REMARK   11  A    between atoms: C_27  and  C_28
REMARK                            x       y       z     vdW  Elec       q    Type
REMARK                         _______ _______ _______ _____ _____    ______ ____
ROOT
ATOM      1  C   UNL     1      -5.286  11.761  17.562  0.00  0.00    +0.000 C 
ATOM      2  O   UNL     1      -6.004  12.394  16.780  0.00  0.00    +0.000 OA
ATOM      3  N   UNL     1      -4.138  11.115  17.118  0.00  0.00    +0.000 N 
ATOM      4  C   UNL     1      -3.691  11.240  15.740  0.00  0.00    +0.000 C 
ATOM      5  C   UNL     1      -2.719  10.090  15.570  0.00  0.00    +0.000 C 
ATOM      6  C   UNL     1      -2.064   9.942  16.941  0.00  0.00    +0.000 C 
ATOM      7  C   UNL     1      -3.065  10.544  17.946  0.00  0.00    +0.000 C 
ENDROOT
BRANCH   7   8
ATOM      8  C   UNL     1      -2.382  11.607  18.757  0.00  0.00    +0.000 A 
ATOM      9  N   UNL     1      -2.710  12.091  19.938  0.00  0.00    +0.000 NA
ATOM     10  C   UNL     1      -1.749  13.043  20.186  0.00  0.00    +0.000 A 
ATOM     11  C   UNL     1      -0.849  13.089  19.134  0.00  0.00    +0.000 A 
ATOM     12  O   UNL     1      -1.265  12.166  18.206  0.00  0.00    +0.000 OA
BRANCH  10  13
ATOM     13  C   UNL     1      -1.749  13.839  21.399  0.00  0.00    +0.000 A 
ATOM     14  C   UNL     1      -2.210  15.161  21.356  0.00  0.00    +0.000 A 
ATOM     15  C   UNL     1      -2.245  15.937  22.515  0.00  0.00    +0.000 A 
ATOM     16  C   UNL     1      -1.814  15.400  23.727  0.00  0.00    +0.000 A 
ATOM     17  C   UNL     1      -1.331  14.094  23.775  0.00  0.00    +0.000 A 
ATOM     18  C   UNL     1      -1.285  13.322  22.615  0.00  0.00    +0.000 A 
ENDBRANCH  10  13
BRANCH  11  19
ATOM     19  C   UNL     1       0.370  13.812  18.801  0.00  0.00    +0.000 A 
ATOM     20  C   UNL     1       1.537  13.125  18.439  0.00  0.00    +0.000 A 
ATOM     21  C   UNL     1       2.718  13.815  18.162  0.00  0.00    +0.000 A 
ATOM     22  C   UNL     1       2.742  15.205  18.219  0.00  0.00    +0.000 A 
ATOM     23  C   UNL     1       1.586  15.906  18.557  0.00  0.00    +0.000 A 
ATOM     24  C   UNL     1       0.408  15.213  18.847  0.00  0.00    +0.000 A 
ENDBRANCH  11  19
ENDBRANCH   7   8
BRANCH   1  25
ATOM     25  C   UNL     1      -5.683  11.622  19.055  0.00  0.00    +0.000 C 
BRANCH  25  26
ATOM     26  N   UNL     1      -5.680  12.920  19.719  0.00  0.00    +0.000 N 
ATOM     27  C   UNL     1      -5.675  13.028  21.093  0.00  0.00    +0.000 C 
ATOM     28  O   UNL     1      -5.605  12.051  21.836  0.00  0.00    +0.000 OA
ATOM     29  H   UNL     1      -5.884  13.753  19.172  0.00  0.00    +0.000 HD
BRANCH  27  30
ATOM     30  C   UNL     1      -5.733  14.487  21.612  0.00  0.00    +0.000 C 
ATOM     31  C   UNL     1      -6.215  14.500  23.065  0.00  0.00    +0.000 C 
BRANCH  30  32
ATOM     32  N   UNL     1      -6.600  15.267  20.701  0.00  0.00    +0.000 NA
ATOM     33  C   UNL     1      -7.912  15.544  21.268  0.00  0.00    +0.000 C 
ATOM     34  H   UNL     1      -6.711  14.745  19.829  0.00  0.00    +0.000 HD
ENDBRANCH  30  32
ENDBRANCH  27  30
ENDBRANCH  25  26
BRANCH  25  36
ATOM     35  C   UNL     1      -6.924   9.407  19.596  0.00  0.00    +0.000 C 
ATOM     36  C   UNL     1      -7.021  10.892  19.260  0.00  0.00    +0.000 C 
ENDBRANCH  25  36
ENDBRANCH   1  25
TORSDOF 8
ENDMDL
