MODEL 1
REMARK VINA RESULT:      -7.1      0.000      0.000
REMARK  Name = 
REMARK  10 active torsions:
REMARK  status: ('A' for Active; 'I' for Inactive)
REMARK    1  A    between atoms: C_1  and  C_2
REMARK    2  A    between atoms: C_2  and  C_3
REMARK    3  A    between atoms: C_3  and  S_4
REMARK    4  A    between atoms: S_4  and  N_7
REMARK    5  A    between atoms: N_7  and  C_8
REMARK    6  A    between atoms: C_8  and  C_9
REMARK    7  A    between atoms: C_9  and  O_10
REMARK    8  A    between atoms: O_10  and  C_11
REMARK    9  A    between atoms: C_17  and  C_18
REMARK   10  A    between atoms: C_18  and  C_19
REMARK                            x       y       z     vdW  Elec       q    Type
REMARK                         _______ _______ _______ _____ _____    ______ ____
ROOT
ATOM      1  C   UNL     1       1.826   5.854  20.651  0.00  0.00    +0.000 A 
ATOM      2  C   UNL     1       0.796   5.050  20.160  0.00  0.00    +0.000 A 
ATOM      3  C   UNL     1       1.085   3.865  19.491  0.00  0.00    +0.000 A 
ATOM      4  C   UNL     1       2.410   3.485  19.286  0.00  0.00    +0.000 A 
ATOM      5  C   UNL     1       3.461   4.346  19.642  0.00  0.00    +0.000 A 
ATOM      6  C   UNL     1       3.157   5.510  20.371  0.00  0.00    +0.000 A 
ATOM      7  C   UNL     1       4.879   3.993  19.209  0.00  0.00    +0.000 C 
ATOM      8  N   UNL     1       5.170   2.556  19.396  0.00  0.00    +0.000 NA
ATOM      9  C   UNL     1       4.065   1.618  19.173  0.00  0.00    +0.000 C 
ATOM     10  C   UNL     1       2.732   2.161  18.655  0.00  0.00    +0.000 C 
ATOM     11  H   UNL     1       5.515   2.422  20.346  0.00  0.00    +0.000 HD
ENDROOT
BRANCH   7  12
ATOM     12  C   UNL     1       5.239   4.474  17.754  0.00  0.00    +0.000 C 
ATOM     13  C   UNL     1       5.617   3.393  16.648  0.00  0.00    +0.000 C 
ATOM     14  C   UNL     1       4.869   4.255  15.622  0.00  0.00    +0.000 C 
ATOM     15  C   UNL     1       4.007   4.774  16.789  0.00  0.00    +0.000 C 
BRANCH  12  16
ATOM     16  C   UNL     1       6.324   5.747  17.833  0.00  0.00    +0.000 A 
ATOM     17  C   UNL     1       6.110   6.940  17.104  0.00  0.00    +0.000 A 
ATOM     18  C   UNL     1       6.939   8.056  17.240  0.00  0.00    +0.000 A 
ATOM     19  C   UNL     1       8.017   8.001  18.107  0.00  0.00    +0.000 A 
ATOM     20  F   UNL     1       8.794   9.081  18.268  0.00  0.00    +0.000 F 
ATOM     21  C   UNL     1       8.298   6.841  18.812  0.00  0.00    +0.000 A 
ATOM     22  C   UNL     1       7.464   5.725  18.667  0.00  0.00    +0.000 A 
ENDBRANCH  12  16
ENDBRANCH   7  12
BRANCH   1  23
ATOM     23  O   UNL     1       1.632   6.990  21.397  0.00  0.00    +0.000 OA
BRANCH  23  24
ATOM     24  C   UNL     1       0.402   7.682  21.148  0.00  0.00    +0.000 C 
BRANCH  24  25
ATOM     25  C   UNL     1       0.606   9.186  21.319  0.00  0.00    +0.000 C 
BRANCH  25  26
ATOM     26  N   UNL     1      -0.425   9.925  20.556  0.00  0.00    +0.000 NA
ATOM     27  H   UNL     1      -1.202   9.351  20.215  0.00  0.00    +0.000 HD
BRANCH  26  28
ATOM     28  S   UNL     1       0.113  10.895  19.286  0.00  0.00    +0.000 S 
ATOM     29  O   UNL     1       1.314  11.536  19.769  0.00  0.00    +0.000 OA
ATOM     30  O   UNL     1      -1.026  11.668  18.832  0.00  0.00    +0.000 OA
BRANCH  28  31
ATOM     31  C   UNL     1       0.547   9.681  18.043  0.00  0.00    +0.000 C 
BRANCH  31  33
ATOM     32  C   UNL     1       2.528   8.147  17.905  0.00  0.00    +0.000 C 
ATOM     33  C   UNL     1       2.056   9.591  17.874  0.00  0.00    +0.000 C 
ENDBRANCH  31  33
ENDBRANCH  28  31
ENDBRANCH  26  28
ENDBRANCH  25  26
ENDBRANCH  24  25
ENDBRANCH  23  24
ENDBRANCH   1  23
TORSDOF 9
ENDMDL
MODEL 2
REMARK VINA RESULT:      -7.0      2.789      4.488
REMARK  Name = 
REMARK  10 active torsions:
REMARK  status: ('A' for Active; 'I' for Inactive)
REMARK    1  A    between atoms: C_1  and  C_2
REMARK    2  A    between atoms: C_2  and  C_3
REMARK    3  A    between atoms: C_3  and  S_4
REMARK    4  A    between atoms: S_4  and  N_7
REMARK    5  A    between atoms: N_7  and  C_8
REMARK    6  A    between atoms: C_8  and  C_9
REMARK    7  A    between atoms: C_9  and  O_10
REMARK    8  A    between atoms: O_10  and  C_11
REMARK    9  A    between atoms: C_17  and  C_18
REMARK   10  A    between atoms: C_18  and  C_19
REMARK                            x       y       z     vdW  Elec       q    Type
REMARK                         _______ _______ _______ _____ _____    ______ ____
ROOT
ATOM      1  C   UNL     1       2.452   7.528  18.422  0.00  0.00    +0.000 A 
ATOM      2  C   UNL     1       2.400   6.791  19.606  0.00  0.00    +0.000 A 
ATOM      3  C   UNL     1       3.453   5.955  19.962  0.00  0.00    +0.000 A 
ATOM      4  C   UNL     1       4.561   5.832  19.124  0.00  0.00    +0.000 A 
ATOM      5  C   UNL     1       4.571   6.451  17.863  0.00  0.00    +0.000 A 
ATOM      6  C   UNL     1       3.529   7.340  17.543  0.00  0.00    +0.000 A 
ATOM      7  C   UNL     1       5.699   6.119  16.892  0.00  0.00    +0.000 C 
ATOM      8  N   UNL     1       7.012   6.075  17.568  0.00  0.00    +0.000 NA
ATOM      9  C   UNL     1       7.038   5.567  18.944  0.00  0.00    +0.000 C 
ATOM     10  C   UNL     1       5.746   5.012  19.547  0.00  0.00    +0.000 C 
ATOM     11  H   UNL     1       7.401   7.018  17.570  0.00  0.00    +0.000 HD
ENDROOT
BRANCH   7  12
ATOM     12  C   UNL     1       5.442   4.823  16.037  0.00  0.00    +0.000 C 
ATOM     13  C   UNL     1       5.215   4.959  14.467  0.00  0.00    +0.000 C 
ATOM     14  C   UNL     1       6.004   3.654  14.291  0.00  0.00    +0.000 C 
ATOM     15  C   UNL     1       6.735   4.000  15.603  0.00  0.00    +0.000 C 
BRANCH  12  16
ATOM     16  C   UNL     1       4.290   3.870  16.791  0.00  0.00    +0.000 A 
ATOM     17  C   UNL     1       4.662   2.747  17.569  0.00  0.00    +0.000 A 
ATOM     18  C   UNL     1       3.731   2.004  18.298  0.00  0.00    +0.000 A 
ATOM     19  C   UNL     1       2.394   2.361  18.259  0.00  0.00    +0.000 A 
ATOM     20  F   UNL     1       1.502   1.674  18.986  0.00  0.00    +0.000 F 
ATOM     21  C   UNL     1       1.970   3.426  17.479  0.00  0.00    +0.000 A 
ATOM     22  C   UNL     1       2.910   4.164  16.747  0.00  0.00    +0.000 A 
ENDBRANCH  12  16
ENDBRANCH   7  12
BRANCH   1  23
ATOM     23  O   UNL     1       1.501   8.442  18.036  0.00  0.00    +0.000 OA
BRANCH  23  24
ATOM     24  C   UNL     1       1.939   9.806  18.015  0.00  0.00    +0.000 C 
BRANCH  24  25
ATOM     25  C   UNL     1       0.929  10.688  18.745  0.00  0.00    +0.000 C 
BRANCH  25  26
ATOM     26  N   UNL     1      -0.405  10.557  18.117  0.00  0.00    +0.000 NA
ATOM     27  H   UNL     1      -0.389  10.307  17.123  0.00  0.00    +0.000 HD
BRANCH  26  28
ATOM     28  S   UNL     1      -1.477  11.841  18.322  0.00  0.00    +0.000 S 
ATOM     29  O   UNL     1      -0.782  13.009  17.833  0.00  0.00    +0.000 OA
ATOM     30  O   UNL     1      -1.968  11.769  19.683  0.00  0.00    +0.000 OA
BRANCH  28  31
ATOM     31  C   UNL     1      -2.795  11.416  17.186  0.00  0.00    +0.000 C 
BRANCH  31  33
ATOM     32  C   UNL     1      -3.244  10.202  15.036  0.00  0.00    +0.000 C 
ATOM     33  C   UNL     1      -2.388  10.255  16.290  0.00  0.00    +0.000 C 
ENDBRANCH  31  33
ENDBRANCH  28  31
ENDBRANCH  26  28
ENDBRANCH  25  26
ENDBRANCH  24  25
ENDBRANCH  23  24
ENDBRANCH   1  23
TORSDOF 9
ENDMDL
MODEL 3
REMARK VINA RESULT:      -7.0      4.546      6.823
REMARK  Name = 
REMARK  10 active torsions:
REMARK  status: ('A' for Active; 'I' for Inactive)
REMARK    1  A    between atoms: C_1  and  C_2
REMARK    2  A    between atoms: C_2  and  C_3
REMARK    3  A    between atoms: C_3  and  S_4
REMARK    4  A    between atoms: S_4  and  N_7
REMARK    5  A    between atoms: N_7  and  C_8
REMARK    6  A    between atoms: C_8  and  C_9
REMARK    7  A    between atoms: C_9  and  O_10
REMARK    8  A    between atoms: O_10  and  C_11
REMARK    9  A    between atoms: C_17  and  C_18
REMARK   10  A    between atoms: C_18  and  C_19
REMARK                            x       y       z     vdW  Elec       q    Type
REMARK                         _______ _______ _______ _____ _____    ______ ____
ROOT
ATOM      1  C   UNL     1       6.891   7.087  17.689  0.00  0.00    +0.000 A 
ATOM      2  C   UNL     1       7.619   6.048  18.274  0.00  0.00    +0.000 A 
ATOM      3  C   UNL     1       7.019   4.817  18.513  0.00  0.00    +0.000 A 
ATOM      4  C   UNL     1       5.677   4.619  18.190  0.00  0.00    +0.000 A 
ATOM      5  C   UNL     1       4.889   5.689  17.736  0.00  0.00    +0.000 A 
ATOM      6  C   UNL     1       5.522   6.910  17.441  0.00  0.00    +0.000 A 
ATOM      7  C   UNL     1       3.384   5.487  17.600  0.00  0.00    +0.000 C 
ATOM      8  N   UNL     1       3.057   4.180  16.993  0.00  0.00    +0.000 NA
ATOM      9  C   UNL     1       3.935   3.053  17.324  0.00  0.00    +0.000 C 
ATOM     10  C   UNL     1       5.048   3.264  18.352  0.00  0.00    +0.000 C 
ATOM     11  H   UNL     1       3.051   4.292  15.980  0.00  0.00    +0.000 HD
ENDROOT
BRANCH   7  12
ATOM     12  C   UNL     1       2.587   5.723  18.937  0.00  0.00    +0.000 C 
ATOM     13  C   UNL     1       1.443   4.698  19.352  0.00  0.00    +0.000 C 
ATOM     14  C   UNL     1       1.885   4.872  20.811  0.00  0.00    +0.000 C 
ATOM     15  C   UNL     1       3.289   5.212  20.272  0.00  0.00    +0.000 C 
BRANCH  12  16
ATOM     16  C   UNL     1       2.106   7.325  19.030  0.00  0.00    +0.000 A 
ATOM     17  C   UNL     1       2.065   8.147  17.878  0.00  0.00    +0.000 A 
ATOM     18  C   UNL     1       1.562   9.449  17.910  0.00  0.00    +0.000 A 
ATOM     19  C   UNL     1       1.094   9.969  19.105  0.00  0.00    +0.000 A 
ATOM     20  F   UNL     1       0.576  11.205  19.132  0.00  0.00    +0.000 F 
ATOM     21  C   UNL     1       1.151   9.222  20.271  0.00  0.00    +0.000 A 
ATOM     22  C   UNL     1       1.660   7.918  20.232  0.00  0.00    +0.000 A 
ENDBRANCH  12  16
ENDBRANCH   7  12
BRANCH   1  23
ATOM     23  O   UNL     1       7.425   8.302  17.336  0.00  0.00    +0.000 OA
BRANCH  23  24
ATOM     24  C   UNL     1       8.556   8.720  18.110  0.00  0.00    +0.000 C 
BRANCH  24  25
ATOM     25  C   UNL     1       8.578  10.243  18.221  0.00  0.00    +0.000 C 
BRANCH  25  26
ATOM     26  N   UNL     1       9.319  10.650  19.436  0.00  0.00    +0.000 NA
ATOM     27  H   UNL     1       8.737  10.795  20.267  0.00  0.00    +0.000 HD
BRANCH  26  28
ATOM     28  S   UNL     1      10.366  11.963  19.289  0.00  0.00    +0.000 S 
ATOM     29  O   UNL     1      11.688  11.395  19.170  0.00  0.00    +0.000 OA
ATOM     30  O   UNL     1      10.034  12.890  20.352  0.00  0.00    +0.000 OA
BRANCH  28  31
ATOM     31  C   UNL     1       9.876  12.659  17.713  0.00  0.00    +0.000 C 
BRANCH  31  33
ATOM     32  C   UNL     1       7.724  13.939  17.881  0.00  0.00    +0.000 C 
ATOM     33  C   UNL     1       9.240  14.029  17.897  0.00  0.00    +0.000 C 
ENDBRANCH  31  33
ENDBRANCH  28  31
ENDBRANCH  26  28
ENDBRANCH  25  26
ENDBRANCH  24  25
ENDBRANCH  23  24
ENDBRANCH   1  23
TORSDOF 9
ENDMDL
MODEL 4
REMARK VINA RESULT:      -7.0      0.919      1.341
REMARK  Name = 
REMARK  10 active torsions:
REMARK  status: ('A' for Active; 'I' for Inactive)
REMARK    1  A    between atoms: C_1  and  C_2
REMARK    2  A    between atoms: C_2  and  C_3
REMARK    3  A    between atoms: C_3  and  S_4
REMARK    4  A    between atoms: S_4  and  N_7
REMARK    5  A    between atoms: N_7  and  C_8
REMARK    6  A    between atoms: C_8  and  C_9
REMARK    7  A    between atoms: C_9  and  O_10
REMARK    8  A    between atoms: O_10  and  C_11
REMARK    9  A    between atoms: C_17  and  C_18
REMARK   10  A    between atoms: C_18  and  C_19
REMARK                            x       y       z     vdW  Elec       q    Type
REMARK                         _______ _______ _______ _____ _____    ______ ____
ROOT
ATOM      1  C   UNL     1       1.632   5.689  20.584  0.00  0.00    +0.000 A 
ATOM      2  C   UNL     1       0.681   4.799  20.082  0.00  0.00    +0.000 A 
ATOM      3  C   UNL     1       1.079   3.627  19.447  0.00  0.00    +0.000 A 
ATOM      4  C   UNL     1       2.435   3.345  19.288  0.00  0.00    +0.000 A 
ATOM      5  C   UNL     1       3.406   4.292  19.655  0.00  0.00    +0.000 A 
ATOM      6  C   UNL     1       2.993   5.443  20.349  0.00  0.00    +0.000 A 
ATOM      7  C   UNL     1       4.860   4.040  19.269  0.00  0.00    +0.000 C 
ATOM      8  N   UNL     1       5.253   2.633  19.496  0.00  0.00    +0.000 NA
ATOM      9  C   UNL     1       4.230   1.609  19.262  0.00  0.00    +0.000 C 
ATOM     10  C   UNL     1       2.875   2.038  18.695  0.00  0.00    +0.000 C 
ATOM     11  H   UNL     1       5.579   2.545  20.458  0.00  0.00    +0.000 HD
ENDROOT
BRANCH   7  12
ATOM     12  C   UNL     1       5.225   4.518  17.815  0.00  0.00    +0.000 C 
ATOM     13  C   UNL     1       5.576   3.433  16.704  0.00  0.00    +0.000 C 
ATOM     14  C   UNL     1       4.844   4.314  15.683  0.00  0.00    +0.000 C 
ATOM     15  C   UNL     1       3.996   4.848  16.855  0.00  0.00    +0.000 C 
BRANCH  12  16
ATOM     16  C   UNL     1       6.337   5.767  17.895  0.00  0.00    +0.000 A 
ATOM     17  C   UNL     1       6.166   6.952  17.140  0.00  0.00    +0.000 A 
ATOM     18  C   UNL     1       7.017   8.051  17.274  0.00  0.00    +0.000 A 
ATOM     19  C   UNL     1       8.075   7.988  18.165  0.00  0.00    +0.000 A 
ATOM     20  F   UNL     1       8.872   9.053  18.324  0.00  0.00    +0.000 F 
ATOM     21  C   UNL     1       8.314   6.835  18.898  0.00  0.00    +0.000 A 
ATOM     22  C   UNL     1       7.457   5.736  18.754  0.00  0.00    +0.000 A 
ENDBRANCH  12  16
ENDBRANCH   7  12
BRANCH   1  23
ATOM     23  O   UNL     1       1.330   6.822  21.299  0.00  0.00    +0.000 OA
BRANCH  23  24
ATOM     24  C   UNL     1       1.644   8.059  20.646  0.00  0.00    +0.000 C 
BRANCH  24  25
ATOM     25  C   UNL     1       0.417   8.966  20.630  0.00  0.00    +0.000 C 
BRANCH  25  26
ATOM     26  N   UNL     1       0.838  10.384  20.580  0.00  0.00    +0.000 NA
ATOM     27  H   UNL     1       0.551  10.946  21.387  0.00  0.00    +0.000 HD
BRANCH  26  28
ATOM     28  S   UNL     1       0.465  11.243  19.178  0.00  0.00    +0.000 S 
ATOM     29  O   UNL     1       1.734  11.544  18.558  0.00  0.00    +0.000 OA
ATOM     30  O   UNL     1      -0.459  12.293  19.557  0.00  0.00    +0.000 OA
BRANCH  28  31
ATOM     31  C   UNL     1      -0.395  10.013  18.201  0.00  0.00    +0.000 C 
BRANCH  31  33
ATOM     32  C   UNL     1      -2.322  10.509  16.672  0.00  0.00    +0.000 C 
ATOM     33  C   UNL     1      -1.881  10.327  18.114  0.00  0.00    +0.000 C 
ENDBRANCH  31  33
ENDBRANCH  28  31
ENDBRANCH  26  28
ENDBRANCH  25  26
ENDBRANCH  24  25
ENDBRANCH  23  24
ENDBRANCH   1  23
TORSDOF 9
ENDMDL
MODEL 5
REMARK VINA RESULT:      -6.8      1.258      1.405
REMARK  Name = 
REMARK  10 active torsions:
REMARK  status: ('A' for Active; 'I' for Inactive)
REMARK    1  A    between atoms: C_1  and  C_2
REMARK    2  A    between atoms: C_2  and  C_3
REMARK    3  A    between atoms: C_3  and  S_4
REMARK    4  A    between atoms: S_4  and  N_7
REMARK    5  A    between atoms: N_7  and  C_8
REMARK    6  A    between atoms: C_8  and  C_9
REMARK    7  A    between atoms: C_9  and  O_10
REMARK    8  A    between atoms: O_10  and  C_11
REMARK    9  A    between atoms: C_17  and  C_18
REMARK   10  A    between atoms: C_18  and  C_19
REMARK                            x       y       z     vdW  Elec       q    Type
REMARK                         _______ _______ _______ _____ _____    ______ ____
ROOT
ATOM      1  C   UNL     1       1.624   5.670  20.604  0.00  0.00    +0.000 A 
ATOM      2  C   UNL     1       0.674   4.779  20.102  0.00  0.00    +0.000 A 
ATOM      3  C   UNL     1       1.073   3.611  19.461  0.00  0.00    +0.000 A 
ATOM      4  C   UNL     1       2.430   3.334  19.296  0.00  0.00    +0.000 A 
ATOM      5  C   UNL     1       3.399   4.283  19.662  0.00  0.00    +0.000 A 
ATOM      6  C   UNL     1       2.985   5.430  20.363  0.00  0.00    +0.000 A 
ATOM      7  C   UNL     1       4.852   4.037  19.269  0.00  0.00    +0.000 C 
ATOM      8  N   UNL     1       5.251   2.631  19.488  0.00  0.00    +0.000 NA
ATOM      9  C   UNL     1       4.230   1.604  19.255  0.00  0.00    +0.000 C 
ATOM     10  C   UNL     1       2.872   2.031  18.695  0.00  0.00    +0.000 C 
ATOM     11  H   UNL     1       5.581   2.540  20.449  0.00  0.00    +0.000 HD
ENDROOT
BRANCH   7  12
ATOM     12  C   UNL     1       5.209   4.523  17.815  0.00  0.00    +0.000 C 
ATOM     13  C   UNL     1       5.553   3.444  16.697  0.00  0.00    +0.000 C 
ATOM     14  C   UNL     1       4.816   4.330  15.685  0.00  0.00    +0.000 C 
ATOM     15  C   UNL     1       3.975   4.859  16.864  0.00  0.00    +0.000 C 
BRANCH  12  16
ATOM     16  C   UNL     1       6.322   5.771  17.896  0.00  0.00    +0.000 A 
ATOM     17  C   UNL     1       6.146   6.962  17.151  0.00  0.00    +0.000 A 
ATOM     18  C   UNL     1       6.999   8.059  17.286  0.00  0.00    +0.000 A 
ATOM     19  C   UNL     1       8.064   7.989  18.168  0.00  0.00    +0.000 A 
ATOM     20  F   UNL     1       8.863   9.052  18.328  0.00  0.00    +0.000 F 
ATOM     21  C   UNL     1       8.309   6.830  18.889  0.00  0.00    +0.000 A 
ATOM     22  C   UNL     1       7.450   5.732  18.745  0.00  0.00    +0.000 A 
ENDBRANCH  12  16
ENDBRANCH   7  12
BRANCH   1  23
ATOM     23  O   UNL     1       1.321   6.799  21.325  0.00  0.00    +0.000 OA
BRANCH  23  24
ATOM     24  C   UNL     1       1.546   8.039  20.642  0.00  0.00    +0.000 C 
BRANCH  24  25
ATOM     25  C   UNL     1       0.472   9.051  21.033  0.00  0.00    +0.000 C 
BRANCH  25  26
ATOM     26  N   UNL     1       1.099  10.353  21.358  0.00  0.00    +0.000 NA
ATOM     27  H   UNL     1       1.500  10.414  22.298  0.00  0.00    +0.000 HD
BRANCH  26  28
ATOM     28  S   UNL     1       0.174  11.735  21.086  0.00  0.00    +0.000 S 
ATOM     29  O   UNL     1       0.952  12.833  21.611  0.00  0.00    +0.000 OA
ATOM     30  O   UNL     1      -1.162  11.454  21.574  0.00  0.00    +0.000 OA
BRANCH  28  31
ATOM     31  C   UNL     1       0.150  11.827  19.297  0.00  0.00    +0.000 C 
BRANCH  31  33
ATOM     32  C   UNL     1       2.358  12.493  18.308  0.00  0.00    +0.000 C 
ATOM     33  C   UNL     1       1.007  12.982  18.800  0.00  0.00    +0.000 C 
ENDBRANCH  31  33
ENDBRANCH  28  31
ENDBRANCH  26  28
ENDBRANCH  25  26
ENDBRANCH  24  25
ENDBRANCH  23  24
ENDBRANCH   1  23
TORSDOF 9
ENDMDL
MODEL 6
REMARK VINA RESULT:      -6.8      1.157      1.951
REMARK  Name = 
REMARK  10 active torsions:
REMARK  status: ('A' for Active; 'I' for Inactive)
REMARK    1  A    between atoms: C_1  and  C_2
REMARK    2  A    between atoms: C_2  and  C_3
REMARK    3  A    between atoms: C_3  and  S_4
REMARK    4  A    between atoms: S_4  and  N_7
REMARK    5  A    between atoms: N_7  and  C_8
REMARK    6  A    between atoms: C_8  and  C_9
REMARK    7  A    between atoms: C_9  and  O_10
REMARK    8  A    between atoms: O_10  and  C_11
REMARK    9  A    between atoms: C_17  and  C_18
REMARK   10  A    between atoms: C_18  and  C_19
REMARK                            x       y       z     vdW  Elec       q    Type
REMARK                         _______ _______ _______ _____ _____    ______ ____
ROOT
ATOM      1  C   UNL     1       1.476   5.456  20.526  0.00  0.00    +0.000 A 
ATOM      2  C   UNL     1       0.598   4.495  20.020  0.00  0.00    +0.000 A 
ATOM      3  C   UNL     1       1.087   3.347  19.406  0.00  0.00    +0.000 A 
ATOM      4  C   UNL     1       2.462   3.159  19.273  0.00  0.00    +0.000 A 
ATOM      5  C   UNL     1       3.359   4.175  19.643  0.00  0.00    +0.000 A 
ATOM      6  C   UNL     1       2.854   5.303  20.317  0.00  0.00    +0.000 A 
ATOM      7  C   UNL     1       4.833   4.021  19.285  0.00  0.00    +0.000 C 
ATOM      8  N   UNL     1       5.319   2.648  19.535  0.00  0.00    +0.000 NA
ATOM      9  C   UNL     1       4.374   1.552  19.298  0.00  0.00    +0.000 C 
ATOM     10  C   UNL     1       3.003   1.879  18.703  0.00  0.00    +0.000 C 
ATOM     11  H   UNL     1       5.634   2.594  20.503  0.00  0.00    +0.000 HD
ENDROOT
BRANCH   7  12
ATOM     12  C   UNL     1       5.188   4.508  17.830  0.00  0.00    +0.000 C 
ATOM     13  C   UNL     1       5.518   3.429  16.708  0.00  0.00    +0.000 C 
ATOM     14  C   UNL     1       4.784   4.324  15.701  0.00  0.00    +0.000 C 
ATOM     15  C   UNL     1       3.954   4.857  16.886  0.00  0.00    +0.000 C 
BRANCH  12  16
ATOM     16  C   UNL     1       6.313   5.746  17.910  0.00  0.00    +0.000 A 
ATOM     17  C   UNL     1       6.170   6.918  17.130  0.00  0.00    +0.000 A 
ATOM     18  C   UNL     1       7.031   8.010  17.260  0.00  0.00    +0.000 A 
ATOM     19  C   UNL     1       8.071   7.951  18.173  0.00  0.00    +0.000 A 
ATOM     20  F   UNL     1       8.877   9.010  18.328  0.00  0.00    +0.000 F 
ATOM     21  C   UNL     1       8.282   6.810  18.931  0.00  0.00    +0.000 A 
ATOM     22  C   UNL     1       7.416   5.718  18.791  0.00  0.00    +0.000 A 
ENDBRANCH  12  16
ENDBRANCH   7  12
BRANCH   1  23
ATOM     23  O   UNL     1       1.084   6.572  21.223  0.00  0.00    +0.000 OA
BRANCH  23  24
ATOM     24  C   UNL     1       1.649   7.807  20.765  0.00  0.00    +0.000 C 
BRANCH  24  25
ATOM     25  C   UNL     1       0.864   8.984  21.338  0.00  0.00    +0.000 C 
BRANCH  25  26
ATOM     26  N   UNL     1      -0.248   9.341  20.427  0.00  0.00    +0.000 NA
ATOM     27  H   UNL     1      -0.422   8.665  19.677  0.00  0.00    +0.000 HD
BRANCH  26  28
ATOM     28  S   UNL     1      -0.217  10.885  19.752  0.00  0.00    +0.000 S 
ATOM     29  O   UNL     1      -1.593  11.209  19.459  0.00  0.00    +0.000 OA
ATOM     30  O   UNL     1       0.794  10.874  18.714  0.00  0.00    +0.000 OA
BRANCH  28  31
ATOM     31  C   UNL     1       0.348  11.885  21.127  0.00  0.00    +0.000 C 
BRANCH  31  33
ATOM     32  C   UNL     1      -1.310  11.723  23.003  0.00  0.00    +0.000 C 
ATOM     33  C   UNL     1      -0.823  12.555  21.829  0.00  0.00    +0.000 C 
ENDBRANCH  31  33
ENDBRANCH  28  31
ENDBRANCH  26  28
ENDBRANCH  25  26
ENDBRANCH  24  25
ENDBRANCH  23  24
ENDBRANCH   1  23
TORSDOF 9
ENDMDL
MODEL 7
REMARK VINA RESULT:      -6.8      4.429      6.995
REMARK  Name = 
REMARK  10 active torsions:
REMARK  status: ('A' for Active; 'I' for Inactive)
REMARK    1  A    between atoms: C_1  and  C_2
REMARK    2  A    between atoms: C_2  and  C_3
REMARK    3  A    between atoms: C_3  and  S_4
REMARK    4  A    between atoms: S_4  and  N_7
REMARK    5  A    between atoms: N_7  and  C_8
REMARK    6  A    between atoms: C_8  and  C_9
REMARK    7  A    between atoms: C_9  and  O_10
REMARK    8  A    between atoms: O_10  and  C_11
REMARK    9  A    between atoms: C_17  and  C_18
REMARK   10  A    between atoms: C_18  and  C_19
REMARK                            x       y       z     vdW  Elec       q    Type
REMARK                         _______ _______ _______ _____ _____    ______ ____
ROOT
ATOM      1  C   UNL     1       6.969   7.271  17.786  0.00  0.00    +0.000 A 
ATOM      2  C   UNL     1       7.696   6.250  18.399  0.00  0.00    +0.000 A 
ATOM      3  C   UNL     1       7.117   5.004  18.614  0.00  0.00    +0.000 A 
ATOM      4  C   UNL     1       5.794   4.775  18.236  0.00  0.00    +0.000 A 
ATOM      5  C   UNL     1       5.000   5.827  17.751  0.00  0.00    +0.000 A 
ATOM      6  C   UNL     1       5.616   7.063  17.482  0.00  0.00    +0.000 A 
ATOM      7  C   UNL     1       3.507   5.590  17.553  0.00  0.00    +0.000 C 
ATOM      8  N   UNL     1       3.236   4.276  16.933  0.00  0.00    +0.000 NA
ATOM      9  C   UNL     1       4.126   3.169  17.299  0.00  0.00    +0.000 C 
ATOM     10  C   UNL     1       5.191   3.406  18.371  0.00  0.00    +0.000 C 
ATOM     11  H   UNL     1       3.269   4.390  15.920  0.00  0.00    +0.000 HD
ENDROOT
BRANCH   7  12
ATOM     12  C   UNL     1       2.651   5.805  18.856  0.00  0.00    +0.000 C 
ATOM     13  C   UNL     1       1.551   4.725  19.252  0.00  0.00    +0.000 C 
ATOM     14  C   UNL     1       1.930   4.950  20.721  0.00  0.00    +0.000 C 
ATOM     15  C   UNL     1       3.331   5.359  20.225  0.00  0.00    +0.000 C 
BRANCH  12  16
ATOM     16  C   UNL     1       2.079   7.378  18.900  0.00  0.00    +0.000 A 
ATOM     17  C   UNL     1       1.625   7.961  20.108  0.00  0.00    +0.000 A 
ATOM     18  C   UNL     1       1.250   9.303  20.194  0.00  0.00    +0.000 A 
ATOM     19  C   UNL     1       1.308  10.100  19.062  0.00  0.00    +0.000 A 
ATOM     20  F   UNL     1       0.984  11.397  19.148  0.00  0.00    +0.000 F 
ATOM     21  C   UNL     1       1.703   9.569  17.844  0.00  0.00    +0.000 A 
ATOM     22  C   UNL     1       2.074   8.220  17.766  0.00  0.00    +0.000 A 
ENDBRANCH  12  16
ENDBRANCH   7  12
BRANCH   1  23
ATOM     23  O   UNL     1       7.487   8.500  17.456  0.00  0.00    +0.000 OA
BRANCH  23  24
ATOM     24  C   UNL     1       8.594   8.931  18.258  0.00  0.00    +0.000 C 
BRANCH  24  25
ATOM     25  C   UNL     1       8.690  10.454  18.237  0.00  0.00    +0.000 C 
BRANCH  25  26
ATOM     26  N   UNL     1       9.944  10.890  18.894  0.00  0.00    +0.000 NA
ATOM     27  H   UNL     1      10.372  10.192  19.510  0.00  0.00    +0.000 HD
BRANCH  26  28
ATOM     28  S   UNL     1       9.906  12.364  19.711  0.00  0.00    +0.000 S 
ATOM     29  O   UNL     1      10.199  12.052  21.090  0.00  0.00    +0.000 OA
ATOM     30  O   UNL     1       8.676  13.028  19.331  0.00  0.00    +0.000 OA
BRANCH  28  31
ATOM     31  C   UNL     1      11.300  13.229  18.990  0.00  0.00    +0.000 C 
BRANCH  31  33
ATOM     32  C   UNL     1      11.491  13.374  16.492  0.00  0.00    +0.000 C 
ATOM     33  C   UNL     1      11.777  12.532  17.724  0.00  0.00    +0.000 C 
ENDBRANCH  31  33
ENDBRANCH  28  31
ENDBRANCH  26  28
ENDBRANCH  25  26
ENDBRANCH  24  25
ENDBRANCH  23  24
ENDBRANCH   1  23
TORSDOF 9
ENDMDL
MODEL 8
REMARK VINA RESULT:      -6.7      4.379      6.749
REMARK  Name = 
REMARK  10 active torsions:
REMARK  status: ('A' for Active; 'I' for Inactive)
REMARK    1  A    between atoms: C_1  and  C_2
REMARK    2  A    between atoms: C_2  and  C_3
REMARK    3  A    between atoms: C_3  and  S_4
REMARK    4  A    between atoms: S_4  and  N_7
REMARK    5  A    between atoms: N_7  and  C_8
REMARK    6  A    between atoms: C_8  and  C_9
REMARK    7  A    between atoms: C_9  and  O_10
REMARK    8  A    between atoms: O_10  and  C_11
REMARK    9  A    between atoms: C_17  and  C_18
REMARK   10  A    between atoms: C_18  and  C_19
REMARK                            x       y       z     vdW  Elec       q    Type
REMARK                         _______ _______ _______ _____ _____    ______ ____
ROOT
ATOM      1  C   UNL     1       6.744   6.644  17.504  0.00  0.00    +0.000 A 
ATOM      2  C   UNL     1       7.439   5.594  18.108  0.00  0.00    +0.000 A 
ATOM      3  C   UNL     1       6.786   4.410  18.429  0.00  0.00    +0.000 A 
ATOM      4  C   UNL     1       5.423   4.271  18.170  0.00  0.00    +0.000 A 
ATOM      5  C   UNL     1       4.675   5.362  17.698  0.00  0.00    +0.000 A 
ATOM      6  C   UNL     1       5.358   6.532  17.320  0.00  0.00    +0.000 A 
ATOM      7  C   UNL     1       3.156   5.237  17.632  0.00  0.00    +0.000 C 
ATOM      8  N   UNL     1       2.735   3.924  17.101  0.00  0.00    +0.000 NA
ATOM      9  C   UNL     1       3.565   2.766  17.449  0.00  0.00    +0.000 C 
ATOM     10  C   UNL     1       4.731   2.962  18.420  0.00  0.00    +0.000 C 
ATOM     11  H   UNL     1       2.691   3.990  16.085  0.00  0.00    +0.000 HD
ENDROOT
BRANCH   7  12
ATOM     12  C   UNL     1       2.430   5.577  18.987  0.00  0.00    +0.000 C 
ATOM     13  C   UNL     1       1.316   4.585  19.542  0.00  0.00    +0.000 C 
ATOM     14  C   UNL     1       1.835   4.875  20.957  0.00  0.00    +0.000 C 
ATOM     15  C   UNL     1       3.206   5.174  20.319  0.00  0.00    +0.000 C 
BRANCH  12  16
ATOM     16  C   UNL     1       1.945   7.179  18.979  0.00  0.00    +0.000 A 
ATOM     17  C   UNL     1       1.462   7.805  20.153  0.00  0.00    +0.000 A 
ATOM     18  C   UNL     1       1.158   9.167  20.200  0.00  0.00    +0.000 A 
ATOM     19  C   UNL     1       1.320   9.941  19.063  0.00  0.00    +0.000 A 
ATOM     20  F   UNL     1       1.064  11.256  19.114  0.00  0.00    +0.000 F 
ATOM     21  C   UNL     1       1.748   9.369  17.875  0.00  0.00    +0.000 A 
ATOM     22  C   UNL     1       2.048   8.001  17.835  0.00  0.00    +0.000 A 
ENDBRANCH  12  16
ENDBRANCH   7  12
BRANCH   1  23
ATOM     23  O   UNL     1       7.325   7.811  17.073  0.00  0.00    +0.000 OA
BRANCH  23  24
ATOM     24  C   UNL     1       8.227   8.424  18.003  0.00  0.00    +0.000 C 
BRANCH  24  25
ATOM     25  C   UNL     1       8.209   9.940  17.825  0.00  0.00    +0.000 C 
BRANCH  25  26
ATOM     26  N   UNL     1       9.039  10.581  18.870  0.00  0.00    +0.000 NA
ATOM     27  H   UNL     1       8.599  10.638  19.793  0.00  0.00    +0.000 HD
BRANCH  26  28
ATOM     28  S   UNL     1       9.699  12.089  18.504  0.00  0.00    +0.000 S 
ATOM     29  O   UNL     1       8.917  12.598  17.402  0.00  0.00    +0.000 OA
ATOM     30  O   UNL     1      11.132  11.908  18.394  0.00  0.00    +0.000 OA
BRANCH  28  31
ATOM     31  C   UNL     1       9.326  13.031  19.981  0.00  0.00    +0.000 C 
BRANCH  31  33
ATOM     32  C   UNL     1       8.964  12.257  22.341  0.00  0.00    +0.000 C 
ATOM     33  C   UNL     1       9.966  12.397  21.207  0.00  0.00    +0.000 C 
ENDBRANCH  31  33
ENDBRANCH  28  31
ENDBRANCH  26  28
ENDBRANCH  25  26
ENDBRANCH  24  25
ENDBRANCH  23  24
ENDBRANCH   1  23
TORSDOF 9
ENDMDL
MODEL 9
REMARK VINA RESULT:      -6.6      4.533      6.855
REMARK  Name = 
REMARK  10 active torsions:
REMARK  status: ('A' for Active; 'I' for Inactive)
REMARK    1  A    between atoms: C_1  and  C_2
REMARK    2  A    between atoms: C_2  and  C_3
REMARK    3  A    between atoms: C_3  and  S_4
REMARK    4  A    between atoms: S_4  and  N_7
REMARK    5  A    between atoms: N_7  and  C_8
REMARK    6  A    between atoms: C_8  and  C_9
REMARK    7  A    between atoms: C_9  and  O_10
REMARK    8  A    between atoms: O_10  and  C_11
REMARK    9  A    between atoms: C_17  and  C_18
REMARK   10  A    between atoms: C_18  and  C_19
REMARK                            x       y       z     vdW  Elec       q    Type
REMARK                         _______ _______ _______ _____ _____    ______ ____
ROOT
ATOM      1  C   UNL     1       6.915   6.881  17.500  0.00  0.00    +0.000 A 
ATOM      2  C   UNL     1       7.615   5.802  18.042  0.00  0.00    +0.000 A 
ATOM      3  C   UNL     1       6.964   4.603  18.310  0.00  0.00    +0.000 A 
ATOM      4  C   UNL     1       5.598   4.480  18.060  0.00  0.00    +0.000 A 
ATOM      5  C   UNL     1       4.846   5.594  17.653  0.00  0.00    +0.000 A 
ATOM      6  C   UNL     1       5.527   6.780  17.327  0.00  0.00    +0.000 A 
ATOM      7  C   UNL     1       3.326   5.474  17.598  0.00  0.00    +0.000 C 
ATOM      8  N   UNL     1       2.897   4.190  17.007  0.00  0.00    +0.000 NA
ATOM      9  C   UNL     1       3.729   3.015  17.286  0.00  0.00    +0.000 C 
ATOM     10  C   UNL     1       4.906   3.161  18.252  0.00  0.00    +0.000 C 
ATOM     11  H   UNL     1       2.841   4.308  15.996  0.00  0.00    +0.000 HD
ENDROOT
BRANCH   7  12
ATOM     12  C   UNL     1       2.617   5.746  18.977  0.00  0.00    +0.000 C 
ATOM     13  C   UNL     1       1.515   4.723  19.499  0.00  0.00    +0.000 C 
ATOM     14  C   UNL     1       2.050   4.949  20.919  0.00  0.00    +0.000 C 
ATOM     15  C   UNL     1       3.412   5.284  20.278  0.00  0.00    +0.000 C 
BRANCH  12  16
ATOM     16  C   UNL     1       2.125   7.345  19.051  0.00  0.00    +0.000 A 
ATOM     17  C   UNL     1       2.105   8.161  17.895  0.00  0.00    +0.000 A 
ATOM     18  C   UNL     1       1.593   9.460  17.909  0.00  0.00    +0.000 A 
ATOM     19  C   UNL     1       1.096   9.984  19.091  0.00  0.00    +0.000 A 
ATOM     20  F   UNL     1       0.571  11.217  19.101  0.00  0.00    +0.000 F 
ATOM     21  C   UNL     1       1.132   9.243  20.262  0.00  0.00    +0.000 A 
ATOM     22  C   UNL     1       1.650   7.941  20.240  0.00  0.00    +0.000 A 
ENDBRANCH  12  16
ENDBRANCH   7  12
BRANCH   1  23
ATOM     23  O   UNL     1       7.493   8.068  17.122  0.00  0.00    +0.000 OA
BRANCH  23  24
ATOM     24  C   UNL     1       8.274   8.717  18.134  0.00  0.00    +0.000 C 
BRANCH  24  25
ATOM     25  C   UNL     1       8.235  10.229  17.933  0.00  0.00    +0.000 C 
BRANCH  25  26
ATOM     26  N   UNL     1       9.610  10.779  17.961  0.00  0.00    +0.000 NA
ATOM     27  H   UNL     1      10.264  10.269  18.562  0.00  0.00    +0.000 HD
BRANCH  26  28
ATOM     28  S   UNL     1       9.768  12.425  18.283  0.00  0.00    +0.000 S 
ATOM     29  O   UNL     1       8.578  13.043  17.747  0.00  0.00    +0.000 OA
ATOM     30  O   UNL     1      11.090  12.818  17.838  0.00  0.00    +0.000 OA
BRANCH  28  31
ATOM     31  C   UNL     1       9.702  12.466  20.073  0.00  0.00    +0.000 C 
BRANCH  31  33
ATOM     32  C   UNL     1       9.550  14.131  21.944  0.00  0.00    +0.000 C 
ATOM     33  C   UNL     1       9.045  13.748  20.564  0.00  0.00    +0.000 C 
ENDBRANCH  31  33
ENDBRANCH  28  31
ENDBRANCH  26  28
ENDBRANCH  25  26
ENDBRANCH  24  25
ENDBRANCH  23  24
ENDBRANCH   1  23
TORSDOF 9
ENDMDL
