MODEL 1
REMARK VINA RESULT:      -7.4      0.000      0.000
REMARK  Name = 
REMARK  2 active torsions:
REMARK  status: ('A' for Active; 'I' for Inactive)
REMARK    1  A    between atoms: C_2  and  C_3
REMARK    2  A    between atoms: C_3  and  C_4
REMARK                            x       y       z     vdW  Elec       q    Type
REMARK                         _______ _______ _______ _____ _____    ______ ____
ROOT
ATOM      1  C   UNL     1       5.607   5.934  17.482  0.00  0.00    +0.000 A 
ATOM      2  C   UNL     1       6.721   6.734  17.695  0.00  0.00    +0.000 A 
ATOM      3  N   UNL     1       7.557   6.609  16.617  0.00  0.00    +0.000 N 
ATOM      4  C   UNL     1       7.020   5.738  15.712  0.00  0.00    +0.000 A 
ATOM      5  N   UNL     1       7.614   5.393  14.554  0.00  0.00    +0.000 NA
ATOM      6  C   UNL     1       6.889   4.505  13.841  0.00  0.00    +0.000 A 
ATOM      7  C   UNL     1       5.658   3.980  14.214  0.00  0.00    +0.000 A 
ATOM      8  C   UNL     1       5.091   4.375  15.427  0.00  0.00    +0.000 A 
ATOM      9  C   UNL     1       5.803   5.294  16.214  0.00  0.00    +0.000 A 
ATOM     10  H   UNL     1       8.450   7.063  16.487  0.00  0.00    +0.000 HD
ENDROOT
BRANCH   1  11
ATOM     11  C   UNL     1       4.473   5.750  18.438  0.00  0.00    +0.000 C 
BRANCH  11  13
ATOM     12  O   UNL     1       5.401   3.769  19.417  0.00  0.00    +0.000 OA
ATOM     13  C   UNL     1       4.379   4.370  19.075  0.00  0.00    +0.000 C 
ATOM     14  N   UNL     1       3.117   3.865  19.322  0.00  0.00    +0.000 N 
ATOM     15  C   UNL     1       2.922   2.626  20.052  0.00  0.00    +0.000 C 
ATOM     16  C   UNL     1       1.806   1.936  19.289  0.00  0.00    +0.000 C 
ATOM     17  C   UNL     1       0.917   3.104  18.876  0.00  0.00    +0.000 C 
ATOM     18  C   UNL     1       1.911   4.227  18.589  0.00  0.00    +0.000 C 
ENDBRANCH  11  13
ENDBRANCH   1  11
TORSDOF 2
ENDMDL
MODEL 2
REMARK VINA RESULT:      -7.3      1.011      1.381
REMARK  Name = 
REMARK  2 active torsions:
REMARK  status: ('A' for Active; 'I' for Inactive)
REMARK    1  A    between atoms: C_2  and  C_3
REMARK    2  A    between atoms: C_3  and  C_4
REMARK                            x       y       z     vdW  Elec       q    Type
REMARK                         _______ _______ _______ _____ _____    ______ ____
ROOT
ATOM      1  C   UNL     1       6.163   5.365  18.097  0.00  0.00    +0.000 A 
ATOM      2  C   UNL     1       7.094   6.393  18.147  0.00  0.00    +0.000 A 
ATOM      3  N   UNL     1       7.632   6.552  16.897  0.00  0.00    +0.000 N 
ATOM      4  C   UNL     1       7.082   5.645  16.037  0.00  0.00    +0.000 A 
ATOM      5  N   UNL     1       7.419   5.539  14.737  0.00  0.00    +0.000 NA
ATOM      6  C   UNL     1       6.745   4.556  14.103  0.00  0.00    +0.000 A 
ATOM      7  C   UNL     1       5.795   3.723  14.681  0.00  0.00    +0.000 A 
ATOM      8  C   UNL     1       5.487   3.880  16.033  0.00  0.00    +0.000 A 
ATOM      9  C   UNL     1       6.161   4.885  16.746  0.00  0.00    +0.000 A 
ATOM     10  H   UNL     1       8.341   7.217  16.624  0.00  0.00    +0.000 HD
ENDROOT
BRANCH   1  11
ATOM     11  C   UNL     1       5.380   4.843  19.258  0.00  0.00    +0.000 C 
BRANCH  11  13
ATOM     12  O   UNL     1       3.437   6.243  19.358  0.00  0.00    +0.000 OA
ATOM     13  C   UNL     1       3.881   5.103  19.198  0.00  0.00    +0.000 C 
ATOM     14  N   UNL     1       3.060   4.037  18.882  0.00  0.00    +0.000 N 
ATOM     15  C   UNL     1       1.636   4.213  18.660  0.00  0.00    +0.000 C 
ATOM     16  C   UNL     1       1.019   3.010  19.351  0.00  0.00    +0.000 C 
ATOM     17  C   UNL     1       2.034   1.910  19.067  0.00  0.00    +0.000 C 
ATOM     18  C   UNL     1       3.376   2.636  19.121  0.00  0.00    +0.000 C 
ENDBRANCH  11  13
ENDBRANCH   1  11
TORSDOF 2
ENDMDL
MODEL 3
REMARK VINA RESULT:      -7.2      1.767      2.046
REMARK  Name = 
REMARK  2 active torsions:
REMARK  status: ('A' for Active; 'I' for Inactive)
REMARK    1  A    between atoms: C_2  and  C_3
REMARK    2  A    between atoms: C_3  and  C_4
REMARK                            x       y       z     vdW  Elec       q    Type
REMARK                         _______ _______ _______ _____ _____    ______ ____
ROOT
ATOM      1  C   UNL     1       5.047   5.594  18.420  0.00  0.00    +0.000 A 
ATOM      2  C   UNL     1       6.063   5.243  19.297  0.00  0.00    +0.000 A 
ATOM      3  N   UNL     1       7.142   4.823  18.565  0.00  0.00    +0.000 N 
ATOM      4  C   UNL     1       6.849   4.881  17.232  0.00  0.00    +0.000 A 
ATOM      5  N   UNL     1       7.702   4.515  16.257  0.00  0.00    +0.000 NA
ATOM      6  C   UNL     1       7.171   4.652  15.023  0.00  0.00    +0.000 A 
ATOM      7  C   UNL     1       5.894   5.119  14.738  0.00  0.00    +0.000 A 
ATOM      8  C   UNL     1       5.054   5.482  15.792  0.00  0.00    +0.000 A 
ATOM      9  C   UNL     1       5.551   5.357  17.099  0.00  0.00    +0.000 A 
ATOM     10  H   UNL     1       8.027   4.496  18.924  0.00  0.00    +0.000 HD
ENDROOT
BRANCH   1  11
ATOM     11  C   UNL     1       3.683   6.064  18.812  0.00  0.00    +0.000 C 
BRANCH  11  13
ATOM     12  O   UNL     1       1.878   5.057  17.598  0.00  0.00    +0.000 OA
ATOM     13  C   UNL     1       2.567   5.046  18.621  0.00  0.00    +0.000 C 
ATOM     14  N   UNL     1       2.417   4.074  19.592  0.00  0.00    +0.000 N 
ATOM     15  C   UNL     1       1.479   2.977  19.433  0.00  0.00    +0.000 C 
ATOM     16  C   UNL     1       0.860   2.837  20.812  0.00  0.00    +0.000 C 
ATOM     17  C   UNL     1       2.038   3.133  21.734  0.00  0.00    +0.000 C 
ATOM     18  C   UNL     1       2.816   4.213  20.986  0.00  0.00    +0.000 C 
ENDBRANCH  11  13
ENDBRANCH   1  11
TORSDOF 2
ENDMDL
MODEL 4
REMARK VINA RESULT:      -7.2      1.704      3.065
REMARK  Name = 
REMARK  2 active torsions:
REMARK  status: ('A' for Active; 'I' for Inactive)
REMARK    1  A    between atoms: C_2  and  C_3
REMARK    2  A    between atoms: C_3  and  C_4
REMARK                            x       y       z     vdW  Elec       q    Type
REMARK                         _______ _______ _______ _____ _____    ______ ____
ROOT
ATOM      1  C   UNL     1       5.092   4.051  16.772  0.00  0.00    +0.000 A 
ATOM      2  C   UNL     1       5.063   4.532  15.471  0.00  0.00    +0.000 A 
ATOM      3  N   UNL     1       5.932   5.587  15.380  0.00  0.00    +0.000 N 
ATOM      4  C   UNL     1       6.517   5.812  16.593  0.00  0.00    +0.000 A 
ATOM      5  N   UNL     1       7.406   6.795  16.830  0.00  0.00    +0.000 NA
ATOM      6  C   UNL     1       7.827   6.819  18.112  0.00  0.00    +0.000 A 
ATOM      7  C   UNL     1       7.423   5.945  19.113  0.00  0.00    +0.000 A 
ATOM      8  C   UNL     1       6.497   4.945  18.808  0.00  0.00    +0.000 A 
ATOM      9  C   UNL     1       6.019   4.875  17.490  0.00  0.00    +0.000 A 
ATOM     10  H   UNL     1       6.120   6.146  14.561  0.00  0.00    +0.000 HD
ENDROOT
BRANCH   1  11
ATOM     11  C   UNL     1       4.257   2.930  17.304  0.00  0.00    +0.000 C 
BRANCH  11  13
ATOM     12  O   UNL     1       2.071   3.829  16.908  0.00  0.00    +0.000 OA
ATOM     13  C   UNL     1       2.844   3.315  17.720  0.00  0.00    +0.000 C 
ATOM     14  N   UNL     1       2.448   2.994  19.005  0.00  0.00    +0.000 N 
ATOM     15  C   UNL     1       1.079   3.190  19.450  0.00  0.00    +0.000 C 
ATOM     16  C   UNL     1       1.240   3.735  20.858  0.00  0.00    +0.000 C 
ATOM     17  C   UNL     1       2.450   2.965  21.374  0.00  0.00    +0.000 C 
ATOM     18  C   UNL     1       3.342   2.831  20.143  0.00  0.00    +0.000 C 
ENDBRANCH  11  13
ENDBRANCH   1  11
TORSDOF 2
ENDMDL
MODEL 5
REMARK VINA RESULT:      -7.1      1.111      1.392
REMARK  Name = 
REMARK  2 active torsions:
REMARK  status: ('A' for Active; 'I' for Inactive)
REMARK    1  A    between atoms: C_2  and  C_3
REMARK    2  A    between atoms: C_3  and  C_4
REMARK                            x       y       z     vdW  Elec       q    Type
REMARK                         _______ _______ _______ _____ _____    ______ ____
ROOT
ATOM      1  C   UNL     1       5.500   4.408  16.439  0.00  0.00    +0.000 A 
ATOM      2  C   UNL     1       6.287   5.338  17.104  0.00  0.00    +0.000 A 
ATOM      3  N   UNL     1       7.209   5.834  16.222  0.00  0.00    +0.000 N 
ATOM      4  C   UNL     1       7.050   5.243  15.001  0.00  0.00    +0.000 A 
ATOM      5  N   UNL     1       7.820   5.508  13.929  0.00  0.00    +0.000 NA
ATOM      6  C   UNL     1       7.471   4.783  12.845  0.00  0.00    +0.000 A 
ATOM      7  C   UNL     1       6.437   3.857  12.790  0.00  0.00    +0.000 A 
ATOM      8  C   UNL     1       5.673   3.622  13.934  0.00  0.00    +0.000 A 
ATOM      9  C   UNL     1       5.994   4.346  15.094  0.00  0.00    +0.000 A 
ATOM     10  H   UNL     1       7.924   6.521  16.416  0.00  0.00    +0.000 HD
ENDROOT
BRANCH   1  11
ATOM     11  C   UNL     1       4.401   3.600  17.052  0.00  0.00    +0.000 C 
BRANCH  11  13
ATOM     12  O   UNL     1       5.337   3.621  19.259  0.00  0.00    +0.000 OA
ATOM     13  C   UNL     1       4.314   3.672  18.570  0.00  0.00    +0.000 C 
ATOM     14  N   UNL     1       3.066   3.875  19.129  0.00  0.00    +0.000 N 
ATOM     15  C   UNL     1       2.898   4.099  20.554  0.00  0.00    +0.000 C 
ATOM     16  C   UNL     1       1.662   3.288  20.897  0.00  0.00    +0.000 C 
ATOM     17  C   UNL     1       0.792   3.472  19.658  0.00  0.00    +0.000 C 
ATOM     18  C   UNL     1       1.801   3.502  18.513  0.00  0.00    +0.000 C 
ENDBRANCH  11  13
ENDBRANCH   1  11
TORSDOF 2
ENDMDL
MODEL 6
REMARK VINA RESULT:      -7.1      1.719      2.284
REMARK  Name = 
REMARK  2 active torsions:
REMARK  status: ('A' for Active; 'I' for Inactive)
REMARK    1  A    between atoms: C_2  and  C_3
REMARK    2  A    between atoms: C_3  and  C_4
REMARK                            x       y       z     vdW  Elec       q    Type
REMARK                         _______ _______ _______ _____ _____    ______ ____
ROOT
ATOM      1  C   UNL     1       4.898   3.726  17.198  0.00  0.00    +0.000 A 
ATOM      2  C   UNL     1       5.387   4.579  18.177  0.00  0.00    +0.000 A 
ATOM      3  N   UNL     1       6.324   5.400  17.608  0.00  0.00    +0.000 N 
ATOM      4  C   UNL     1       6.466   5.095  16.285  0.00  0.00    +0.000 A 
ATOM      5  N   UNL     1       7.327   5.716  15.456  0.00  0.00    +0.000 NA
ATOM      6  C   UNL     1       7.289   5.223  14.201  0.00  0.00    +0.000 A 
ATOM      7  C   UNL     1       6.467   4.194  13.760  0.00  0.00    +0.000 A 
ATOM      8  C   UNL     1       5.595   3.586  14.665  0.00  0.00    +0.000 A 
ATOM      9  C   UNL     1       5.594   4.055  15.989  0.00  0.00    +0.000 A 
ATOM     10  H   UNL     1       6.860   6.119  18.073  0.00  0.00    +0.000 HD
ENDROOT
BRANCH   1  11
ATOM     11  C   UNL     1       3.889   2.643  17.411  0.00  0.00    +0.000 C 
BRANCH  11  13
ATOM     12  O   UNL     1       1.745   3.691  17.186  0.00  0.00    +0.000 OA
ATOM     13  C   UNL     1       2.537   3.112  17.933  0.00  0.00    +0.000 C 
ATOM     14  N   UNL     1       2.212   2.792  19.238  0.00  0.00    +0.000 N 
ATOM     15  C   UNL     1       0.894   3.067  19.783  0.00  0.00    +0.000 C 
ATOM     16  C   UNL     1       1.189   3.574  21.183  0.00  0.00    +0.000 C 
ATOM     17  C   UNL     1       2.379   2.717  21.600  0.00  0.00    +0.000 C 
ATOM     18  C   UNL     1       3.171   2.549  20.306  0.00  0.00    +0.000 C 
ENDBRANCH  11  13
ENDBRANCH   1  11
TORSDOF 2
ENDMDL
MODEL 7
REMARK VINA RESULT:      -7.0      1.780      2.018
REMARK  Name = 
REMARK  2 active torsions:
REMARK  status: ('A' for Active; 'I' for Inactive)
REMARK    1  A    between atoms: C_2  and  C_3
REMARK    2  A    between atoms: C_3  and  C_4
REMARK                            x       y       z     vdW  Elec       q    Type
REMARK                         _______ _______ _______ _____ _____    ______ ____
ROOT
ATOM      1  C   UNL     1       4.598   5.681  18.046  0.00  0.00    +0.000 A 
ATOM      2  C   UNL     1       5.382   5.329  19.137  0.00  0.00    +0.000 A 
ATOM      3  N   UNL     1       6.582   4.859  18.674  0.00  0.00    +0.000 N 
ATOM      4  C   UNL     1       6.595   4.886  17.308  0.00  0.00    +0.000 A 
ATOM      5  N   UNL     1       7.632   4.469  16.557  0.00  0.00    +0.000 NA
ATOM      6  C   UNL     1       7.394   4.583  15.233  0.00  0.00    +0.000 A 
ATOM      7  C   UNL     1       6.229   5.076  14.659  0.00  0.00    +0.000 A 
ATOM      8  C   UNL     1       5.187   5.492  15.490  0.00  0.00    +0.000 A 
ATOM      9  C   UNL     1       5.376   5.392  16.877  0.00  0.00    +0.000 A 
ATOM     10  H   UNL     1       7.354   4.520  19.229  0.00  0.00    +0.000 HD
ENDROOT
BRANCH   1  11
ATOM     11  C   UNL     1       3.197   6.199  18.113  0.00  0.00    +0.000 C 
BRANCH  11  13
ATOM     12  O   UNL     1       2.292   6.571  20.301  0.00  0.00    +0.000 OA
ATOM     13  C   UNL     1       2.414   5.791  19.353  0.00  0.00    +0.000 C 
ATOM     14  N   UNL     1       1.788   4.558  19.335  0.00  0.00    +0.000 N 
ATOM     15  C   UNL     1       0.903   4.139  20.407  0.00  0.00    +0.000 C 
ATOM     16  C   UNL     1       1.265   2.679  20.615  0.00  0.00    +0.000 C 
ATOM     17  C   UNL     1       1.550   2.205  19.194  0.00  0.00    +0.000 C 
ATOM     18  C   UNL     1       2.210   3.415  18.538  0.00  0.00    +0.000 C 
ENDBRANCH  11  13
ENDBRANCH   1  11
TORSDOF 2
ENDMDL
MODEL 8
REMARK VINA RESULT:      -7.0      1.418      1.902
REMARK  Name = 
REMARK  2 active torsions:
REMARK  status: ('A' for Active; 'I' for Inactive)
REMARK    1  A    between atoms: C_2  and  C_3
REMARK    2  A    between atoms: C_3  and  C_4
REMARK                            x       y       z     vdW  Elec       q    Type
REMARK                         _______ _______ _______ _____ _____    ______ ____
ROOT
ATOM      1  C   UNL     1       5.661   4.361  16.326  0.00  0.00    +0.000 A 
ATOM      2  C   UNL     1       6.518   5.243  16.969  0.00  0.00    +0.000 A 
ATOM      3  N   UNL     1       7.411   5.729  16.050  0.00  0.00    +0.000 N 
ATOM      4  C   UNL     1       7.163   5.176  14.827  0.00  0.00    +0.000 A 
ATOM      5  N   UNL     1       7.883   5.441  13.720  0.00  0.00    +0.000 NA
ATOM      6  C   UNL     1       7.449   4.758  12.640  0.00  0.00    +0.000 A 
ATOM      7  C   UNL     1       6.379   3.873  12.618  0.00  0.00    +0.000 A 
ATOM      8  C   UNL     1       5.669   3.637  13.797  0.00  0.00    +0.000 A 
ATOM      9  C   UNL     1       6.079   4.317  14.955  0.00  0.00    +0.000 A 
ATOM     10  H   UNL     1       8.161   6.382  16.222  0.00  0.00    +0.000 HD
ENDROOT
BRANCH   1  11
ATOM     11  C   UNL     1       4.567   3.579  16.978  0.00  0.00    +0.000 C 
BRANCH  11  13
ATOM     12  O   UNL     1       3.416   5.626  17.457  0.00  0.00    +0.000 OA
ATOM     13  C   UNL     1       3.498   4.414  17.670  0.00  0.00    +0.000 C 
ATOM     14  N   UNL     1       2.587   3.749  18.469  0.00  0.00    +0.000 N 
ATOM     15  C   UNL     1       1.448   4.432  19.056  0.00  0.00    +0.000 C 
ATOM     16  C   UNL     1       1.376   3.860  20.460  0.00  0.00    +0.000 C 
ATOM     17  C   UNL     1       1.776   2.405  20.244  0.00  0.00    +0.000 C 
ATOM     18  C   UNL     1       2.832   2.482  19.145  0.00  0.00    +0.000 C 
ENDBRANCH  11  13
ENDBRANCH   1  11
TORSDOF 2
ENDMDL
MODEL 9
REMARK VINA RESULT:      -7.0      1.279      1.348
REMARK  Name = 
REMARK  2 active torsions:
REMARK  status: ('A' for Active; 'I' for Inactive)
REMARK    1  A    between atoms: C_2  and  C_3
REMARK    2  A    between atoms: C_3  and  C_4
REMARK                            x       y       z     vdW  Elec       q    Type
REMARK                         _______ _______ _______ _____ _____    ______ ____
ROOT
ATOM      1  C   UNL     1       5.178   5.511  16.821  0.00  0.00    +0.000 A 
ATOM      2  C   UNL     1       6.179   6.296  17.378  0.00  0.00    +0.000 A 
ATOM      3  N   UNL     1       7.244   6.316  16.517  0.00  0.00    +0.000 N 
ATOM      4  C   UNL     1       6.965   5.556  15.418  0.00  0.00    +0.000 A 
ATOM      5  N   UNL     1       7.824   5.364  14.397  0.00  0.00    +0.000 NA
ATOM      6  C   UNL     1       7.320   4.560  13.437  0.00  0.00    +0.000 A 
ATOM      7  C   UNL     1       6.060   3.975  13.450  0.00  0.00    +0.000 A 
ATOM      8  C   UNL     1       5.214   4.209  14.536  0.00  0.00    +0.000 A 
ATOM      9  C   UNL     1       5.687   5.035  15.568  0.00  0.00    +0.000 A 
ATOM     10  H   UNL     1       8.122   6.796  16.652  0.00  0.00    +0.000 HD
ENDROOT
BRANCH   1  11
ATOM     11  C   UNL     1       3.864   5.194  17.459  0.00  0.00    +0.000 C 
BRANCH  11  13
ATOM     12  O   UNL     1       4.093   2.810  17.545  0.00  0.00    +0.000 OA
ATOM     13  C   UNL     1       3.790   3.841  18.152  0.00  0.00    +0.000 C 
ATOM     14  N   UNL     1       3.452   3.827  19.492  0.00  0.00    +0.000 N 
ATOM     15  C   UNL     1       3.493   2.605  20.275  0.00  0.00    +0.000 C 
ATOM     16  C   UNL     1       2.242   2.691  21.131  0.00  0.00    +0.000 C 
ATOM     17  C   UNL     1       2.160   4.180  21.446  0.00  0.00    +0.000 C 
ATOM     18  C   UNL     1       2.660   4.846  20.167  0.00  0.00    +0.000 C 
ENDBRANCH  11  13
ENDBRANCH   1  11
TORSDOF 2
ENDMDL
