MODEL 1
REMARK VINA RESULT:      -7.9      0.000      0.000
REMARK  Name = 
REMARK  5 active torsions:
REMARK  status: ('A' for Active; 'I' for Inactive)
REMARK    1  A    between atoms: C_2  and  C_13
REMARK    2  A    between atoms: N_3  and  C_4
REMARK    3  A    between atoms: C_4  and  C_5
REMARK    4  A    between atoms: C_15  and  C_16
REMARK    5  A    between atoms: C_22  and  C_24
REMARK                            x       y       z     vdW  Elec       q    Type
REMARK                         _______ _______ _______ _____ _____    ______ ____
ROOT
ATOM      1  C   UNL     1       1.474   7.992  20.272  0.00  0.00    +0.000 A 
ATOM      2  C   UNL     1       1.399   8.927  19.212  0.00  0.00    +0.000 A 
ATOM      3  C   UNL     1       0.892  10.068  19.778  0.00  0.00    +0.000 A 
ATOM      4  O   UNL     1       0.635   9.833  21.096  0.00  0.00    +0.000 OA
ATOM      5  N   UNL     1       1.004   8.531  21.417  0.00  0.00    +0.000 NA
ENDROOT
BRANCH   3   6
ATOM      6  C   UNL     1       0.727  11.453  19.251  0.00  0.00    +0.000 C 
ATOM      7  C   UNL     1       1.461  12.413  20.218  0.00  0.00    +0.000 C 
ATOM      8  C   UNL     1       1.418  13.863  19.761  0.00  0.00    +0.000 C 
ATOM      9  C   UNL     1      -0.015  14.281  19.504  0.00  0.00    +0.000 C 
ATOM     10  C   UNL     1      -0.694  13.335  18.531  0.00  0.00    +0.000 C 
ATOM     11  N   UNL     1      -0.648  11.930  18.963  0.00  0.00    +0.000 N 
ATOM     12  C   UNL     1      -1.718  11.036  18.750  0.00  0.00    +0.000 C 
ATOM     13  O   UNL     1      -1.647   9.818  18.889  0.00  0.00    +0.000 OA
BRANCH  12  14
ATOM     14  C   UNL     1      -3.073  11.559  18.410  0.00  0.00    +0.000 A 
ATOM     15  C   UNL     1      -3.874  12.221  19.347  0.00  0.00    +0.000 A 
ATOM     16  C   UNL     1      -5.191  12.558  19.030  0.00  0.00    +0.000 A 
ATOM     17  C   UNL     1      -5.674  12.338  17.742  0.00  0.00    +0.000 A 
ATOM     18  C   UNL     1      -4.839  11.794  16.766  0.00  0.00    +0.000 A 
ATOM     19  C   UNL     1      -3.541  11.397  17.099  0.00  0.00    +0.000 A 
ENDBRANCH  12  14
ENDBRANCH   3   6
BRANCH   1  21
ATOM     20  O   UNL     1       2.003   5.874  21.141  0.00  0.00    +0.000 OA
ATOM     21  C   UNL     1       2.022   6.643  20.183  0.00  0.00    +0.000 C 
ATOM     22  N   UNL     1       2.534   6.292  18.952  0.00  0.00    +0.000 N 
ATOM     23  H   UNL     1       2.469   6.977  18.207  0.00  0.00    +0.000 HD
BRANCH  22  24
ATOM     24  C   UNL     1       3.066   4.977  18.707  0.00  0.00    +0.000 C 
BRANCH  24  25
ATOM     25  C   UNL     1       4.201   5.006  17.713  0.00  0.00    +0.000 A 
ATOM     26  C   UNL     1       4.219   4.124  16.623  0.00  0.00    +0.000 A 
ATOM     27  C   UNL     1       5.274   4.146  15.706  0.00  0.00    +0.000 A 
ATOM     28  C   UNL     1       6.322   5.055  15.863  0.00  0.00    +0.000 A 
ATOM     29 CL   UNL     1       7.600   5.020  14.701  0.00  0.00    +0.000 Cl
ATOM     30  C   UNL     1       6.308   5.951  16.937  0.00  0.00    +0.000 A 
ATOM     31 CL   UNL     1       7.566   7.106  17.197  0.00  0.00    +0.000 Cl
ATOM     32  C   UNL     1       5.249   5.928  17.853  0.00  0.00    +0.000 A 
ENDBRANCH  24  25
ENDBRANCH  22  24
ENDBRANCH   1  21
TORSDOF 5
ENDMDL
MODEL 2
REMARK VINA RESULT:      -7.8      2.748      3.446
REMARK  Name = 
REMARK  5 active torsions:
REMARK  status: ('A' for Active; 'I' for Inactive)
REMARK    1  A    between atoms: C_2  and  C_13
REMARK    2  A    between atoms: N_3  and  C_4
REMARK    3  A    between atoms: C_4  and  C_5
REMARK    4  A    between atoms: C_15  and  C_16
REMARK    5  A    between atoms: C_22  and  C_24
REMARK                            x       y       z     vdW  Elec       q    Type
REMARK                         _______ _______ _______ _____ _____    ______ ____
ROOT
ATOM      1  C   UNL     1       0.776  10.000  19.205  0.00  0.00    +0.000 A 
ATOM      2  C   UNL     1       0.242  11.309  19.150  0.00  0.00    +0.000 A 
ATOM      3  C   UNL     1      -0.584  11.404  20.241  0.00  0.00    +0.000 A 
ATOM      4  O   UNL     1      -0.586  10.212  20.900  0.00  0.00    +0.000 OA
ATOM      5  N   UNL     1       0.272   9.324  20.259  0.00  0.00    +0.000 NA
ENDROOT
BRANCH   3   6
ATOM      6  C   UNL     1      -1.307  12.560  20.845  0.00  0.00    +0.000 C 
ATOM      7  C   UNL     1      -0.998  12.565  22.361  0.00  0.00    +0.000 C 
ATOM      8  C   UNL     1      -1.635  13.736  23.093  0.00  0.00    +0.000 C 
ATOM      9  C   UNL     1      -3.121  13.780  22.803  0.00  0.00    +0.000 C 
ATOM     10  C   UNL     1      -3.385  13.803  21.309  0.00  0.00    +0.000 C 
ATOM     11  N   UNL     1      -2.765  12.676  20.595  0.00  0.00    +0.000 N 
ATOM     12  C   UNL     1      -3.389  12.035  19.504  0.00  0.00    +0.000 C 
ATOM     13  O   UNL     1      -2.829  11.249  18.745  0.00  0.00    +0.000 OA
BRANCH  12  14
ATOM     14  C   UNL     1      -4.848  12.224  19.260  0.00  0.00    +0.000 A 
ATOM     15  C   UNL     1      -5.791  12.174  20.293  0.00  0.00    +0.000 A 
ATOM     16  C   UNL     1      -7.155  12.204  20.000  0.00  0.00    +0.000 A 
ATOM     17  C   UNL     1      -7.579  12.399  18.687  0.00  0.00    +0.000 A 
ATOM     18  C   UNL     1      -6.643  12.577  17.669  0.00  0.00    +0.000 A 
ATOM     19  C   UNL     1      -5.277  12.482  17.951  0.00  0.00    +0.000 A 
ENDBRANCH  12  14
ENDBRANCH   3   6
BRANCH   1  21
ATOM     20  O   UNL     1       2.192  10.082  17.332  0.00  0.00    +0.000 OA
ATOM     21  C   UNL     1       1.770   9.445  18.294  0.00  0.00    +0.000 C 
ATOM     22  N   UNL     1       2.214   8.176  18.603  0.00  0.00    +0.000 N 
ATOM     23  H   UNL     1       1.840   7.742  19.439  0.00  0.00    +0.000 HD
BRANCH  22  24
ATOM     24  C   UNL     1       3.227   7.522  17.817  0.00  0.00    +0.000 C 
BRANCH  24  25
ATOM     25  C   UNL     1       3.200   6.024  17.998  0.00  0.00    +0.000 A 
ATOM     26  C   UNL     1       4.114   5.205  17.320  0.00  0.00    +0.000 A 
ATOM     27  C   UNL     1       4.085   3.818  17.482  0.00  0.00    +0.000 A 
ATOM     28  C   UNL     1       3.143   3.230  18.330  0.00  0.00    +0.000 A 
ATOM     29 CL   UNL     1       3.154   1.508  18.474  0.00  0.00    +0.000 Cl
ATOM     30  C   UNL     1       2.236   4.036  19.024  0.00  0.00    +0.000 A 
ATOM     31 CL   UNL     1       1.044   3.383  20.091  0.00  0.00    +0.000 Cl
ATOM     32  C   UNL     1       2.269   5.426  18.861  0.00  0.00    +0.000 A 
ENDBRANCH  24  25
ENDBRANCH  22  24
ENDBRANCH   1  21
TORSDOF 5
ENDMDL
MODEL 3
REMARK VINA RESULT:      -7.8      0.852      1.212
REMARK  Name = 
REMARK  5 active torsions:
REMARK  status: ('A' for Active; 'I' for Inactive)
REMARK    1  A    between atoms: C_2  and  C_13
REMARK    2  A    between atoms: N_3  and  C_4
REMARK    3  A    between atoms: C_4  and  C_5
REMARK    4  A    between atoms: C_15  and  C_16
REMARK    5  A    between atoms: C_22  and  C_24
REMARK                            x       y       z     vdW  Elec       q    Type
REMARK                         _______ _______ _______ _____ _____    ______ ____
ROOT
ATOM      1  C   UNL     1       1.775   7.937  19.327  0.00  0.00    +0.000 A 
ATOM      2  C   UNL     1       1.528   8.984  18.407  0.00  0.00    +0.000 A 
ATOM      3  C   UNL     1       1.070  10.027  19.170  0.00  0.00    +0.000 A 
ATOM      4  O   UNL     1       1.003   9.630  20.471  0.00  0.00    +0.000 OA
ATOM      5  N   UNL     1       1.451   8.317  20.580  0.00  0.00    +0.000 NA
ENDROOT
BRANCH   3   6
ATOM      6  C   UNL     1       0.793  11.455  18.840  0.00  0.00    +0.000 C 
ATOM      7  C   UNL     1       1.559  12.328  19.862  0.00  0.00    +0.000 C 
ATOM      8  C   UNL     1       1.407  13.819  19.603  0.00  0.00    +0.000 C 
ATOM      9  C   UNL     1      -0.061  14.181  19.515  0.00  0.00    +0.000 C 
ATOM     10  C   UNL     1      -0.774  13.324  18.484  0.00  0.00    +0.000 C 
ATOM     11  N   UNL     1      -0.623  11.882  18.726  0.00  0.00    +0.000 N 
ATOM     12  C   UNL     1      -1.663  10.960  18.483  0.00  0.00    +0.000 C 
ATOM     13  O   UNL     1      -1.521   9.740  18.458  0.00  0.00    +0.000 OA
BRANCH  12  14
ATOM     14  C   UNL     1      -3.066  11.440  18.323  0.00  0.00    +0.000 A 
ATOM     15  C   UNL     1      -3.771  11.299  17.123  0.00  0.00    +0.000 A 
ATOM     16  C   UNL     1      -5.023  11.896  16.971  0.00  0.00    +0.000 A 
ATOM     17  C   UNL     1      -5.623  12.539  18.052  0.00  0.00    +0.000 A 
ATOM     18  C   UNL     1      -4.979  12.574  19.289  0.00  0.00    +0.000 A 
ATOM     19  C   UNL     1      -3.697  12.033  19.425  0.00  0.00    +0.000 A 
ENDBRANCH  12  14
ENDBRANCH   3   6
BRANCH   1  21
ATOM     20  O   UNL     1       2.032   6.027  17.983  0.00  0.00    +0.000 OA
ATOM     21  C   UNL     1       2.346   6.634  19.003  0.00  0.00    +0.000 C 
ATOM     22  N   UNL     1       3.271   6.152  19.905  0.00  0.00    +0.000 N 
ATOM     23  H   UNL     1       3.500   6.741  20.699  0.00  0.00    +0.000 HD
BRANCH  22  24
ATOM     24  C   UNL     1       3.949   4.901  19.691  0.00  0.00    +0.000 C 
BRANCH  24  25
ATOM     25  C   UNL     1       4.807   4.931  18.449  0.00  0.00    +0.000 A 
ATOM     26  C   UNL     1       4.653   3.960  17.450  0.00  0.00    +0.000 A 
ATOM     27  C   UNL     1       5.452   3.983  16.304  0.00  0.00    +0.000 A 
ATOM     28  C   UNL     1       6.412   4.983  16.138  0.00  0.00    +0.000 A 
ATOM     29 CL   UNL     1       7.375   4.946  14.704  0.00  0.00    +0.000 Cl
ATOM     30  C   UNL     1       6.565   5.968  17.120  0.00  0.00    +0.000 A 
ATOM     31 CL   UNL     1       7.729   7.238  16.985  0.00  0.00    +0.000 Cl
ATOM     32  C   UNL     1       5.762   5.942  18.266  0.00  0.00    +0.000 A 
ENDBRANCH  24  25
ENDBRANCH  22  24
ENDBRANCH   1  21
TORSDOF 5
ENDMDL
MODEL 4
REMARK VINA RESULT:      -7.7      3.752      9.859
REMARK  Name = 
REMARK  5 active torsions:
REMARK  status: ('A' for Active; 'I' for Inactive)
REMARK    1  A    between atoms: C_2  and  C_13
REMARK    2  A    between atoms: N_3  and  C_4
REMARK    3  A    between atoms: C_4  and  C_5
REMARK    4  A    between atoms: C_15  and  C_16
REMARK    5  A    between atoms: C_22  and  C_24
REMARK                            x       y       z     vdW  Elec       q    Type
REMARK                         _______ _______ _______ _____ _____    ______ ____
ROOT
ATOM      1  C   UNL     1       1.293   9.093  19.894  0.00  0.00    +0.000 A 
ATOM      2  C   UNL     1       1.584   8.004  19.038  0.00  0.00    +0.000 A 
ATOM      3  C   UNL     1       1.881   6.960  19.876  0.00  0.00    +0.000 A 
ATOM      4  O   UNL     1       1.814   7.395  21.166  0.00  0.00    +0.000 OA
ATOM      5  N   UNL     1       1.439   8.734  21.187  0.00  0.00    +0.000 NA
ENDROOT
BRANCH   3   6
ATOM      6  C   UNL     1       2.106   5.509  19.619  0.00  0.00    +0.000 C 
ATOM      7  C   UNL     1       2.054   4.778  20.982  0.00  0.00    +0.000 C 
ATOM      8  C   UNL     1       2.214   3.271  20.854  0.00  0.00    +0.000 C 
ATOM      9  C   UNL     1       3.469   2.949  20.070  0.00  0.00    +0.000 C 
ATOM     10  C   UNL     1       3.472   3.660  18.728  0.00  0.00    +0.000 C 
ATOM     11  N   UNL     1       3.310   5.117  18.846  0.00  0.00    +0.000 N 
ATOM     12  C   UNL     1       3.982   6.025  18.001  0.00  0.00    +0.000 C 
ATOM     13  O   UNL     1       3.717   7.221  17.911  0.00  0.00    +0.000 OA
BRANCH  12  14
ATOM     14  C   UNL     1       5.157   5.573  17.201  0.00  0.00    +0.000 A 
ATOM     15  C   UNL     1       5.112   5.456  15.808  0.00  0.00    +0.000 A 
ATOM     16  C   UNL     1       6.183   4.886  15.117  0.00  0.00    +0.000 A 
ATOM     17  C   UNL     1       7.345   4.536  15.802  0.00  0.00    +0.000 A 
ATOM     18  C   UNL     1       7.444   4.767  17.174  0.00  0.00    +0.000 A 
ATOM     19  C   UNL     1       6.349   5.278  17.877  0.00  0.00    +0.000 A 
ENDBRANCH  12  14
ENDBRANCH   3   6
BRANCH   1  21
ATOM     20  O   UNL     1       1.368  11.000  18.523  0.00  0.00    +0.000 OA
ATOM     21  C   UNL     1       0.848  10.416  19.471  0.00  0.00    +0.000 C 
ATOM     22  N   UNL     1      -0.203  10.945  20.190  0.00  0.00    +0.000 N 
ATOM     23  H   UNL     1      -0.597  10.374  20.929  0.00  0.00    +0.000 HD
BRANCH  22  24
ATOM     24  C   UNL     1      -0.775  12.222  19.855  0.00  0.00    +0.000 C 
BRANCH  24  25
ATOM     25  C   UNL     1      -2.181  12.087  19.324  0.00  0.00    +0.000 A 
ATOM     26  C   UNL     1      -3.279  12.502  20.092  0.00  0.00    +0.000 A 
ATOM     27  C   UNL     1      -4.581  12.370  19.603  0.00  0.00    +0.000 A 
ATOM     28  C   UNL     1      -4.804  11.827  18.336  0.00  0.00    +0.000 A 
ATOM     29 CL   UNL     1      -6.440  11.681  17.799  0.00  0.00    +0.000 Cl
ATOM     30  C   UNL     1      -3.718  11.424  17.553  0.00  0.00    +0.000 A 
ATOM     31 CL   UNL     1      -3.913  10.746  15.976  0.00  0.00    +0.000 Cl
ATOM     32  C   UNL     1      -2.414  11.559  18.045  0.00  0.00    +0.000 A 
ENDBRANCH  24  25
ENDBRANCH  22  24
ENDBRANCH   1  21
TORSDOF 5
ENDMDL
MODEL 5
REMARK VINA RESULT:      -7.6      7.030      9.954
REMARK  Name = 
REMARK  5 active torsions:
REMARK  status: ('A' for Active; 'I' for Inactive)
REMARK    1  A    between atoms: C_2  and  C_13
REMARK    2  A    between atoms: N_3  and  C_4
REMARK    3  A    between atoms: C_4  and  C_5
REMARK    4  A    between atoms: C_15  and  C_16
REMARK    5  A    between atoms: C_22  and  C_24
REMARK                            x       y       z     vdW  Elec       q    Type
REMARK                         _______ _______ _______ _____ _____    ______ ____
ROOT
ATOM      1  C   UNL     1       8.052   8.747  18.058  0.00  0.00    +0.000 A 
ATOM      2  C   UNL     1       8.179   7.338  18.082  0.00  0.00    +0.000 A 
ATOM      3  C   UNL     1       7.215   6.879  17.222  0.00  0.00    +0.000 A 
ATOM      4  O   UNL     1       6.515   7.940  16.733  0.00  0.00    +0.000 OA
ATOM      5  N   UNL     1       7.038   9.121  17.249  0.00  0.00    +0.000 NA
ENDROOT
BRANCH   3   6
ATOM      6  C   UNL     1       6.933   5.520  16.677  0.00  0.00    +0.000 C 
ATOM      7  C   UNL     1       7.014   5.609  15.134  0.00  0.00    +0.000 C 
ATOM      8  C   UNL     1       6.800   4.267  14.450  0.00  0.00    +0.000 C 
ATOM      9  C   UNL     1       5.505   3.644  14.928  0.00  0.00    +0.000 C 
ATOM     10  C   UNL     1       5.473   3.547  16.443  0.00  0.00    +0.000 C 
ATOM     11  N   UNL     1       5.687   4.840  17.110  0.00  0.00    +0.000 N 
ATOM     12  C   UNL     1       5.012   5.203  18.294  0.00  0.00    +0.000 C 
ATOM     13  O   UNL     1       5.313   6.160  19.002  0.00  0.00    +0.000 OA
BRANCH  12  14
ATOM     14  C   UNL     1       3.793   4.456  18.719  0.00  0.00    +0.000 A 
ATOM     15  C   UNL     1       2.537   4.690  18.148  0.00  0.00    +0.000 A 
ATOM     16  C   UNL     1       1.401   4.079  18.679  0.00  0.00    +0.000 A 
ATOM     17  C   UNL     1       1.529   3.147  19.707  0.00  0.00    +0.000 A 
ATOM     18  C   UNL     1       2.792   2.814  20.196  0.00  0.00    +0.000 A 
ATOM     19  C   UNL     1       3.925   3.473  19.709  0.00  0.00    +0.000 A 
ENDBRANCH  12  14
ENDBRANCH   3   6
BRANCH   1  21
ATOM     20  O   UNL     1       9.047   9.661  19.981  0.00  0.00    +0.000 OA
ATOM     21  C   UNL     1       8.911   9.694  18.760  0.00  0.00    +0.000 C 
ATOM     22  N   UNL     1       9.572  10.601  17.959  0.00  0.00    +0.000 N 
ATOM     23  H   UNL     1       9.432  10.528  16.958  0.00  0.00    +0.000 HD
BRANCH  22  24
ATOM     24  C   UNL     1      10.488  11.564  18.512  0.00  0.00    +0.000 C 
BRANCH  24  25
ATOM     25  C   UNL     1       9.929  12.965  18.461  0.00  0.00    +0.000 A 
ATOM     26  C   UNL     1       8.790  13.308  19.204  0.00  0.00    +0.000 A 
ATOM     27  C   UNL     1       8.268  14.603  19.152  0.00  0.00    +0.000 A 
ATOM     28  C   UNL     1       8.883  15.577  18.361  0.00  0.00    +0.000 A 
ATOM     29 CL   UNL     1       8.179  17.154  18.332  0.00  0.00    +0.000 Cl
ATOM     30  C   UNL     1      10.029  15.252  17.628  0.00  0.00    +0.000 A 
ATOM     31 CL   UNL     1      10.846  16.401  16.629  0.00  0.00    +0.000 Cl
ATOM     32  C   UNL     1      10.550  13.954  17.683  0.00  0.00    +0.000 A 
ENDBRANCH  24  25
ENDBRANCH  22  24
ENDBRANCH   1  21
TORSDOF 5
ENDMDL
MODEL 6
REMARK VINA RESULT:      -7.6      6.669      9.885
REMARK  Name = 
REMARK  5 active torsions:
REMARK  status: ('A' for Active; 'I' for Inactive)
REMARK    1  A    between atoms: C_2  and  C_13
REMARK    2  A    between atoms: N_3  and  C_4
REMARK    3  A    between atoms: C_4  and  C_5
REMARK    4  A    between atoms: C_15  and  C_16
REMARK    5  A    between atoms: C_22  and  C_24
REMARK                            x       y       z     vdW  Elec       q    Type
REMARK                         _______ _______ _______ _____ _____    ______ ____
ROOT
ATOM      1  C   UNL     1       8.010   8.755  18.033  0.00  0.00    +0.000 A 
ATOM      2  C   UNL     1       8.146   7.350  18.120  0.00  0.00    +0.000 A 
ATOM      3  C   UNL     1       7.161   6.845  17.311  0.00  0.00    +0.000 A 
ATOM      4  O   UNL     1       6.441   7.879  16.791  0.00  0.00    +0.000 OA
ATOM      5  N   UNL     1       6.972   9.085  17.236  0.00  0.00    +0.000 NA
ENDROOT
BRANCH   3   6
ATOM      6  C   UNL     1       6.872   5.460  16.838  0.00  0.00    +0.000 C 
ATOM      7  C   UNL     1       6.905   5.477  15.291  0.00  0.00    +0.000 C 
ATOM      8  C   UNL     1       6.680   4.104  14.678  0.00  0.00    +0.000 C 
ATOM      9  C   UNL     1       5.404   3.496  15.224  0.00  0.00    +0.000 C 
ATOM     10  C   UNL     1       5.419   3.471  16.742  0.00  0.00    +0.000 C 
ATOM     11  N   UNL     1       5.645   4.795  17.341  0.00  0.00    +0.000 N 
ATOM     12  C   UNL     1       5.003   5.209  18.527  0.00  0.00    +0.000 C 
ATOM     13  O   UNL     1       5.319   6.201  19.179  0.00  0.00    +0.000 OA
BRANCH  12  14
ATOM     14  C   UNL     1       3.802   4.477  19.023  0.00  0.00    +0.000 A 
ATOM     15  C   UNL     1       3.903   3.307  19.784  0.00  0.00    +0.000 A 
ATOM     16  C   UNL     1       2.757   2.574  20.096  0.00  0.00    +0.000 A 
ATOM     17  C   UNL     1       1.500   3.067  19.750  0.00  0.00    +0.000 A 
ATOM     18  C   UNL     1       1.386   4.297  19.102  0.00  0.00    +0.000 A 
ATOM     19  C   UNL     1       2.536   5.000  18.731  0.00  0.00    +0.000 A 
ENDBRANCH  12  14
ENDBRANCH   3   6
BRANCH   1  21
ATOM     20  O   UNL     1       9.196   9.656  19.850  0.00  0.00    +0.000 OA
ATOM     21  C   UNL     1       8.883   9.738  18.665  0.00  0.00    +0.000 C 
ATOM     22  N   UNL     1       9.345  10.739  17.837  0.00  0.00    +0.000 N 
ATOM     23  H   UNL     1       9.068  10.704  16.862  0.00  0.00    +0.000 HD
BRANCH  22  24
ATOM     24  C   UNL     1      10.251  11.751  18.314  0.00  0.00    +0.000 C 
BRANCH  24  25
ATOM     25  C   UNL     1       9.618  13.121  18.307  0.00  0.00    +0.000 A 
ATOM     26  C   UNL     1      10.386  14.264  18.571  0.00  0.00    +0.000 A 
ATOM     27  C   UNL     1       9.799  15.532  18.572  0.00  0.00    +0.000 A 
ATOM     28  C   UNL     1       8.436  15.675  18.302  0.00  0.00    +0.000 A 
ATOM     29 CL   UNL     1       7.772  17.270  18.332  0.00  0.00    +0.000 Cl
ATOM     30  C   UNL     1       7.663  14.545  18.021  0.00  0.00    +0.000 A 
ATOM     31 CL   UNL     1       5.973  14.641  17.676  0.00  0.00    +0.000 Cl
ATOM     32  C   UNL     1       8.254  13.276  18.020  0.00  0.00    +0.000 A 
ENDBRANCH  24  25
ENDBRANCH  22  24
ENDBRANCH   1  21
TORSDOF 5
ENDMDL
MODEL 7
REMARK VINA RESULT:      -7.6      4.146      9.858
REMARK  Name = 
REMARK  5 active torsions:
REMARK  status: ('A' for Active; 'I' for Inactive)
REMARK    1  A    between atoms: C_2  and  C_13
REMARK    2  A    between atoms: N_3  and  C_4
REMARK    3  A    between atoms: C_4  and  C_5
REMARK    4  A    between atoms: C_15  and  C_16
REMARK    5  A    between atoms: C_22  and  C_24
REMARK                            x       y       z     vdW  Elec       q    Type
REMARK                         _______ _______ _______ _____ _____    ______ ____
ROOT
ATOM      1  C   UNL     1       1.179   9.047  20.245  0.00  0.00    +0.000 A 
ATOM      2  C   UNL     1       1.285   8.021  19.277  0.00  0.00    +0.000 A 
ATOM      3  C   UNL     1       1.743   6.927  19.966  0.00  0.00    +0.000 A 
ATOM      4  O   UNL     1       1.942   7.275  21.268  0.00  0.00    +0.000 OA
ATOM      5  N   UNL     1       1.583   8.606  21.455  0.00  0.00    +0.000 NA
ENDROOT
BRANCH   3   6
ATOM      6  C   UNL     1       1.907   5.498  19.572  0.00  0.00    +0.000 C 
ATOM      7  C   UNL     1       1.744   4.639  20.848  0.00  0.00    +0.000 C 
ATOM      8  C   UNL     1       1.833   3.146  20.574  0.00  0.00    +0.000 C 
ATOM      9  C   UNL     1       3.110   2.833  19.822  0.00  0.00    +0.000 C 
ATOM     10  C   UNL     1       3.222   3.673  18.563  0.00  0.00    +0.000 C 
ATOM     11  N   UNL     1       3.129   5.118  18.822  0.00  0.00    +0.000 N 
ATOM     12  C   UNL     1       3.891   6.066  18.107  0.00  0.00    +0.000 C 
ATOM     13  O   UNL     1       3.693   7.278  18.129  0.00  0.00    +0.000 OA
BRANCH  12  14
ATOM     14  C   UNL     1       5.083   5.630  17.323  0.00  0.00    +0.000 A 
ATOM     15  C   UNL     1       5.085   5.597  15.924  0.00  0.00    +0.000 A 
ATOM     16  C   UNL     1       6.164   5.040  15.238  0.00  0.00    +0.000 A 
ATOM     17  C   UNL     1       7.292   4.619  15.940  0.00  0.00    +0.000 A 
ATOM     18  C   UNL     1       7.348   4.766  17.326  0.00  0.00    +0.000 A 
ATOM     19  C   UNL     1       6.242   5.264  18.021  0.00  0.00    +0.000 A 
ENDBRANCH  12  14
ENDBRANCH   3   6
BRANCH   1  21
ATOM     20  O   UNL     1       0.935  11.328  20.756  0.00  0.00    +0.000 OA
ATOM     21  C   UNL     1       0.661  10.391  20.011  0.00  0.00    +0.000 C 
ATOM     22  N   UNL     1      -0.129  10.534  18.889  0.00  0.00    +0.000 N 
ATOM     23  H   UNL     1      -0.268   9.714  18.309  0.00  0.00    +0.000 HD
BRANCH  22  24
ATOM     24  C   UNL     1      -0.671  11.812  18.509  0.00  0.00    +0.000 C 
BRANCH  24  25
ATOM     25  C   UNL     1      -2.173  11.767  18.370  0.00  0.00    +0.000 A 
ATOM     26  C   UNL     1      -2.768  11.321  17.181  0.00  0.00    +0.000 A 
ATOM     27  C   UNL     1      -4.158  11.287  17.049  0.00  0.00    +0.000 A 
ATOM     28  C   UNL     1      -4.974  11.692  18.107  0.00  0.00    +0.000 A 
ATOM     29 CL   UNL     1      -6.685  11.637  17.873  0.00  0.00    +0.000 Cl
ATOM     30  C   UNL     1      -4.394  12.125  19.304  0.00  0.00    +0.000 A 
ATOM     31 CL   UNL     1      -5.336  12.640  20.658  0.00  0.00    +0.000 Cl
ATOM     32  C   UNL     1      -3.000  12.157  19.434  0.00  0.00    +0.000 A 
ENDBRANCH  24  25
ENDBRANCH  22  24
ENDBRANCH   1  21
TORSDOF 5
ENDMDL
MODEL 8
REMARK VINA RESULT:      -7.5      7.008      9.811
REMARK  Name = 
REMARK  5 active torsions:
REMARK  status: ('A' for Active; 'I' for Inactive)
REMARK    1  A    between atoms: C_2  and  C_13
REMARK    2  A    between atoms: N_3  and  C_4
REMARK    3  A    between atoms: C_4  and  C_5
REMARK    4  A    between atoms: C_15  and  C_16
REMARK    5  A    between atoms: C_22  and  C_24
REMARK                            x       y       z     vdW  Elec       q    Type
REMARK                         _______ _______ _______ _____ _____    ______ ____
ROOT
ATOM      1  C   UNL     1       8.042   8.788  18.041  0.00  0.00    +0.000 A 
ATOM      2  C   UNL     1       8.146   7.380  18.132  0.00  0.00    +0.000 A 
ATOM      3  C   UNL     1       7.152   6.895  17.321  0.00  0.00    +0.000 A 
ATOM      4  O   UNL     1       6.458   7.944  16.796  0.00  0.00    +0.000 OA
ATOM      5  N   UNL     1       7.015   9.139  17.239  0.00  0.00    +0.000 NA
ENDROOT
BRANCH   3   6
ATOM      6  C   UNL     1       6.833   5.517  16.851  0.00  0.00    +0.000 C 
ATOM      7  C   UNL     1       7.015   5.492  15.315  0.00  0.00    +0.000 C 
ATOM      8  C   UNL     1       6.774   4.117  14.710  0.00  0.00    +0.000 C 
ATOM      9  C   UNL     1       5.421   3.593  15.143  0.00  0.00    +0.000 C 
ATOM     10  C   UNL     1       5.289   3.605  16.655  0.00  0.00    +0.000 C 
ATOM     11  N   UNL     1       5.529   4.931  17.246  0.00  0.00    +0.000 N 
ATOM     12  C   UNL     1       4.801   5.409  18.356  0.00  0.00    +0.000 C 
ATOM     13  O   UNL     1       5.107   6.398  19.015  0.00  0.00    +0.000 OA
BRANCH  12  14
ATOM     14  C   UNL     1       3.520   4.754  18.748  0.00  0.00    +0.000 A 
ATOM     15  C   UNL     1       3.320   4.207  20.020  0.00  0.00    +0.000 A 
ATOM     16  C   UNL     1       2.165   3.473  20.293  0.00  0.00    +0.000 A 
ATOM     17  C   UNL     1       1.157   3.379  19.335  0.00  0.00    +0.000 A 
ATOM     18  C   UNL     1       1.296   4.029  18.109  0.00  0.00    +0.000 A 
ATOM     19  C   UNL     1       2.480   4.711  17.810  0.00  0.00    +0.000 A 
ENDBRANCH  12  14
ENDBRANCH   3   6
BRANCH   1  21
ATOM     20  O   UNL     1       9.190   9.706  19.875  0.00  0.00    +0.000 OA
ATOM     21  C   UNL     1       8.935   9.752  18.674  0.00  0.00    +0.000 C 
ATOM     22  N   UNL     1       9.485  10.693  17.829  0.00  0.00    +0.000 N 
ATOM     23  H   UNL     1       9.251  10.630  16.844  0.00  0.00    +0.000 HD
BRANCH  22  24
ATOM     24  C   UNL     1      10.419  11.678  18.307  0.00  0.00    +0.000 C 
BRANCH  24  25
ATOM     25  C   UNL     1       9.823  13.064  18.308  0.00  0.00    +0.000 A 
ATOM     26  C   UNL     1       8.461  13.258  18.040  0.00  0.00    +0.000 A 
ATOM     27  C   UNL     1       7.910  14.542  18.034  0.00  0.00    +0.000 A 
ATOM     28  C   UNL     1       8.714  15.651  18.304  0.00  0.00    +0.000 A 
ATOM     29 CL   UNL     1       7.973  17.211  18.268  0.00  0.00    +0.000 Cl
ATOM     30  C   UNL     1      10.072  15.471  18.589  0.00  0.00    +0.000 A 
ATOM     31 CL   UNL     1      11.129  16.793  18.934  0.00  0.00    +0.000 Cl
ATOM     32  C   UNL     1      10.620  14.183  18.595  0.00  0.00    +0.000 A 
ENDBRANCH  24  25
ENDBRANCH  22  24
ENDBRANCH   1  21
TORSDOF 5
ENDMDL
MODEL 9
REMARK VINA RESULT:      -7.5      3.721      9.742
REMARK  Name = 
REMARK  5 active torsions:
REMARK  status: ('A' for Active; 'I' for Inactive)
REMARK    1  A    between atoms: C_2  and  C_13
REMARK    2  A    between atoms: N_3  and  C_4
REMARK    3  A    between atoms: C_4  and  C_5
REMARK    4  A    between atoms: C_15  and  C_16
REMARK    5  A    between atoms: C_22  and  C_24
REMARK                            x       y       z     vdW  Elec       q    Type
REMARK                         _______ _______ _______ _____ _____    ______ ____
ROOT
ATOM      1  C   UNL     1       1.340   8.709  20.484  0.00  0.00    +0.000 A 
ATOM      2  C   UNL     1       1.398   7.743  19.451  0.00  0.00    +0.000 A 
ATOM      3  C   UNL     1       1.799   6.586  20.067  0.00  0.00    +0.000 A 
ATOM      4  O   UNL     1       2.011   6.838  21.389  0.00  0.00    +0.000 OA
ATOM      5  N   UNL     1       1.719   8.170  21.662  0.00  0.00    +0.000 NA
ENDROOT
BRANCH   3   6
ATOM      6  C   UNL     1       1.891   5.179  19.581  0.00  0.00    +0.000 C 
ATOM      7  C   UNL     1       1.671   4.248  20.797  0.00  0.00    +0.000 C 
ATOM      8  C   UNL     1       1.684   2.773  20.426  0.00  0.00    +0.000 C 
ATOM      9  C   UNL     1       2.951   2.444  19.663  0.00  0.00    +0.000 C 
ATOM     10  C   UNL     1       3.119   3.357  18.463  0.00  0.00    +0.000 C 
ATOM     11  N   UNL     1       3.099   4.785  18.815  0.00  0.00    +0.000 N 
ATOM     12  C   UNL     1       3.917   5.736  18.171  0.00  0.00    +0.000 C 
ATOM     13  O   UNL     1       3.783   6.953  18.270  0.00  0.00    +0.000 OA
BRANCH  12  14
ATOM     14  C   UNL     1       5.092   5.290  17.367  0.00  0.00    +0.000 A 
ATOM     15  C   UNL     1       6.280   4.849  17.961  0.00  0.00    +0.000 A 
ATOM     16  C   UNL     1       7.402   4.586  17.174  0.00  0.00    +0.000 A 
ATOM     17  C   UNL     1       7.308   4.653  15.786  0.00  0.00    +0.000 A 
ATOM     18  C   UNL     1       6.091   4.969  15.181  0.00  0.00    +0.000 A 
ATOM     19  C   UNL     1       4.984   5.296  15.970  0.00  0.00    +0.000 A 
ENDBRANCH  12  14
ENDBRANCH   3   6
BRANCH   1  21
ATOM     20  O   UNL     1       1.196  10.957  21.152  0.00  0.00    +0.000 OA
ATOM     21  C   UNL     1       0.891  10.089  20.338  0.00  0.00    +0.000 C 
ATOM     22  N   UNL     1       0.128  10.348  19.218  0.00  0.00    +0.000 N 
ATOM     23  H   UNL     1      -0.039   9.579  18.579  0.00  0.00    +0.000 HD
BRANCH  22  24
ATOM     24  C   UNL     1      -0.345  11.674  18.922  0.00  0.00    +0.000 C 
BRANCH  24  25
ATOM     25  C   UNL     1      -1.808  11.680  18.551  0.00  0.00    +0.000 A 
ATOM     26  C   UNL     1      -2.774  12.142  19.457  0.00  0.00    +0.000 A 
ATOM     27  C   UNL     1      -4.129  12.141  19.117  0.00  0.00    +0.000 A 
ATOM     28  C   UNL     1      -4.537  11.683  17.862  0.00  0.00    +0.000 A 
ATOM     29 CL   UNL     1      -6.229  11.696  17.511  0.00  0.00    +0.000 Cl
ATOM     30  C   UNL     1      -3.583  11.233  16.944  0.00  0.00    +0.000 A 
ATOM     31 CL   UNL     1      -4.010  10.654  15.373  0.00  0.00    +0.000 Cl
ATOM     32  C   UNL     1      -2.226  11.237  17.287  0.00  0.00    +0.000 A 
ENDBRANCH  24  25
ENDBRANCH  22  24
ENDBRANCH   1  21
TORSDOF 5
ENDMDL
