MODEL 1
REMARK VINA RESULT:      -6.3      0.000      0.000
REMARK  Name = 
REMARK  5 active torsions:
REMARK  status: ('A' for Active; 'I' for Inactive)
REMARK    1  A    between atoms: C_2  and  C_3
REMARK    2  A    between atoms: C_4  and  N_5
REMARK    3  A    between atoms: N_6  and  C_7
REMARK    4  A    between atoms: C_16  and  C_17
REMARK    5  A    between atoms: C_20  and  O_21
REMARK                            x       y       z     vdW  Elec       q    Type
REMARK                         _______ _______ _______ _____ _____    ______ ____
ROOT
ATOM      1  C   UNL     1      -2.151  11.557  18.667  0.00  0.00    +0.000 C 
ATOM      2  C   UNL     1      -3.196  12.132  19.337  0.00  0.00    +0.000 C 
ATOM      3  N   UNL     1      -2.945  13.057  20.438  0.00  0.00    +0.000 N 
ATOM      4  C   UNL     1      -1.591  13.386  20.741  0.00  0.00    +0.000 C 
ATOM      5  C   UNL     1      -0.560  12.822  20.087  0.00  0.00    +0.000 C 
ATOM      6  C   UNL     1      -0.695  11.809  19.006  0.00  0.00    +0.000 C 
ATOM      7  S   UNL     1       0.975  13.405  20.575  0.00  0.00    +0.000 S 
ATOM      8  O   UNL     1       1.493  14.288  19.548  0.00  0.00    +0.000 OA
ATOM      9  O   UNL     1       1.789  12.351  21.149  0.00  0.00    +0.000 OA
ATOM     10  C   UNL     1       0.375  14.390  21.914  0.00  0.00    +0.000 C 
ATOM     11  C   UNL     1      -1.145  14.345  21.831  0.00  0.00    +0.000 C 
ENDROOT
BRANCH   3  12
ATOM     12  C   UNL     1      -4.053  13.565  21.240  0.00  0.00    +0.000 A 
ATOM     13  C   UNL     1      -4.697  14.784  20.935  0.00  0.00    +0.000 A 
ATOM     14  C   UNL     1      -5.743  15.292  21.722  0.00  0.00    +0.000 A 
ATOM     15  C   UNL     1      -6.228  14.547  22.785  0.00  0.00    +0.000 A 
ATOM     16  F   UNL     1      -7.250  15.006  23.514  0.00  0.00    +0.000 F 
ATOM     17  C   UNL     1      -5.644  13.336  23.106  0.00  0.00    +0.000 A 
ATOM     18  C   UNL     1      -4.537  12.885  22.375  0.00  0.00    +0.000 A 
ENDBRANCH   3  12
BRANCH   6  19
ATOM     19  C   UNL     1       0.028  10.518  19.371  0.00  0.00    +0.000 A 
ATOM     20  C   UNL     1      -0.248   9.853  20.583  0.00  0.00    +0.000 A 
ATOM     21  C   UNL     1       0.498   8.738  20.963  0.00  0.00    +0.000 A 
ATOM     22  C   UNL     1       1.508   8.273  20.129  0.00  0.00    +0.000 A 
ATOM     23  C   UNL     1       1.769   8.891  18.914  0.00  0.00    +0.000 A 
ATOM     24  C   UNL     1       1.033  10.014  18.534  0.00  0.00    +0.000 A 
BRANCH  22  25
ATOM     25  O   UNL     1       2.282   7.208  20.481  0.00  0.00    +0.000 OA
ATOM     26  H   UNL     1       2.071   6.469  19.887  0.00  0.00    +0.000 HD
ENDBRANCH  22  25
ENDBRANCH   6  19
BRANCH   2  27
ATOM     27  N   UNL     1      -4.494  11.836  18.930  0.00  0.00    +0.000 N 
ATOM     28  H   UNL     1      -4.632  10.975  18.404  0.00  0.00    +0.000 HD
ATOM     29  H   UNL     1      -4.956  12.624  18.484  0.00  0.00    +0.000 HD
ENDBRANCH   2  27
BRANCH   1  31
ATOM     30  N   UNL     1      -2.606   9.774  16.582  0.00  0.00    +0.000 NA
ATOM     31  C   UNL     1      -2.399  10.583  17.528  0.00  0.00    +0.000 C 
ENDBRANCH   1  31
TORSDOF 5
ENDMDL
MODEL 2
REMARK VINA RESULT:      -6.2      0.268      1.313
REMARK  Name = 
REMARK  5 active torsions:
REMARK  status: ('A' for Active; 'I' for Inactive)
REMARK    1  A    between atoms: C_2  and  C_3
REMARK    2  A    between atoms: C_4  and  N_5
REMARK    3  A    between atoms: N_6  and  C_7
REMARK    4  A    between atoms: C_16  and  C_17
REMARK    5  A    between atoms: C_20  and  O_21
REMARK                            x       y       z     vdW  Elec       q    Type
REMARK                         _______ _______ _______ _____ _____    ______ ____
ROOT
ATOM      1  C   UNL     1      -1.894  11.617  18.646  0.00  0.00    +0.000 C 
ATOM      2  C   UNL     1      -2.958  12.145  19.326  0.00  0.00    +0.000 C 
ATOM      3  N   UNL     1      -2.739  13.087  20.418  0.00  0.00    +0.000 N 
ATOM      4  C   UNL     1      -1.400  13.483  20.704  0.00  0.00    +0.000 C 
ATOM      5  C   UNL     1      -0.350  12.966  20.041  0.00  0.00    +0.000 C 
ATOM      6  C   UNL     1      -0.448  11.942  18.967  0.00  0.00    +0.000 C 
ATOM      7  S   UNL     1       1.160  13.625  20.508  0.00  0.00    +0.000 S 
ATOM      8  O   UNL     1       1.623  14.526  19.470  0.00  0.00    +0.000 OA
ATOM      9  O   UNL     1       2.031  12.615  21.078  0.00  0.00    +0.000 OA
ATOM     10  C   UNL     1       0.528  14.588  21.849  0.00  0.00    +0.000 C 
ATOM     11  C   UNL     1      -0.988  14.469  21.784  0.00  0.00    +0.000 C 
ENDROOT
BRANCH   3  12
ATOM     12  C   UNL     1      -3.861  13.545  21.231  0.00  0.00    +0.000 A 
ATOM     13  C   UNL     1      -4.307  12.825  22.361  0.00  0.00    +0.000 A 
ATOM     14  C   UNL     1      -5.406  13.246  23.128  0.00  0.00    +0.000 A 
ATOM     15  C   UNL     1      -6.031  14.446  22.832  0.00  0.00    +0.000 A 
ATOM     16  F   UNL     1      -7.052  14.872  23.583  0.00  0.00    +0.000 F 
ATOM     17  C   UNL     1      -5.613  15.197  21.750  0.00  0.00    +0.000 A 
ATOM     18  C   UNL     1      -4.581  14.719  20.932  0.00  0.00    +0.000 A 
ENDBRANCH   3  12
BRANCH   6  19
ATOM     19  C   UNL     1       0.341  10.689  19.330  0.00  0.00    +0.000 A 
ATOM     20  C   UNL     1       1.288  10.147  18.436  0.00  0.00    +0.000 A 
ATOM     21  C   UNL     1       1.920   8.939  18.723  0.00  0.00    +0.000 A 
ATOM     22  C   UNL     1       1.624   8.276  19.909  0.00  0.00    +0.000 A 
ATOM     23  C   UNL     1       0.724   8.812  20.819  0.00  0.00    +0.000 A 
ATOM     24  C   UNL     1       0.080  10.016  20.531  0.00  0.00    +0.000 A 
BRANCH  22  25
ATOM     25  O   UNL     1       2.195   7.076  20.210  0.00  0.00    +0.000 OA
ATOM     26  H   UNL     1       2.679   6.765  19.426  0.00  0.00    +0.000 HD
ENDBRANCH  22  25
ENDBRANCH   6  19
BRANCH   2  27
ATOM     27  N   UNL     1      -4.244  11.783  18.935  0.00  0.00    +0.000 N 
ATOM     28  H   UNL     1      -4.882  12.535  18.680  0.00  0.00    +0.000 HD
ATOM     29  H   UNL     1      -4.680  11.125  19.576  0.00  0.00    +0.000 HD
ENDBRANCH   2  27
BRANCH   1  31
ATOM     30  N   UNL     1      -2.285   9.802  16.577  0.00  0.00    +0.000 NA
ATOM     31  C   UNL     1      -2.108  10.625  17.515  0.00  0.00    +0.000 C 
ENDBRANCH   1  31
TORSDOF 5
ENDMDL
MODEL 3
REMARK VINA RESULT:      -6.0      4.120      7.456
REMARK  Name = 
REMARK  5 active torsions:
REMARK  status: ('A' for Active; 'I' for Inactive)
REMARK    1  A    between atoms: C_2  and  C_3
REMARK    2  A    between atoms: C_4  and  N_5
REMARK    3  A    between atoms: N_6  and  C_7
REMARK    4  A    between atoms: C_16  and  C_17
REMARK    5  A    between atoms: C_20  and  O_21
REMARK                            x       y       z     vdW  Elec       q    Type
REMARK                         _______ _______ _______ _____ _____    ______ ____
ROOT
ATOM      1  C   UNL     1      -0.840  13.184  20.005  0.00  0.00    +0.000 C 
ATOM      2  C   UNL     1       0.080  12.189  19.814  0.00  0.00    +0.000 C 
ATOM      3  N   UNL     1      -0.317  10.929  19.193  0.00  0.00    +0.000 N 
ATOM      4  C   UNL     1      -1.662  10.800  18.739  0.00  0.00    +0.000 C 
ATOM      5  C   UNL     1      -2.571  11.774  18.926  0.00  0.00    +0.000 C 
ATOM      6  C   UNL     1      -2.300  13.063  19.617  0.00  0.00    +0.000 C 
ATOM      7  S   UNL     1      -4.107  11.430  18.252  0.00  0.00    +0.000 S 
ATOM      8  O   UNL     1      -4.283  12.223  17.051  0.00  0.00    +0.000 OA
ATOM      9  O   UNL     1      -5.136  11.361  19.272  0.00  0.00    +0.000 OA
ATOM     10  C   UNL     1      -3.727   9.769  17.779  0.00  0.00    +0.000 C 
ATOM     11  C   UNL     1      -2.242   9.576  18.052  0.00  0.00    +0.000 C 
ENDROOT
BRANCH   3  12
ATOM     12  C   UNL     1       0.627   9.819  19.112  0.00  0.00    +0.000 A 
ATOM     13  C   UNL     1       0.874   8.968  20.212  0.00  0.00    +0.000 A 
ATOM     14  C   UNL     1       1.804   7.918  20.149  0.00  0.00    +0.000 A 
ATOM     15  C   UNL     1       2.445   7.640  18.954  0.00  0.00    +0.000 A 
ATOM     16  F   UNL     1       3.302   6.616  18.875  0.00  0.00    +0.000 F 
ATOM     17  C   UNL     1       2.216   8.430  17.843  0.00  0.00    +0.000 A 
ATOM     18  C   UNL     1       1.362   9.536  17.945  0.00  0.00    +0.000 A 
ENDBRANCH   3  12
BRANCH   6  19
ATOM     19  C   UNL     1      -3.218  13.245  20.821  0.00  0.00    +0.000 A 
ATOM     20  C   UNL     1      -4.183  14.273  20.845  0.00  0.00    +0.000 A 
ATOM     21  C   UNL     1      -4.938  14.506  21.993  0.00  0.00    +0.000 A 
ATOM     22  C   UNL     1      -4.745  13.705  23.113  0.00  0.00    +0.000 A 
ATOM     23  C   UNL     1      -3.827  12.665  23.096  0.00  0.00    +0.000 A 
ATOM     24  C   UNL     1      -3.061  12.434  21.953  0.00  0.00    +0.000 A 
BRANCH  22  25
ATOM     25  O   UNL     1      -5.438  13.924  24.266  0.00  0.00    +0.000 OA
ATOM     26  H   UNL     1      -5.613  14.877  24.339  0.00  0.00    +0.000 HD
ENDBRANCH  22  25
ENDBRANCH   6  19
BRANCH   2  27
ATOM     27  N   UNL     1       1.398  12.416  20.200  0.00  0.00    +0.000 N 
ATOM     28  H   UNL     1       1.557  12.725  21.157  0.00  0.00    +0.000 HD
ATOM     29  H   UNL     1       1.910  12.988  19.533  0.00  0.00    +0.000 HD
ENDBRANCH   2  27
BRANCH   1  31
ATOM     30  N   UNL     1      -0.112  15.583  21.207  0.00  0.00    +0.000 NA
ATOM     31  C   UNL     1      -0.442  14.495  20.662  0.00  0.00    +0.000 C 
ENDBRANCH   1  31
TORSDOF 5
ENDMDL
MODEL 4
REMARK VINA RESULT:      -5.9      9.648     11.812
REMARK  Name = 
REMARK  5 active torsions:
REMARK  status: ('A' for Active; 'I' for Inactive)
REMARK    1  A    between atoms: C_2  and  C_3
REMARK    2  A    between atoms: C_4  and  N_5
REMARK    3  A    between atoms: N_6  and  C_7
REMARK    4  A    between atoms: C_16  and  C_17
REMARK    5  A    between atoms: C_20  and  O_21
REMARK                            x       y       z     vdW  Elec       q    Type
REMARK                         _______ _______ _______ _____ _____    ______ ____
ROOT
ATOM      1  C   UNL     1       9.497  13.080  19.653  0.00  0.00    +0.000 C 
ATOM      2  C   UNL     1       9.160  12.611  20.893  0.00  0.00    +0.000 C 
ATOM      3  N   UNL     1       8.104  13.260  21.663  0.00  0.00    +0.000 N 
ATOM      4  C   UNL     1       7.401  14.343  21.057  0.00  0.00    +0.000 C 
ATOM      5  C   UNL     1       7.731  14.809  19.839  0.00  0.00    +0.000 C 
ATOM      6  C   UNL     1       8.839  14.279  19.001  0.00  0.00    +0.000 C 
ATOM      7  S   UNL     1       6.720  16.075  19.283  0.00  0.00    +0.000 S 
ATOM      8  O   UNL     1       5.831  15.556  18.262  0.00  0.00    +0.000 OA
ATOM      9  O   UNL     1       7.463  17.305  19.086  0.00  0.00    +0.000 OA
ATOM     10  C   UNL     1       5.809  16.250  20.788  0.00  0.00    +0.000 C 
ATOM     11  C   UNL     1       6.262  15.117  21.697  0.00  0.00    +0.000 C 
ENDROOT
BRANCH   3  12
ATOM     12  C   UNL     1       7.835  12.848  23.037  0.00  0.00    +0.000 A 
ATOM     13  C   UNL     1       6.873  11.862  23.345  0.00  0.00    +0.000 A 
ATOM     14  C   UNL     1       6.588  11.485  24.668  0.00  0.00    +0.000 A 
ATOM     15  C   UNL     1       7.324  12.025  25.709  0.00  0.00    +0.000 A 
ATOM     16  F   UNL     1       7.087  11.640  26.968  0.00  0.00    +0.000 F 
ATOM     17  C   UNL     1       8.295  12.976  25.454  0.00  0.00    +0.000 A 
ATOM     18  C   UNL     1       8.501  13.417  24.140  0.00  0.00    +0.000 A 
ENDBRANCH   3  12
BRANCH   6  19
ATOM     19  C   UNL     1       9.854  15.370  18.678  0.00  0.00    +0.000 A 
ATOM     20  C   UNL     1      10.564  16.023  19.707  0.00  0.00    +0.000 A 
ATOM     21  C   UNL     1      11.404  17.097  19.415  0.00  0.00    +0.000 A 
ATOM     22  C   UNL     1      11.549  17.512  18.096  0.00  0.00    +0.000 A 
ATOM     23  C   UNL     1      10.888  16.858  17.066  0.00  0.00    +0.000 A 
ATOM     24  C   UNL     1      10.039  15.790  17.354  0.00  0.00    +0.000 A 
BRANCH  22  25
ATOM     25  O   UNL     1      12.333  18.580  17.774  0.00  0.00    +0.000 OA
ATOM     26  H   UNL     1      13.257  18.282  17.746  0.00  0.00    +0.000 HD
ENDBRANCH  22  25
ENDBRANCH   6  19
BRANCH   2  27
ATOM     27  N   UNL     1       9.826  11.492  21.388  0.00  0.00    +0.000 N 
ATOM     28  H   UNL     1       9.792  10.644  20.826  0.00  0.00    +0.000 HD
ATOM     29  H   UNL     1       9.607  11.304  22.362  0.00  0.00    +0.000 HD
ENDBRANCH   2  27
BRANCH   1  31
ATOM     30  N   UNL     1      11.523  11.874  18.178  0.00  0.00    +0.000 NA
ATOM     31  C   UNL     1      10.604  12.421  18.847  0.00  0.00    +0.000 C 
ENDBRANCH   1  31
TORSDOF 5
ENDMDL
MODEL 5
REMARK VINA RESULT:      -5.9      0.901      1.611
REMARK  Name = 
REMARK  5 active torsions:
REMARK  status: ('A' for Active; 'I' for Inactive)
REMARK    1  A    between atoms: C_2  and  C_3
REMARK    2  A    between atoms: C_4  and  N_5
REMARK    3  A    between atoms: N_6  and  C_7
REMARK    4  A    between atoms: C_16  and  C_17
REMARK    5  A    between atoms: C_20  and  O_21
REMARK                            x       y       z     vdW  Elec       q    Type
REMARK                         _______ _______ _______ _____ _____    ______ ____
ROOT
ATOM      1  C   UNL     1      -2.604  12.135  19.135  0.00  0.00    +0.000 C 
ATOM      2  C   UNL     1      -3.675  12.496  19.905  0.00  0.00    +0.000 C 
ATOM      3  N   UNL     1      -3.482  13.320  21.094  0.00  0.00    +0.000 N 
ATOM      4  C   UNL     1      -2.165  13.784  21.381  0.00  0.00    +0.000 C 
ATOM      5  C   UNL     1      -1.108  13.430  20.628  0.00  0.00    +0.000 C 
ATOM      6  C   UNL     1      -1.174  12.531  19.445  0.00  0.00    +0.000 C 
ATOM      7  S   UNL     1       0.367  14.146  21.120  0.00  0.00    +0.000 S 
ATOM      8  O   UNL     1       0.719  15.194  20.182  0.00  0.00    +0.000 OA
ATOM      9  O   UNL     1       1.333  13.149  21.539  0.00  0.00    +0.000 OA
ATOM     10  C   UNL     1      -0.278  14.897  22.585  0.00  0.00    +0.000 C 
ATOM     11  C   UNL     1      -1.783  14.667  22.556  0.00  0.00    +0.000 C 
ENDROOT
BRANCH   3  12
ATOM     12  C   UNL     1      -4.601  13.592  21.990  0.00  0.00    +0.000 A 
ATOM     13  C   UNL     1      -4.905  12.748  23.081  0.00  0.00    +0.000 A 
ATOM     14  C   UNL     1      -5.999  12.989  23.928  0.00  0.00    +0.000 A 
ATOM     15  C   UNL     1      -6.763  14.131  23.755  0.00  0.00    +0.000 A 
ATOM     16  F   UNL     1      -7.781  14.388  24.583  0.00  0.00    +0.000 F 
ATOM     17  C   UNL     1      -6.487  15.000  22.716  0.00  0.00    +0.000 A 
ATOM     18  C   UNL     1      -5.455  14.699  21.817  0.00  0.00    +0.000 A 
ENDBRANCH   3  12
BRANCH   6  19
ATOM     19  C   UNL     1      -0.281  11.310  19.631  0.00  0.00    +0.000 A 
ATOM     20  C   UNL     1       0.725  11.001  18.693  0.00  0.00    +0.000 A 
ATOM     21  C   UNL     1       1.460   9.822  18.807  0.00  0.00    +0.000 A 
ATOM     22  C   UNL     1       1.206   8.958  19.866  0.00  0.00    +0.000 A 
ATOM     23  C   UNL     1       0.247   9.263  20.821  0.00  0.00    +0.000 A 
ATOM     24  C   UNL     1      -0.499  10.436  20.705  0.00  0.00    +0.000 A 
BRANCH  22  25
ATOM     25  O   UNL     1       1.878   7.779  19.993  0.00  0.00    +0.000 OA
ATOM     26  H   UNL     1       1.685   7.411  20.871  0.00  0.00    +0.000 HD
ENDBRANCH  22  25
ENDBRANCH   6  19
BRANCH   2  27
ATOM     27  N   UNL     1      -4.947  12.082  19.516  0.00  0.00    +0.000 N 
ATOM     28  H   UNL     1      -5.107  11.080  19.437  0.00  0.00    +0.000 HD
ATOM     29  H   UNL     1      -5.290  12.581  18.699  0.00  0.00    +0.000 HD
ENDBRANCH   2  27
BRANCH   1  31
ATOM     30  N   UNL     1      -2.946  10.544  16.879  0.00  0.00    +0.000 NA
ATOM     31  C   UNL     1      -2.791  11.265  17.902  0.00  0.00    +0.000 C 
ENDBRANCH   1  31
TORSDOF 5
ENDMDL
MODEL 6
REMARK VINA RESULT:      -5.7      4.007      7.323
REMARK  Name = 
REMARK  5 active torsions:
REMARK  status: ('A' for Active; 'I' for Inactive)
REMARK    1  A    between atoms: C_2  and  C_3
REMARK    2  A    between atoms: C_4  and  N_5
REMARK    3  A    between atoms: N_6  and  C_7
REMARK    4  A    between atoms: C_16  and  C_17
REMARK    5  A    between atoms: C_20  and  O_21
REMARK                            x       y       z     vdW  Elec       q    Type
REMARK                         _______ _______ _______ _____ _____    ______ ____
ROOT
ATOM      1  C   UNL     1      -4.943  12.436  19.699  0.00  0.00    +0.000 C 
ATOM      2  C   UNL     1      -3.676  12.230  19.225  0.00  0.00    +0.000 C 
ATOM      3  N   UNL     1      -2.528  12.350  20.117  0.00  0.00    +0.000 N 
ATOM      4  C   UNL     1      -2.775  12.620  21.495  0.00  0.00    +0.000 C 
ATOM      5  C   UNL     1      -4.018  12.826  21.966  0.00  0.00    +0.000 C 
ATOM      6  C   UNL     1      -5.252  12.808  21.136  0.00  0.00    +0.000 C 
ATOM      7  S   UNL     1      -4.087  13.076  23.658  0.00  0.00    +0.000 S 
ATOM      8  O   UNL     1      -4.614  11.882  24.291  0.00  0.00    +0.000 OA
ATOM      9  O   UNL     1      -4.598  14.394  23.984  0.00  0.00    +0.000 OA
ATOM     10  C   UNL     1      -2.337  13.118  23.905  0.00  0.00    +0.000 C 
ATOM     11  C   UNL     1      -1.708  12.754  22.568  0.00  0.00    +0.000 C 
ENDROOT
BRANCH   3  12
ATOM     12  C   UNL     1      -1.171  12.266  19.586  0.00  0.00    +0.000 A 
ATOM     13  C   UNL     1      -0.482  13.405  19.115  0.00  0.00    +0.000 A 
ATOM     14  C   UNL     1       0.812  13.324  18.575  0.00  0.00    +0.000 A 
ATOM     15  C   UNL     1       1.481  12.112  18.574  0.00  0.00    +0.000 A 
ATOM     16  F   UNL     1       2.729  12.036  18.099  0.00  0.00    +0.000 F 
ATOM     17  C   UNL     1       0.856  10.974  19.049  0.00  0.00    +0.000 A 
ATOM     18  C   UNL     1      -0.471  11.047  19.494  0.00  0.00    +0.000 A 
ENDBRANCH   3  12
BRANCH   6  19
ATOM     19  C   UNL     1      -5.993  14.137  21.224  0.00  0.00    +0.000 A 
ATOM     20  C   UNL     1      -5.385  15.333  20.791  0.00  0.00    +0.000 A 
ATOM     21  C   UNL     1      -6.021  16.559  20.981  0.00  0.00    +0.000 A 
ATOM     22  C   UNL     1      -7.271  16.593  21.588  0.00  0.00    +0.000 A 
ATOM     23  C   UNL     1      -7.902  15.424  21.987  0.00  0.00    +0.000 A 
ATOM     24  C   UNL     1      -7.265  14.196  21.809  0.00  0.00    +0.000 A 
BRANCH  22  25
ATOM     25  O   UNL     1      -7.910  17.774  21.824  0.00  0.00    +0.000 OA
ATOM     26  H   UNL     1      -8.736  17.584  22.299  0.00  0.00    +0.000 HD
ENDBRANCH  22  25
ENDBRANCH   6  19
BRANCH   2  27
ATOM     27  N   UNL     1      -3.513  11.881  17.887  0.00  0.00    +0.000 N 
ATOM     28  H   UNL     1      -4.158  11.194  17.502  0.00  0.00    +0.000 HD
ATOM     29  H   UNL     1      -2.548  11.659  17.653  0.00  0.00    +0.000 HD
ENDBRANCH   2  27
BRANCH   1  31
ATOM     30  N   UNL     1      -7.144  12.236  18.011  0.00  0.00    +0.000 NA
ATOM     31  C   UNL     1      -6.146  12.326  18.777  0.00  0.00    +0.000 C 
ENDBRANCH   1  31
TORSDOF 5
ENDMDL
MODEL 7
REMARK VINA RESULT:      -5.7      1.176      1.195
REMARK  Name = 
REMARK  5 active torsions:
REMARK  status: ('A' for Active; 'I' for Inactive)
REMARK    1  A    between atoms: C_2  and  C_3
REMARK    2  A    between atoms: C_4  and  N_5
REMARK    3  A    between atoms: N_6  and  C_7
REMARK    4  A    between atoms: C_16  and  C_17
REMARK    5  A    between atoms: C_20  and  O_21
REMARK                            x       y       z     vdW  Elec       q    Type
REMARK                         _______ _______ _______ _____ _____    ______ ____
ROOT
ATOM      1  C   UNL     1      -2.170  12.232  19.317  0.00  0.00    +0.000 C 
ATOM      2  C   UNL     1      -3.028  13.009  20.045  0.00  0.00    +0.000 C 
ATOM      3  N   UNL     1      -2.510  13.976  21.007  0.00  0.00    +0.000 N 
ATOM      4  C   UNL     1      -1.096  14.126  21.110  0.00  0.00    +0.000 C 
ATOM      5  C   UNL     1      -0.247  13.363  20.400  0.00  0.00    +0.000 C 
ATOM      6  C   UNL     1      -0.661  12.293  19.452  0.00  0.00    +0.000 C 
ATOM      7  S   UNL     1       1.403  13.750  20.638  0.00  0.00    +0.000 S 
ATOM      8  O   UNL     1       1.896  14.457  19.471  0.00  0.00    +0.000 OA
ATOM      9  O   UNL     1       2.136  12.640  21.216  0.00  0.00    +0.000 OA
ATOM     10  C   UNL     1       1.127  14.924  21.931  0.00  0.00    +0.000 C 
ATOM     11  C   UNL     1      -0.383  15.096  22.036  0.00  0.00    +0.000 C 
ENDROOT
BRANCH   3  12
ATOM     12  C   UNL     1      -3.422  14.709  21.879  0.00  0.00    +0.000 A 
ATOM     13  C   UNL     1      -3.936  15.976  21.526  0.00  0.00    +0.000 A 
ATOM     14  C   UNL     1      -4.789  16.698  22.376  0.00  0.00    +0.000 A 
ATOM     15  C   UNL     1      -5.218  16.129  23.564  0.00  0.00    +0.000 A 
ATOM     16  F   UNL     1      -6.063  16.794  24.359  0.00  0.00    +0.000 F 
ATOM     17  C   UNL     1      -4.762  14.879  23.939  0.00  0.00    +0.000 A 
ATOM     18  C   UNL     1      -3.833  14.210  23.131  0.00  0.00    +0.000 A 
ENDBRANCH   3  12
BRANCH   6  19
ATOM     19  C   UNL     1      -0.079  10.944  19.858  0.00  0.00    +0.000 A 
ATOM     20  C   UNL     1      -0.364  10.384  21.121  0.00  0.00    +0.000 A 
ATOM     21  C   UNL     1       0.262   9.209  21.531  0.00  0.00    +0.000 A 
ATOM     22  C   UNL     1       1.162   8.580  20.677  0.00  0.00    +0.000 A 
ATOM     23  C   UNL     1       1.427   9.094  19.417  0.00  0.00    +0.000 A 
ATOM     24  C   UNL     1       0.811  10.277  19.006  0.00  0.00    +0.000 A 
BRANCH  22  25
ATOM     25  O   UNL     1       1.821   7.448  21.056  0.00  0.00    +0.000 OA
ATOM     26  H   UNL     1       2.057   6.952  20.255  0.00  0.00    +0.000 HD
ENDBRANCH  22  25
ENDBRANCH   6  19
BRANCH   2  27
ATOM     27  N   UNL     1      -4.397  12.875  19.828  0.00  0.00    +0.000 N 
ATOM     28  H   UNL     1      -4.697  12.613  18.891  0.00  0.00    +0.000 HD
ATOM     29  H   UNL     1      -4.931  13.664  20.184  0.00  0.00    +0.000 HD
ENDBRANCH   2  27
BRANCH   1  31
ATOM     30  N   UNL     1      -3.136  10.366  17.496  0.00  0.00    +0.000 NA
ATOM     31  C   UNL     1      -2.698  11.212  18.321  0.00  0.00    +0.000 C 
ENDBRANCH   1  31
TORSDOF 5
ENDMDL
MODEL 8
REMARK VINA RESULT:      -5.6      4.236      7.573
REMARK  Name = 
REMARK  5 active torsions:
REMARK  status: ('A' for Active; 'I' for Inactive)
REMARK    1  A    between atoms: C_2  and  C_3
REMARK    2  A    between atoms: C_4  and  N_5
REMARK    3  A    between atoms: N_6  and  C_7
REMARK    4  A    between atoms: C_16  and  C_17
REMARK    5  A    between atoms: C_20  and  O_21
REMARK                            x       y       z     vdW  Elec       q    Type
REMARK                         _______ _______ _______ _____ _____    ______ ____
ROOT
ATOM      1  C   UNL     1      -2.992  14.206  21.033  0.00  0.00    +0.000 C 
ATOM      2  C   UNL     1      -1.939  13.375  20.762  0.00  0.00    +0.000 C 
ATOM      3  N   UNL     1      -2.126  12.203  19.913  0.00  0.00    +0.000 N 
ATOM      4  C   UNL     1      -3.411  11.996  19.330  0.00  0.00    +0.000 C 
ATOM      5  C   UNL     1      -4.450  12.808  19.594  0.00  0.00    +0.000 C 
ATOM      6  C   UNL     1      -4.396  13.982  20.507  0.00  0.00    +0.000 C 
ATOM      7  S   UNL     1      -5.880  12.407  18.744  0.00  0.00    +0.000 S 
ATOM      8  O   UNL     1      -6.081  13.369  17.678  0.00  0.00    +0.000 OA
ATOM      9  O   UNL     1      -6.955  12.041  19.647  0.00  0.00    +0.000 OA
ATOM     10  C   UNL     1      -5.256  10.910  18.041  0.00  0.00    +0.000 C 
ATOM     11  C   UNL     1      -3.779  10.850  18.404  0.00  0.00    +0.000 C 
ENDROOT
BRANCH   3  12
ATOM     12  C   UNL     1      -1.041  11.244  19.733  0.00  0.00    +0.000 A 
ATOM     13  C   UNL     1      -0.283  11.190  18.543  0.00  0.00    +0.000 A 
ATOM     14  C   UNL     1       0.741  10.248  18.353  0.00  0.00    +0.000 A 
ATOM     15  C   UNL     1       1.088   9.393  19.386  0.00  0.00    +0.000 A 
ATOM     16  F   UNL     1       2.089   8.521  19.227  0.00  0.00    +0.000 F 
ATOM     17  C   UNL     1       0.390   9.426  20.579  0.00  0.00    +0.000 A 
ATOM     18  C   UNL     1      -0.695  10.302  20.722  0.00  0.00    +0.000 A 
ENDBRANCH   3  12
BRANCH   6  19
ATOM     19  C   UNL     1      -5.405  13.843  21.641  0.00  0.00    +0.000 A 
ATOM     20  C   UNL     1      -6.506  14.718  21.740  0.00  0.00    +0.000 A 
ATOM     21  C   UNL     1      -7.359  14.660  22.841  0.00  0.00    +0.000 A 
ATOM     22  C   UNL     1      -7.126  13.718  23.837  0.00  0.00    +0.000 A 
ATOM     23  C   UNL     1      -6.071  12.823  23.739  0.00  0.00    +0.000 A 
ATOM     24  C   UNL     1      -5.208  12.884  22.644  0.00  0.00    +0.000 A 
BRANCH  22  25
ATOM     25  O   UNL     1      -7.916  13.653  24.946  0.00  0.00    +0.000 OA
ATOM     26  H   UNL     1      -7.920  14.528  25.368  0.00  0.00    +0.000 HD
ENDBRANCH  22  25
ENDBRANCH   6  19
BRANCH   2  27
ATOM     27  N   UNL     1      -0.690  13.687  21.292  0.00  0.00    +0.000 N 
ATOM     28  H   UNL     1      -0.270  13.009  21.925  0.00  0.00    +0.000 HD
ATOM     29  H   UNL     1      -0.648  14.629  21.672  0.00  0.00    +0.000 HD
ENDBRANCH   2  27
BRANCH   1  31
ATOM     30  N   UNL     1      -2.665  16.431  22.669  0.00  0.00    +0.000 NA
ATOM     31  C   UNL     1      -2.813  15.422  21.927  0.00  0.00    +0.000 C 
ENDBRANCH   1  31
TORSDOF 5
ENDMDL
MODEL 9
REMARK VINA RESULT:      -5.6      8.306     11.467
REMARK  Name = 
REMARK  5 active torsions:
REMARK  status: ('A' for Active; 'I' for Inactive)
REMARK    1  A    between atoms: C_2  and  C_3
REMARK    2  A    between atoms: C_4  and  N_5
REMARK    3  A    between atoms: N_6  and  C_7
REMARK    4  A    between atoms: C_16  and  C_17
REMARK    5  A    between atoms: C_20  and  O_21
REMARK                            x       y       z     vdW  Elec       q    Type
REMARK                         _______ _______ _______ _____ _____    ______ ____
ROOT
ATOM      1  C   UNL     1       6.585  14.418  22.283  0.00  0.00    +0.000 C 
ATOM      2  C   UNL     1       7.637  13.684  21.807  0.00  0.00    +0.000 C 
ATOM      3  N   UNL     1       8.347  14.109  20.606  0.00  0.00    +0.000 N 
ATOM      4  C   UNL     1       7.954  15.335  19.993  0.00  0.00    +0.000 C 
ATOM      5  C   UNL     1       6.919  16.059  20.455  0.00  0.00    +0.000 C 
ATOM      6  C   UNL     1       6.075  15.682  21.620  0.00  0.00    +0.000 C 
ATOM      7  S   UNL     1       6.659  17.522  19.603  0.00  0.00    +0.000 S 
ATOM      8  O   UNL     1       7.116  18.631  20.418  0.00  0.00    +0.000 OA
ATOM      9  O   UNL     1       5.361  17.540  18.957  0.00  0.00    +0.000 OA
ATOM     10  C   UNL     1       7.864  17.213  18.346  0.00  0.00    +0.000 C 
ATOM     11  C   UNL     1       8.594  15.942  18.756  0.00  0.00    +0.000 C 
ENDROOT
BRANCH   3  12
ATOM     12  C   UNL     1       9.378  13.258  20.020  0.00  0.00    +0.000 A 
ATOM     13  C   UNL     1       9.079  12.297  19.030  0.00  0.00    +0.000 A 
ATOM     14  C   UNL     1      10.062  11.455  18.486  0.00  0.00    +0.000 A 
ATOM     15  C   UNL     1      11.386  11.615  18.858  0.00  0.00    +0.000 A 
ATOM     16  F   UNL     1      12.333  10.844  18.314  0.00  0.00    +0.000 F 
ATOM     17  C   UNL     1      11.731  12.560  19.806  0.00  0.00    +0.000 A 
ATOM     18  C   UNL     1      10.729  13.327  20.415  0.00  0.00    +0.000 A 
ENDBRANCH   3  12
BRANCH   6  19
ATOM     19  C   UNL     1       4.610  15.553  21.218  0.00  0.00    +0.000 A 
ATOM     20  C   UNL     1       4.202  14.583  20.279  0.00  0.00    +0.000 A 
ATOM     21  C   UNL     1       2.883  14.546  19.830  0.00  0.00    +0.000 A 
ATOM     22  C   UNL     1       1.965  15.464  20.327  0.00  0.00    +0.000 A 
ATOM     23  C   UNL     1       2.339  16.401  21.279  0.00  0.00    +0.000 A 
ATOM     24  C   UNL     1       3.660  16.450  21.724  0.00  0.00    +0.000 A 
BRANCH  22  25
ATOM     25  O   UNL     1       0.675  15.483  19.886  0.00  0.00    +0.000 OA
ATOM     26  H   UNL     1       0.512  16.341  19.460  0.00  0.00    +0.000 HD
ENDBRANCH  22  25
ENDBRANCH   6  19
BRANCH   2  27
ATOM     27  N   UNL     1       8.026  12.545  22.507  0.00  0.00    +0.000 N 
ATOM     28  H   UNL     1       8.956  12.177  22.318  0.00  0.00    +0.000 HD
ATOM     29  H   UNL     1       7.323  11.811  22.486  0.00  0.00    +0.000 HD
ENDBRANCH   2  27
BRANCH   1  31
ATOM     30  N   UNL     1       5.202  13.615  24.558  0.00  0.00    +0.000 NA
ATOM     31  C   UNL     1       5.829  13.979  23.527  0.00  0.00    +0.000 C 
ENDBRANCH   1  31
TORSDOF 5
ENDMDL
