MODEL 1
REMARK VINA RESULT:      -8.6      0.000      0.000
REMARK  Name = 
REMARK  9 active torsions:
REMARK  status: ('A' for Active; 'I' for Inactive)
REMARK    1  A    between atoms: C_1  and  C_2
REMARK    2  A    between atoms: C_8  and  C_10
REMARK    3  A    between atoms: C_10  and  C_11
REMARK    4  A    between atoms: C_11  and  C_12
REMARK    5  A    between atoms: N_14  and  C_15
REMARK    6  A    between atoms: N_14  and  C_25
REMARK    7  A    between atoms: C_15  and  C_16
REMARK    8  A    between atoms: N_18  and  C_19
REMARK    9  A    between atoms: C_25  and  C_26
REMARK                            x       y       z     vdW  Elec       q    Type
REMARK                         _______ _______ _______ _____ _____    ______ ____
ROOT
ATOM      1  C   UNL     1       5.945   5.695  18.310  0.00  0.00    +0.000 C 
ATOM      2  O   UNL     1       5.819   5.675  19.525  0.00  0.00    +0.000 OA
ATOM      3  N   UNL     1       4.872   5.498  17.432  0.00  0.00    +0.000 N 
ENDROOT
BRANCH   1   4
ATOM      4  C   UNL     1       7.303   5.958  17.657  0.00  0.00    +0.000 C 
BRANCH   4   5
ATOM      5  C   UNL     1       7.543   7.382  17.166  0.00  0.00    +0.000 C 
BRANCH   5  13
ATOM      6  C   UNL     1       9.626  14.283  17.970  0.00  0.00    +0.000 C 
ATOM      7  C   UNL     1       9.579  12.919  18.591  0.00  0.00    +0.000 A 
ATOM      8  C   UNL     1      10.155  12.673  19.836  0.00  0.00    +0.000 A 
ATOM      9  C   UNL     1      10.084  11.398  20.352  0.00  0.00    +0.000 A 
ATOM     10  N   UNL     1       9.490  10.363  19.720  0.00  0.00    +0.000 NA
ATOM     11  C   UNL     1       8.931  10.598  18.524  0.00  0.00    +0.000 A 
ATOM     12  N   UNL     1       8.308   9.569  17.814  0.00  0.00    +0.000 N 
ATOM     13  C   UNL     1       8.260   8.245  18.187  0.00  0.00    +0.000 C 
ATOM     14  O   UNL     1       8.725   7.731  19.199  0.00  0.00    +0.000 OA
ATOM     15  C   UNL     1       8.956  11.861  17.927  0.00  0.00    +0.000 A 
ATOM     16  H   UNL     1       7.919   9.817  16.907  0.00  0.00    +0.000 HD
ENDBRANCH   5  13
ENDBRANCH   4   5
ENDBRANCH   1   4
BRANCH   3  17
ATOM     17  C   UNL     1       5.074   5.502  15.980  0.00  0.00    +0.000 C 
BRANCH  17  18
ATOM     18  C   UNL     1       5.453   4.213  15.246  0.00  0.00    +0.000 C 
ATOM     19  O   UNL     1       5.699   3.164  15.827  0.00  0.00    +0.000 OA
ATOM     20  N   UNL     1       5.479   4.382  13.886  0.00  0.00    +0.000 N 
ATOM     21  H   UNL     1       5.048   5.219  13.510  0.00  0.00    +0.000 HD
BRANCH  20  22
ATOM     22  C   UNL     1       6.024   3.460  12.922  0.00  0.00    +0.000 C 
ATOM     23  C   UNL     1       7.196   3.987  12.096  0.00  0.00    +0.000 C 
ATOM     24  C   UNL     1       7.885   2.792  11.436  0.00  0.00    +0.000 C 
ATOM     25  C   UNL     1       6.918   1.925  10.618  0.00  0.00    +0.000 C 
ATOM     26  C   UNL     1       5.595   1.614  11.327  0.00  0.00    +0.000 C 
ATOM     27  C   UNL     1       4.983   2.856  11.975  0.00  0.00    +0.000 C 
ENDBRANCH  20  22
ENDBRANCH  17  18
ENDBRANCH   3  17
BRANCH   3  28
ATOM     28  C   UNL     1       3.522   5.312  17.975  0.00  0.00    +0.000 C 
BRANCH  28  29
ATOM     29  C   UNL     1       2.880   6.517  18.647  0.00  0.00    +0.000 A 
ATOM     30  C   UNL     1       2.343   6.479  19.955  0.00  0.00    +0.000 A 
ATOM     31  C   UNL     1       1.655   7.580  20.492  0.00  0.00    +0.000 A 
ATOM     32  C   UNL     1       1.490   8.699  19.704  0.00  0.00    +0.000 A 
ATOM     33  C   UNL     1       1.991   8.746  18.425  0.00  0.00    +0.000 A 
ATOM     34  C   UNL     1       2.684   7.685  17.877  0.00  0.00    +0.000 A 
ATOM     35  O   UNL     1       1.697   9.918  17.798  0.00  0.00    +0.000 OA
ATOM     36  C   UNL     1       0.920  10.586  18.814  0.00  0.00    +0.000 C 
ATOM     37  O   UNL     1       0.826   9.833  20.043  0.00  0.00    +0.000 OA
ENDBRANCH  28  29
ENDBRANCH   3  28
TORSDOF 8
ENDMDL
MODEL 2
REMARK VINA RESULT:      -8.6      5.769     12.128
REMARK  Name = 
REMARK  9 active torsions:
REMARK  status: ('A' for Active; 'I' for Inactive)
REMARK    1  A    between atoms: C_1  and  C_2
REMARK    2  A    between atoms: C_8  and  C_10
REMARK    3  A    between atoms: C_10  and  C_11
REMARK    4  A    between atoms: C_11  and  C_12
REMARK    5  A    between atoms: N_14  and  C_15
REMARK    6  A    between atoms: N_14  and  C_25
REMARK    7  A    between atoms: C_15  and  C_16
REMARK    8  A    between atoms: N_18  and  C_19
REMARK    9  A    between atoms: C_25  and  C_26
REMARK                            x       y       z     vdW  Elec       q    Type
REMARK                         _______ _______ _______ _____ _____    ______ ____
ROOT
ATOM      1  C   UNL     1       0.648   9.697  19.193  0.00  0.00    +0.000 C 
ATOM      2  O   UNL     1       1.550   9.683  18.368  0.00  0.00    +0.000 OA
ATOM      3  N   UNL     1       0.708   8.984  20.396  0.00  0.00    +0.000 N 
ENDROOT
BRANCH   1   4
ATOM      4  C   UNL     1      -0.620  10.523  18.967  0.00  0.00    +0.000 C 
BRANCH   4   5
ATOM      5  C   UNL     1      -1.257  10.405  17.586  0.00  0.00    +0.000 C 
BRANCH   5  13
ATOM      6  C   UNL     1      -6.539  13.900  21.120  0.00  0.00    +0.000 C 
ATOM      7  C   UNL     1      -6.209  12.879  20.073  0.00  0.00    +0.000 A 
ATOM      8  C   UNL     1      -7.214  12.177  19.410  0.00  0.00    +0.000 A 
ATOM      9  C   UNL     1      -6.848  11.247  18.461  0.00  0.00    +0.000 A 
ATOM     10  N   UNL     1      -5.567  10.969  18.136  0.00  0.00    +0.000 NA
ATOM     11  C   UNL     1      -4.599  11.646  18.770  0.00  0.00    +0.000 A 
ATOM     12  N   UNL     1      -3.254  11.399  18.486  0.00  0.00    +0.000 N 
ATOM     13  C   UNL     1      -2.773  10.434  17.632  0.00  0.00    +0.000 C 
ATOM     14  O   UNL     1      -3.417   9.638  16.957  0.00  0.00    +0.000 OA
ATOM     15  C   UNL     1      -4.880  12.607  19.744  0.00  0.00    +0.000 A 
ATOM     16  H   UNL     1      -2.574  11.940  19.017  0.00  0.00    +0.000 HD
ENDBRANCH   5  13
ENDBRANCH   4   5
ENDBRANCH   1   4
BRANCH   3  17
ATOM     17  C   UNL     1      -0.409   9.007  21.345  0.00  0.00    +0.000 C 
BRANCH  17  18
ATOM     18  C   UNL     1      -0.464  10.061  22.454  0.00  0.00    +0.000 C 
ATOM     19  O   UNL     1       0.133   9.941  23.516  0.00  0.00    +0.000 OA
ATOM     20  N   UNL     1      -1.248  11.131  22.110  0.00  0.00    +0.000 N 
ATOM     21  H   UNL     1      -1.509  11.227  21.135  0.00  0.00    +0.000 HD
BRANCH  20  22
ATOM     22  C   UNL     1      -1.709  12.170  22.996  0.00  0.00    +0.000 C 
ATOM     23  C   UNL     1      -3.223  12.365  23.052  0.00  0.00    +0.000 C 
ATOM     24  C   UNL     1      -3.548  13.197  24.293  0.00  0.00    +0.000 C 
ATOM     25  C   UNL     1      -2.773  14.520  24.342  0.00  0.00    +0.000 C 
ATOM     26  C   UNL     1      -1.282  14.391  24.006  0.00  0.00    +0.000 C 
ATOM     27  C   UNL     1      -1.043  13.531  22.766  0.00  0.00    +0.000 C 
ENDBRANCH  20  22
ENDBRANCH  17  18
ENDBRANCH   3  17
BRANCH   3  28
ATOM     28  C   UNL     1       1.920   8.224  20.723  0.00  0.00    +0.000 C 
BRANCH  28  29
ATOM     29  C   UNL     1       2.037   6.829  20.126  0.00  0.00    +0.000 A 
ATOM     30  C   UNL     1       1.559   5.667  20.775  0.00  0.00    +0.000 A 
ATOM     31  C   UNL     1       1.792   4.388  20.244  0.00  0.00    +0.000 A 
ATOM     32  C   UNL     1       2.526   4.284  19.080  0.00  0.00    +0.000 A 
ATOM     33  C   UNL     1       3.013   5.402  18.447  0.00  0.00    +0.000 A 
ATOM     34  C   UNL     1       2.785   6.672  18.938  0.00  0.00    +0.000 A 
ATOM     35  O   UNL     1       3.738   5.092  17.338  0.00  0.00    +0.000 OA
ATOM     36  C   UNL     1       3.685   3.650  17.368  0.00  0.00    +0.000 C 
ATOM     37  O   UNL     1       2.876   3.135  18.448  0.00  0.00    +0.000 OA
ENDBRANCH  28  29
ENDBRANCH   3  28
TORSDOF 8
ENDMDL
MODEL 3
REMARK VINA RESULT:      -8.4      4.171      8.499
REMARK  Name = 
REMARK  9 active torsions:
REMARK  status: ('A' for Active; 'I' for Inactive)
REMARK    1  A    between atoms: C_1  and  C_2
REMARK    2  A    between atoms: C_8  and  C_10
REMARK    3  A    between atoms: C_10  and  C_11
REMARK    4  A    between atoms: C_11  and  C_12
REMARK    5  A    between atoms: N_14  and  C_15
REMARK    6  A    between atoms: N_14  and  C_25
REMARK    7  A    between atoms: C_15  and  C_16
REMARK    8  A    between atoms: N_18  and  C_19
REMARK    9  A    between atoms: C_25  and  C_26
REMARK                            x       y       z     vdW  Elec       q    Type
REMARK                         _______ _______ _______ _____ _____    ______ ____
ROOT
ATOM      1  C   UNL     1       1.393   8.808  21.040  0.00  0.00    +0.000 C 
ATOM      2  O   UNL     1       1.480   8.930  22.253  0.00  0.00    +0.000 OA
ATOM      3  N   UNL     1       1.655   7.603  20.377  0.00  0.00    +0.000 N 
ENDROOT
BRANCH   1   4
ATOM      4  C   UNL     1       0.968   9.980  20.153  0.00  0.00    +0.000 C 
BRANCH   4   5
ATOM      5  C   UNL     1       0.200  11.099  20.849  0.00  0.00    +0.000 C 
BRANCH   5  13
ATOM      6  C   UNL     1      -3.123  10.017  14.494  0.00  0.00    +0.000 C 
ATOM      7  C   UNL     1      -3.246  10.570  15.882  0.00  0.00    +0.000 A 
ATOM      8  C   UNL     1      -4.409  11.212  16.301  0.00  0.00    +0.000 A 
ATOM      9  C   UNL     1      -4.461  11.704  17.587  0.00  0.00    +0.000 A 
ATOM     10  N   UNL     1      -3.445  11.606  18.471  0.00  0.00    +0.000 NA
ATOM     11  C   UNL     1      -2.326  10.984  18.071  0.00  0.00    +0.000 A 
ATOM     12  N   UNL     1      -1.235  10.856  18.934  0.00  0.00    +0.000 N 
ATOM     13  C   UNL     1      -1.140  11.387  20.199  0.00  0.00    +0.000 C 
ATOM     14  O   UNL     1      -1.982  12.042  20.805  0.00  0.00    +0.000 OA
ATOM     15  C   UNL     1      -2.188  10.454  16.786  0.00  0.00    +0.000 A 
ATOM     16  H   UNL     1      -0.415  10.386  18.558  0.00  0.00    +0.000 HD
ENDBRANCH   5  13
ENDBRANCH   4   5
ENDBRANCH   1   4
BRANCH   3  17
ATOM     17  C   UNL     1       1.566   7.509  18.917  0.00  0.00    +0.000 C 
BRANCH  17  18
ATOM     18  C   UNL     1       2.815   7.692  18.050  0.00  0.00    +0.000 C 
ATOM     19  O   UNL     1       3.014   8.692  17.373  0.00  0.00    +0.000 OA
ATOM     20  N   UNL     1       3.661   6.617  18.131  0.00  0.00    +0.000 N 
ATOM     21  H   UNL     1       3.507   5.955  18.882  0.00  0.00    +0.000 HD
BRANCH  20  22
ATOM     22  C   UNL     1       4.789   6.353  17.273  0.00  0.00    +0.000 C 
ATOM     23  C   UNL     1       4.642   5.149  16.344  0.00  0.00    +0.000 C 
ATOM     24  C   UNL     1       5.718   5.252  15.262  0.00  0.00    +0.000 C 
ATOM     25  C   UNL     1       7.132   5.391  15.841  0.00  0.00    +0.000 C 
ATOM     26  C   UNL     1       7.248   6.405  16.986  0.00  0.00    +0.000 C 
ATOM     27  C   UNL     1       6.127   6.247  18.012  0.00  0.00    +0.000 C 
ENDBRANCH  20  22
ENDBRANCH  17  18
ENDBRANCH   3  17
BRANCH   3  28
ATOM     28  C   UNL     1       1.998   6.410  21.160  0.00  0.00    +0.000 C 
BRANCH  28  29
ATOM     29  C   UNL     1       1.969   5.076  20.427  0.00  0.00    +0.000 A 
ATOM     30  C   UNL     1       0.794   4.303  20.276  0.00  0.00    +0.000 A 
ATOM     31  C   UNL     1       0.835   3.024  19.696  0.00  0.00    +0.000 A 
ATOM     32  C   UNL     1       2.056   2.522  19.297  0.00  0.00    +0.000 A 
ATOM     33  C   UNL     1       3.209   3.254  19.453  0.00  0.00    +0.000 A 
ATOM     34  C   UNL     1       3.197   4.520  20.005  0.00  0.00    +0.000 A 
ATOM     35  O   UNL     1       4.311   2.576  19.031  0.00  0.00    +0.000 OA
ATOM     36  C   UNL     1       3.725   1.320  18.631  0.00  0.00    +0.000 C 
ATOM     37  O   UNL     1       2.287   1.300  18.754  0.00  0.00    +0.000 OA
ENDBRANCH  28  29
ENDBRANCH   3  28
TORSDOF 8
ENDMDL
MODEL 4
REMARK VINA RESULT:      -8.4      5.188      9.633
REMARK  Name = 
REMARK  9 active torsions:
REMARK  status: ('A' for Active; 'I' for Inactive)
REMARK    1  A    between atoms: C_1  and  C_2
REMARK    2  A    between atoms: C_8  and  C_10
REMARK    3  A    between atoms: C_10  and  C_11
REMARK    4  A    between atoms: C_11  and  C_12
REMARK    5  A    between atoms: N_14  and  C_15
REMARK    6  A    between atoms: N_14  and  C_25
REMARK    7  A    between atoms: C_15  and  C_16
REMARK    8  A    between atoms: N_18  and  C_19
REMARK    9  A    between atoms: C_25  and  C_26
REMARK                            x       y       z     vdW  Elec       q    Type
REMARK                         _______ _______ _______ _____ _____    ______ ____
ROOT
ATOM      1  C   UNL     1       0.026  10.216  21.634  0.00  0.00    +0.000 C 
ATOM      2  O   UNL     1      -0.462   9.973  22.728  0.00  0.00    +0.000 OA
ATOM      3  N   UNL     1       0.116  11.512  21.112  0.00  0.00    +0.000 N 
ENDROOT
BRANCH   1   4
ATOM      4  C   UNL     1       0.596   9.100  20.755  0.00  0.00    +0.000 C 
BRANCH   4   5
ATOM      5  C   UNL     1       1.551   8.130  21.444  0.00  0.00    +0.000 C 
BRANCH   5  13
ATOM      6  C   UNL     1       5.472   5.937  15.751  0.00  0.00    +0.000 C 
ATOM      7  C   UNL     1       4.496   5.536  16.815  0.00  0.00    +0.000 A 
ATOM      8  C   UNL     1       3.991   4.239  16.878  0.00  0.00    +0.000 A 
ATOM      9  C   UNL     1       3.092   3.932  17.877  0.00  0.00    +0.000 A 
ATOM     10  N   UNL     1       2.664   4.818  18.801  0.00  0.00    +0.000 NA
ATOM     11  C   UNL     1       3.151   6.066  18.745  0.00  0.00    +0.000 A 
ATOM     12  N   UNL     1       2.743   7.032  19.666  0.00  0.00    +0.000 N 
ATOM     13  C   UNL     1       1.787   6.865  20.641  0.00  0.00    +0.000 C 
ATOM     14  O   UNL     1       1.139   5.854  20.895  0.00  0.00    +0.000 OA
ATOM     15  C   UNL     1       4.067   6.463  17.767  0.00  0.00    +0.000 A 
ATOM     16  H   UNL     1       3.143   7.961  19.554  0.00  0.00    +0.000 HD
ENDBRANCH   5  13
ENDBRANCH   4   5
ENDBRANCH   1   4
BRANCH   3  17
ATOM     17  C   UNL     1       0.683  11.754  19.783  0.00  0.00    +0.000 C 
BRANCH  17  18
ATOM     18  C   UNL     1      -0.227  12.100  18.602  0.00  0.00    +0.000 C 
ATOM     19  O   UNL     1      -0.342  13.235  18.160  0.00  0.00    +0.000 OA
ATOM     20  N   UNL     1      -0.881  10.998  18.115  0.00  0.00    +0.000 N 
ATOM     21  H   UNL     1      -0.546  10.087  18.407  0.00  0.00    +0.000 HD
BRANCH  20  22
ATOM     22  C   UNL     1      -1.980  11.001  17.182  0.00  0.00    +0.000 C 
ATOM     23  C   UNL     1      -3.360  11.239  17.792  0.00  0.00    +0.000 C 
ATOM     24  C   UNL     1      -4.322  11.601  16.660  0.00  0.00    +0.000 C 
ATOM     25  C   UNL     1      -4.337  10.557  15.535  0.00  0.00    +0.000 C 
ATOM     26  C   UNL     1      -2.947  10.085  15.094  0.00  0.00    +0.000 C 
ATOM     27  C   UNL     1      -2.043   9.762  16.284  0.00  0.00    +0.000 C 
ENDBRANCH  20  22
ENDBRANCH  17  18
ENDBRANCH   3  17
BRANCH   3  28
ATOM     28  C   UNL     1      -0.342  12.647  21.922  0.00  0.00    +0.000 C 
BRANCH  28  29
ATOM     29  C   UNL     1      -1.836  12.732  22.202  0.00  0.00    +0.000 A 
ATOM     30  C   UNL     1      -2.389  12.601  23.497  0.00  0.00    +0.000 A 
ATOM     31  C   UNL     1      -3.779  12.569  23.694  0.00  0.00    +0.000 A 
ATOM     32  C   UNL     1      -4.602  12.642  22.589  0.00  0.00    +0.000 A 
ATOM     33  C   UNL     1      -4.079  12.752  21.323  0.00  0.00    +0.000 A 
ATOM     34  C   UNL     1      -2.718  12.802  21.100  0.00  0.00    +0.000 A 
ATOM     35  O   UNL     1      -5.047  12.776  20.366  0.00  0.00    +0.000 OA
ATOM     36  C   UNL     1      -6.235  12.628  21.172  0.00  0.00    +0.000 C 
ATOM     37  O   UNL     1      -5.958  12.589  22.589  0.00  0.00    +0.000 OA
ENDBRANCH  28  29
ENDBRANCH   3  28
TORSDOF 8
ENDMDL
MODEL 5
REMARK VINA RESULT:      -8.3      5.146     10.255
REMARK  Name = 
REMARK  9 active torsions:
REMARK  status: ('A' for Active; 'I' for Inactive)
REMARK    1  A    between atoms: C_1  and  C_2
REMARK    2  A    between atoms: C_8  and  C_10
REMARK    3  A    between atoms: C_10  and  C_11
REMARK    4  A    between atoms: C_11  and  C_12
REMARK    5  A    between atoms: N_14  and  C_15
REMARK    6  A    between atoms: N_14  and  C_25
REMARK    7  A    between atoms: C_15  and  C_16
REMARK    8  A    between atoms: N_18  and  C_19
REMARK    9  A    between atoms: C_25  and  C_26
REMARK                            x       y       z     vdW  Elec       q    Type
REMARK                         _______ _______ _______ _____ _____    ______ ____
ROOT
ATOM      1  C   UNL     1       0.961   9.990  21.283  0.00  0.00    +0.000 C 
ATOM      2  O   UNL     1       1.212  10.017  22.478  0.00  0.00    +0.000 OA
ATOM      3  N   UNL     1       0.573  11.127  20.563  0.00  0.00    +0.000 N 
ENDROOT
BRANCH   1   4
ATOM      4  C   UNL     1       1.074   8.695  20.477  0.00  0.00    +0.000 C 
BRANCH   4   5
ATOM      5  C   UNL     1       1.161   7.408  21.291  0.00  0.00    +0.000 C 
BRANCH   5  13
ATOM      6  C   UNL     1       5.514   6.188  15.619  0.00  0.00    +0.000 C 
ATOM      7  C   UNL     1       4.646   5.571  16.674  0.00  0.00    +0.000 A 
ATOM      8  C   UNL     1       4.444   4.193  16.726  0.00  0.00    +0.000 A 
ATOM      9  C   UNL     1       3.630   3.686  17.715  0.00  0.00    +0.000 A 
ATOM     10  N   UNL     1       3.007   4.447  18.640  0.00  0.00    +0.000 NA
ATOM     11  C   UNL     1       3.203   5.773  18.595  0.00  0.00    +0.000 A 
ATOM     12  N   UNL     1       2.581   6.617  19.517  0.00  0.00    +0.000 N 
ATOM     13  C   UNL     1       1.681   6.233  20.483  0.00  0.00    +0.000 C 
ATOM     14  O   UNL     1       1.275   5.101  20.726  0.00  0.00    +0.000 OA
ATOM     15  C   UNL     1       4.013   6.372  17.627  0.00  0.00    +0.000 A 
ATOM     16  H   UNL     1       2.764   7.613  19.413  0.00  0.00    +0.000 HD
ENDBRANCH   5  13
ENDBRANCH   4   5
ENDBRANCH   1   4
BRANCH   3  17
ATOM     17  C   UNL     1       0.254  11.044  19.135  0.00  0.00    +0.000 C 
BRANCH  17  18
ATOM     18  C   UNL     1      -0.914  11.845  18.553  0.00  0.00    +0.000 C 
ATOM     19  O   UNL     1      -0.771  12.931  18.007  0.00  0.00    +0.000 OA
ATOM     20  N   UNL     1      -2.113  11.201  18.717  0.00  0.00    +0.000 N 
ATOM     21  H   UNL     1      -2.087  10.222  18.978  0.00  0.00    +0.000 HD
BRANCH  20  22
ATOM     22  C   UNL     1      -3.421  11.769  18.512  0.00  0.00    +0.000 C 
ATOM     23  C   UNL     1      -4.199  12.109  19.782  0.00  0.00    +0.000 C 
ATOM     24  C   UNL     1      -5.351  13.038  19.396  0.00  0.00    +0.000 C 
ATOM     25  C   UNL     1      -6.240  12.458  18.289  0.00  0.00    +0.000 C 
ATOM     26  C   UNL     1      -5.465  11.846  17.115  0.00  0.00    +0.000 C 
ATOM     27  C   UNL     1      -4.322  10.947  17.585  0.00  0.00    +0.000 C 
ENDBRANCH  20  22
ENDBRANCH  17  18
ENDBRANCH   3  17
BRANCH   3  28
ATOM     28  C   UNL     1       0.510  12.424  21.245  0.00  0.00    +0.000 C 
BRANCH  28  29
ATOM     29  C   UNL     1      -0.859  12.879  21.731  0.00  0.00    +0.000 A 
ATOM     30  C   UNL     1      -1.383  14.166  21.473  0.00  0.00    +0.000 A 
ATOM     31  C   UNL     1      -2.599  14.584  22.040  0.00  0.00    +0.000 A 
ATOM     32  C   UNL     1      -3.264  13.717  22.882  0.00  0.00    +0.000 A 
ATOM     33  C   UNL     1      -2.758  12.469  23.157  0.00  0.00    +0.000 A 
ATOM     34  C   UNL     1      -1.574  12.026  22.601  0.00  0.00    +0.000 A 
ATOM     35  O   UNL     1      -3.539  11.778  24.031  0.00  0.00    +0.000 OA
ATOM     36  C   UNL     1      -4.570  12.748  24.306  0.00  0.00    +0.000 C 
ATOM     37  O   UNL     1      -4.424  13.964  23.541  0.00  0.00    +0.000 OA
ENDBRANCH  28  29
ENDBRANCH   3  28
TORSDOF 8
ENDMDL
MODEL 6
REMARK VINA RESULT:      -8.3      4.968     10.316
REMARK  Name = 
REMARK  9 active torsions:
REMARK  status: ('A' for Active; 'I' for Inactive)
REMARK    1  A    between atoms: C_1  and  C_2
REMARK    2  A    between atoms: C_8  and  C_10
REMARK    3  A    between atoms: C_10  and  C_11
REMARK    4  A    between atoms: C_11  and  C_12
REMARK    5  A    between atoms: N_14  and  C_15
REMARK    6  A    between atoms: N_14  and  C_25
REMARK    7  A    between atoms: C_15  and  C_16
REMARK    8  A    between atoms: N_18  and  C_19
REMARK    9  A    between atoms: C_25  and  C_26
REMARK                            x       y       z     vdW  Elec       q    Type
REMARK                         _______ _______ _______ _____ _____    ______ ____
ROOT
ATOM      1  C   UNL     1       0.325   9.686  19.341  0.00  0.00    +0.000 C 
ATOM      2  O   UNL     1       1.129   9.737  18.421  0.00  0.00    +0.000 OA
ATOM      3  N   UNL     1       0.567   8.974  20.522  0.00  0.00    +0.000 N 
ENDROOT
BRANCH   1   4
ATOM      4  C   UNL     1      -1.013  10.423  19.266  0.00  0.00    +0.000 C 
BRANCH   4   5
ATOM      5  C   UNL     1      -1.109  11.527  18.218  0.00  0.00    +0.000 C 
BRANCH   5  13
ATOM      6  C   UNL     1       5.397  14.714  17.873  0.00  0.00    +0.000 C 
ATOM      7  C   UNL     1       3.975  14.839  18.330  0.00  0.00    +0.000 A 
ATOM      8  C   UNL     1       3.540  15.962  19.031  0.00  0.00    +0.000 A 
ATOM      9  C   UNL     1       2.222  16.018  19.430  0.00  0.00    +0.000 A 
ATOM     10  N   UNL     1       1.321  15.041  19.186  0.00  0.00    +0.000 NA
ATOM     11  C   UNL     1       1.737  13.961  18.508  0.00  0.00    +0.000 A 
ATOM     12  N   UNL     1       0.857  12.913  18.231  0.00  0.00    +0.000 N 
ATOM     13  C   UNL     1      -0.447  12.819  18.659  0.00  0.00    +0.000 C 
ATOM     14  O   UNL     1      -1.078  13.626  19.332  0.00  0.00    +0.000 OA
ATOM     15  C   UNL     1       3.054  13.824  18.065  0.00  0.00    +0.000 A 
ATOM     16  H   UNL     1       1.245  12.120  17.726  0.00  0.00    +0.000 HD
ENDBRANCH   5  13
ENDBRANCH   4   5
ENDBRANCH   1   4
BRANCH   3  17
ATOM     17  C   UNL     1      -0.438   8.916  21.588  0.00  0.00    +0.000 C 
BRANCH  17  18
ATOM     18  C   UNL     1      -0.487  10.000  22.667  0.00  0.00    +0.000 C 
ATOM     19  O   UNL     1       0.114   9.911  23.729  0.00  0.00    +0.000 OA
ATOM     20  N   UNL     1      -1.272  11.061  22.296  0.00  0.00    +0.000 N 
ATOM     21  H   UNL     1      -1.536  11.130  21.320  0.00  0.00    +0.000 HD
BRANCH  20  22
ATOM     22  C   UNL     1      -1.729  12.125  23.155  0.00  0.00    +0.000 C 
ATOM     23  C   UNL     1      -3.244  12.302  23.236  0.00  0.00    +0.000 C 
ATOM     24  C   UNL     1      -3.554  13.174  24.454  0.00  0.00    +0.000 C 
ATOM     25  C   UNL     1      -2.797  14.508  24.438  0.00  0.00    +0.000 C 
ATOM     26  C   UNL     1      -1.312  14.387  24.074  0.00  0.00    +0.000 C 
ATOM     27  C   UNL     1      -1.087  13.485  22.861  0.00  0.00    +0.000 C 
ENDBRANCH  20  22
ENDBRANCH  17  18
ENDBRANCH   3  17
BRANCH   3  28
ATOM     28  C   UNL     1       1.856   8.298  20.704  0.00  0.00    +0.000 C 
BRANCH  28  29
ATOM     29  C   UNL     1       1.990   6.903  20.110  0.00  0.00    +0.000 A 
ATOM     30  C   UNL     1       1.554   5.733  20.776  0.00  0.00    +0.000 A 
ATOM     31  C   UNL     1       1.803   4.457  20.243  0.00  0.00    +0.000 A 
ATOM     32  C   UNL     1       2.510   4.364  19.062  0.00  0.00    +0.000 A 
ATOM     33  C   UNL     1       2.955   5.491  18.413  0.00  0.00    +0.000 A 
ATOM     34  C   UNL     1       2.711   6.758  18.904  0.00  0.00    +0.000 A 
ATOM     35  O   UNL     1       3.659   5.192  17.286  0.00  0.00    +0.000 OA
ATOM     36  C   UNL     1       3.639   3.750  17.324  0.00  0.00    +0.000 C 
ATOM     37  O   UNL     1       2.870   3.221  18.426  0.00  0.00    +0.000 OA
ENDBRANCH  28  29
ENDBRANCH   3  28
TORSDOF 8
ENDMDL
MODEL 7
REMARK VINA RESULT:      -8.3      5.073      9.628
REMARK  Name = 
REMARK  9 active torsions:
REMARK  status: ('A' for Active; 'I' for Inactive)
REMARK    1  A    between atoms: C_1  and  C_2
REMARK    2  A    between atoms: C_8  and  C_10
REMARK    3  A    between atoms: C_10  and  C_11
REMARK    4  A    between atoms: C_11  and  C_12
REMARK    5  A    between atoms: N_14  and  C_15
REMARK    6  A    between atoms: N_14  and  C_25
REMARK    7  A    between atoms: C_15  and  C_16
REMARK    8  A    between atoms: N_18  and  C_19
REMARK    9  A    between atoms: C_25  and  C_26
REMARK                            x       y       z     vdW  Elec       q    Type
REMARK                         _______ _______ _______ _____ _____    ______ ____
ROOT
ATOM      1  C   UNL     1      -0.259   9.240  22.100  0.00  0.00    +0.000 C 
ATOM      2  O   UNL     1      -0.787   9.183  23.200  0.00  0.00    +0.000 OA
ATOM      3  N   UNL     1      -0.009  10.449  21.439  0.00  0.00    +0.000 N 
ENDROOT
BRANCH   1   4
ATOM      4  C   UNL     1       0.188   7.973  21.367  0.00  0.00    +0.000 C 
BRANCH   4   5
ATOM      5  C   UNL     1       1.655   7.924  20.953  0.00  0.00    +0.000 C 
BRANCH   5  13
ATOM      6  C   UNL     1       5.588   5.616  15.313  0.00  0.00    +0.000 C 
ATOM      7  C   UNL     1       4.731   5.216  16.476  0.00  0.00    +0.000 A 
ATOM      8  C   UNL     1       4.424   3.879  16.720  0.00  0.00    +0.000 A 
ATOM      9  C   UNL     1       3.628   3.575  17.803  0.00  0.00    +0.000 A 
ATOM     10  N   UNL     1       3.117   4.500  18.644  0.00  0.00    +0.000 NA
ATOM     11  C   UNL     1       3.414   5.787  18.414  0.00  0.00    +0.000 A 
ATOM     12  N   UNL     1       2.911   6.793  19.241  0.00  0.00    +0.000 N 
ATOM     13  C   UNL     1       2.036   6.615  20.288  0.00  0.00    +0.000 C 
ATOM     14  O   UNL     1       1.556   5.563  20.696  0.00  0.00    +0.000 OA
ATOM     15  C   UNL     1       4.216   6.184  17.341  0.00  0.00    +0.000 A 
ATOM     16  H   UNL     1       3.166   7.747  18.998  0.00  0.00    +0.000 HD
ENDBRANCH   5  13
ENDBRANCH   4   5
ENDBRANCH   1   4
BRANCH   3  17
ATOM     17  C   UNL     1       0.602  10.470  20.107  0.00  0.00    +0.000 C 
BRANCH  17  18
ATOM     18  C   UNL     1      -0.123  11.129  18.931  0.00  0.00    +0.000 C 
ATOM     19  O   UNL     1       0.126  12.264  18.546  0.00  0.00    +0.000 OA
ATOM     20  N   UNL     1      -1.066  10.302  18.378  0.00  0.00    +0.000 N 
ATOM     21  H   UNL     1      -1.033   9.320  18.628  0.00  0.00    +0.000 HD
BRANCH  20  22
ATOM     22  C   UNL     1      -2.083  10.682  17.430  0.00  0.00    +0.000 C 
ATOM     23  C   UNL     1      -3.480  10.890  18.011  0.00  0.00    +0.000 C 
ATOM     24  C   UNL     1      -4.312  11.653  16.979  0.00  0.00    +0.000 C 
ATOM     25  C   UNL     1      -4.333  10.967  15.606  0.00  0.00    +0.000 C 
ATOM     26  C   UNL     1      -2.960  10.487  15.121  0.00  0.00    +0.000 C 
ATOM     27  C   UNL     1      -2.186   9.752  16.216  0.00  0.00    +0.000 C 
ENDBRANCH  20  22
ENDBRANCH  17  18
ENDBRANCH   3  17
BRANCH   3  28
ATOM     28  C   UNL     1      -0.340  11.715  22.104  0.00  0.00    +0.000 C 
BRANCH  28  29
ATOM     29  C   UNL     1      -1.802  12.137  22.086  0.00  0.00    +0.000 A 
ATOM     30  C   UNL     1      -2.398  12.815  20.997  0.00  0.00    +0.000 A 
ATOM     31  C   UNL     1      -3.718  13.290  21.070  0.00  0.00    +0.000 A 
ATOM     32  C   UNL     1      -4.419  13.105  22.243  0.00  0.00    +0.000 A 
ATOM     33  C   UNL     1      -3.848  12.464  23.316  0.00  0.00    +0.000 A 
ATOM     34  C   UNL     1      -2.559  11.972  23.268  0.00  0.00    +0.000 A 
ATOM     35  O   UNL     1      -4.685  12.409  24.389  0.00  0.00    +0.000 OA
ATOM     36  C   UNL     1      -5.830  13.124  23.881  0.00  0.00    +0.000 C 
ATOM     37  O   UNL     1      -5.683  13.527  22.502  0.00  0.00    +0.000 OA
ENDBRANCH  28  29
ENDBRANCH   3  28
TORSDOF 8
ENDMDL
MODEL 8
REMARK VINA RESULT:      -8.2      5.637     10.938
REMARK  Name = 
REMARK  9 active torsions:
REMARK  status: ('A' for Active; 'I' for Inactive)
REMARK    1  A    between atoms: C_1  and  C_2
REMARK    2  A    between atoms: C_8  and  C_10
REMARK    3  A    between atoms: C_10  and  C_11
REMARK    4  A    between atoms: C_11  and  C_12
REMARK    5  A    between atoms: N_14  and  C_15
REMARK    6  A    between atoms: N_14  and  C_25
REMARK    7  A    between atoms: C_15  and  C_16
REMARK    8  A    between atoms: N_18  and  C_19
REMARK    9  A    between atoms: C_25  and  C_26
REMARK                            x       y       z     vdW  Elec       q    Type
REMARK                         _______ _______ _______ _____ _____    ______ ____
ROOT
ATOM      1  C   UNL     1       0.636  10.819  20.257  0.00  0.00    +0.000 C 
ATOM      2  O   UNL     1       1.270  10.847  21.302  0.00  0.00    +0.000 OA
ATOM      3  N   UNL     1      -0.143  11.894  19.813  0.00  0.00    +0.000 N 
ENDROOT
BRANCH   1   4
ATOM      4  C   UNL     1       0.667   9.593  19.343  0.00  0.00    +0.000 C 
BRANCH   4   5
ATOM      5  C   UNL     1       1.763   9.580  18.282  0.00  0.00    +0.000 C 
BRANCH   5  13
ATOM      6  C   UNL     1       1.947   3.236  21.792  0.00  0.00    +0.000 C 
ATOM      7  C   UNL     1       2.477   4.033  20.638  0.00  0.00    +0.000 A 
ATOM      8  C   UNL     1       3.445   3.509  19.784  0.00  0.00    +0.000 A 
ATOM      9  C   UNL     1       3.897   4.292  18.744  0.00  0.00    +0.000 A 
ATOM     10  N   UNL     1       3.459   5.546  18.502  0.00  0.00    +0.000 NA
ATOM     11  C   UNL     1       2.524   6.051  19.320  0.00  0.00    +0.000 A 
ATOM     12  N   UNL     1       2.035   7.345  19.130  0.00  0.00    +0.000 N 
ATOM     13  C   UNL     1       2.478   8.245  18.188  0.00  0.00    +0.000 C 
ATOM     14  O   UNL     1       3.351   8.081  17.343  0.00  0.00    +0.000 OA
ATOM     15  C   UNL     1       2.009   5.326  20.398  0.00  0.00    +0.000 A 
ATOM     16  H   UNL     1       1.338   7.667  19.798  0.00  0.00    +0.000 HD
ENDBRANCH   5  13
ENDBRANCH   4   5
ENDBRANCH   1   4
BRANCH   3  17
ATOM     17  C   UNL     1      -0.910  11.807  18.567  0.00  0.00    +0.000 C 
BRANCH  17  18
ATOM     18  C   UNL     1      -2.340  11.260  18.573  0.00  0.00    +0.000 C 
ATOM     19  O   UNL     1      -2.628  10.147  18.152  0.00  0.00    +0.000 OA
ATOM     20  N   UNL     1      -3.233  12.156  19.098  0.00  0.00    +0.000 N 
ATOM     21  H   UNL     1      -2.858  12.945  19.613  0.00  0.00    +0.000 HD
BRANCH  20  22
ATOM     22  C   UNL     1      -4.670  12.066  19.032  0.00  0.00    +0.000 C 
ATOM     23  C   UNL     1      -5.285  12.345  17.662  0.00  0.00    +0.000 C 
ATOM     24  C   UNL     1      -6.725  11.830  17.676  0.00  0.00    +0.000 C 
ATOM     25  C   UNL     1      -7.553  12.408  18.831  0.00  0.00    +0.000 C 
ATOM     26  C   UNL     1      -6.836  12.400  20.187  0.00  0.00    +0.000 C 
ATOM     27  C   UNL     1      -5.400  12.911  20.083  0.00  0.00    +0.000 C 
ENDBRANCH  20  22
ENDBRANCH  17  18
ENDBRANCH   3  17
BRANCH   3  28
ATOM     28  C   UNL     1      -0.170  13.136  20.595  0.00  0.00    +0.000 C 
BRANCH  28  29
ATOM     29  C   UNL     1      -1.414  13.392  21.434  0.00  0.00    +0.000 A 
ATOM     30  C   UNL     1      -2.028  14.661  21.540  0.00  0.00    +0.000 A 
ATOM     31  C   UNL     1      -3.104  14.879  22.417  0.00  0.00    +0.000 A 
ATOM     32  C   UNL     1      -3.537  13.828  23.199  0.00  0.00    +0.000 A 
ATOM     33  C   UNL     1      -2.939  12.593  23.120  0.00  0.00    +0.000 A 
ATOM     34  C   UNL     1      -1.891  12.346  22.256  0.00  0.00    +0.000 A 
ATOM     35  O   UNL     1      -3.484  11.700  23.991  0.00  0.00    +0.000 OA
ATOM     36  C   UNL     1      -4.464  12.526  24.655  0.00  0.00    +0.000 C 
ATOM     37  O   UNL     1      -4.532  13.866  24.121  0.00  0.00    +0.000 OA
ENDBRANCH  28  29
ENDBRANCH   3  28
TORSDOF 8
ENDMDL
MODEL 9
REMARK VINA RESULT:      -8.2      5.143     10.218
REMARK  Name = 
REMARK  9 active torsions:
REMARK  status: ('A' for Active; 'I' for Inactive)
REMARK    1  A    between atoms: C_1  and  C_2
REMARK    2  A    between atoms: C_8  and  C_10
REMARK    3  A    between atoms: C_10  and  C_11
REMARK    4  A    between atoms: C_11  and  C_12
REMARK    5  A    between atoms: N_14  and  C_15
REMARK    6  A    between atoms: N_14  and  C_25
REMARK    7  A    between atoms: C_15  and  C_16
REMARK    8  A    between atoms: N_18  and  C_19
REMARK    9  A    between atoms: C_25  and  C_26
REMARK                            x       y       z     vdW  Elec       q    Type
REMARK                         _______ _______ _______ _____ _____    ______ ____
ROOT
ATOM      1  C   UNL     1       1.123   9.211  19.859  0.00  0.00    +0.000 C 
ATOM      2  O   UNL     1       1.177   8.306  20.678  0.00  0.00    +0.000 OA
ATOM      3  N   UNL     1       0.924  10.550  20.217  0.00  0.00    +0.000 N 
ENDROOT
BRANCH   1   4
ATOM      4  C   UNL     1       1.291   8.938  18.363  0.00  0.00    +0.000 C 
BRANCH   4   5
ATOM      5  C   UNL     1       2.725   8.928  17.843  0.00  0.00    +0.000 C 
BRANCH   5  13
ATOM      6  C   UNL     1       0.643   2.064  18.917  0.00  0.00    +0.000 C 
ATOM      7  C   UNL     1       1.728   2.969  18.416  0.00  0.00    +0.000 A 
ATOM      8  C   UNL     1       2.935   2.455  17.947  0.00  0.00    +0.000 A 
ATOM      9  C   UNL     1       3.896   3.338  17.504  0.00  0.00    +0.000 A 
ATOM     10  N   UNL     1       3.741   4.680  17.502  0.00  0.00    +0.000 NA
ATOM     11  C   UNL     1       2.578   5.176  17.950  0.00  0.00    +0.000 A 
ATOM     12  N   UNL     1       2.358   6.554  17.982  0.00  0.00    +0.000 N 
ATOM     13  C   UNL     1       3.275   7.526  17.655  0.00  0.00    +0.000 C 
ATOM     14  O   UNL     1       4.427   7.373  17.264  0.00  0.00    +0.000 OA
ATOM     15  C   UNL     1       1.549   4.354  18.415  0.00  0.00    +0.000 A 
ATOM     16  H   UNL     1       1.459   6.859  18.348  0.00  0.00    +0.000 HD
ENDBRANCH   5  13
ENDBRANCH   4   5
ENDBRANCH   1   4
BRANCH   3  17
ATOM     17  C   UNL     1       0.837  11.600  19.198  0.00  0.00    +0.000 C 
BRANCH  17  18
ATOM     18  C   UNL     1      -0.525  12.083  18.695  0.00  0.00    +0.000 C 
ATOM     19  O   UNL     1      -0.708  13.204  18.239  0.00  0.00    +0.000 OA
ATOM     20  N   UNL     1      -1.491  11.118  18.816  0.00  0.00    +0.000 N 
ATOM     21  H   UNL     1      -1.185  10.168  18.995  0.00  0.00    +0.000 HD
BRANCH  20  22
ATOM     22  C   UNL     1      -2.912  11.310  18.669  0.00  0.00    +0.000 C 
ATOM     23  C   UNL     1      -3.408  11.489  17.236  0.00  0.00    +0.000 C 
ATOM     24  C   UNL     1      -4.923  11.283  17.230  0.00  0.00    +0.000 C 
ATOM     25  C   UNL     1      -5.651  12.190  18.231  0.00  0.00    +0.000 C 
ATOM     26  C   UNL     1      -4.998  12.250  19.618  0.00  0.00    +0.000 C 
ATOM     27  C   UNL     1      -3.484  12.438  19.535  0.00  0.00    +0.000 C 
ENDBRANCH  20  22
ENDBRANCH  17  18
ENDBRANCH   3  17
BRANCH   3  28
ATOM     28  C   UNL     1       0.826  10.908  21.637  0.00  0.00    +0.000 C 
BRANCH  28  29
ATOM     29  C   UNL     1      -0.304  11.849  22.031  0.00  0.00    +0.000 A 
ATOM     30  C   UNL     1      -0.201  13.257  21.953  0.00  0.00    +0.000 A 
ATOM     31  C   UNL     1      -1.224  14.090  22.437  0.00  0.00    +0.000 A 
ATOM     32  C   UNL     1      -2.328  13.503  23.019  0.00  0.00    +0.000 A 
ATOM     33  C   UNL     1      -2.436  12.137  23.118  0.00  0.00    +0.000 A 
ATOM     34  C   UNL     1      -1.454  11.294  22.636  0.00  0.00    +0.000 A 
ATOM     35  O   UNL     1      -3.578  11.754  23.750  0.00  0.00    +0.000 OA
ATOM     36  C   UNL     1      -4.157  13.035  24.073  0.00  0.00    +0.000 C 
ATOM     37  O   UNL     1      -3.388  14.149  23.568  0.00  0.00    +0.000 OA
ENDBRANCH  28  29
ENDBRANCH   3  28
TORSDOF 8
ENDMDL
