MODEL 1
REMARK VINA RESULT:      -6.4      0.000      0.000
REMARK  Name = 
REMARK  12 active torsions:
REMARK  status: ('A' for Active; 'I' for Inactive)
REMARK    1  A    between atoms: C_1  and  C_2
REMARK    2  A    between atoms: C_2  and  C_3
REMARK    3  A    between atoms: C_3  and  C_4
REMARK    4  A    between atoms: C_4  and  N_5
REMARK    5  A    between atoms: C_4  and  P_6
REMARK    6  A    between atoms: P_6  and  O_8
REMARK    7  A    between atoms: P_6  and  C_9
REMARK    8  A    between atoms: C_9  and  N_11
REMARK    9  A    between atoms: N_11  and  C_12
REMARK   10  A    between atoms: C_12  and  C_13
REMARK   11  A    between atoms: C_16  and  O_17
REMARK   12  A    between atoms: O_17  and  C_18
REMARK                            x       y       z     vdW  Elec       q    Type
REMARK                         _______ _______ _______ _____ _____    ______ ____
ROOT
ATOM      1  C   UNL     1       2.408   3.842  20.158  0.00  0.00    +0.000 C 
ATOM      2  S   UNL     1       2.017   2.919  21.512  0.00  0.00    +0.000 S 
ENDROOT
BRANCH   1   3
ATOM      3  P   UNL     1       2.315   3.078  18.526  0.00  0.00    +0.000 P 
ATOM      4  O   UNL     1       1.348   3.689  17.547  0.00  0.00    +0.000 OA
BRANCH   3   5
ATOM      5  O   UNL     1       2.079   1.474  18.681  0.00  0.00    +0.000 OA
ATOM      6  H   UNL     1       1.331   1.311  19.310  0.00  0.00    +0.000 HD
ENDBRANCH   3   5
BRANCH   3   7
ATOM      7  C   UNL     1       4.001   3.048  17.825  0.00  0.00    +0.000 C 
BRANCH   7   8
ATOM      8  N   UNL     1       4.970   3.154  18.942  0.00  0.00    +0.000 NA
ATOM      9  H   UNL     1       4.489   3.509  19.775  0.00  0.00    +0.000 HD
ATOM     10  H   UNL     1       5.652   3.885  18.718  0.00  0.00    +0.000 HD
ENDBRANCH   7   8
BRANCH   7  11
ATOM     11  C   UNL     1       4.345   3.874  16.591  0.00  0.00    +0.000 C 
BRANCH  11  13
ATOM     12  C   UNL     1       5.616   6.093  16.619  0.00  0.00    +0.000 C 
ATOM     13  C   UNL     1       5.702   4.584  16.769  0.00  0.00    +0.000 C 
ENDBRANCH  11  13
ENDBRANCH   7  11
ENDBRANCH   3   7
ENDBRANCH   1   3
BRANCH   1  14
ATOM     14  N   UNL     1       2.636   5.190  20.406  0.00  0.00    +0.000 N 
ATOM     15  H   UNL     1       2.679   5.453  21.388  0.00  0.00    +0.000 HD
BRANCH  14  16
ATOM     16  C   UNL     1       3.158   6.136  19.448  0.00  0.00    +0.000 C 
BRANCH  16  17
ATOM     17  C   UNL     1       2.397   7.434  19.359  0.00  0.00    +0.000 A 
ATOM     18  C   UNL     1       2.296   8.110  18.135  0.00  0.00    +0.000 A 
ATOM     19  C   UNL     1       1.479   9.239  18.006  0.00  0.00    +0.000 A 
ATOM     20  C   UNL     1       0.737   9.710  19.093  0.00  0.00    +0.000 A 
ATOM     21  C   UNL     1       0.858   9.065  20.323  0.00  0.00    +0.000 A 
ATOM     22  C   UNL     1       1.684   7.938  20.457  0.00  0.00    +0.000 A 
BRANCH  20  23
ATOM     23  O   UNL     1      -0.027  10.809  18.831  0.00  0.00    +0.000 OA
ATOM     24  C   UNL     1      -1.258  10.581  18.149  0.00  0.00    +0.000 C 
ENDBRANCH  20  23
ENDBRANCH  16  17
ENDBRANCH  14  16
ENDBRANCH   1  14
TORSDOF 10
ENDMDL
MODEL 2
REMARK VINA RESULT:      -6.2      3.464      4.015
REMARK  Name = 
REMARK  12 active torsions:
REMARK  status: ('A' for Active; 'I' for Inactive)
REMARK    1  A    between atoms: C_1  and  C_2
REMARK    2  A    between atoms: C_2  and  C_3
REMARK    3  A    between atoms: C_3  and  C_4
REMARK    4  A    between atoms: C_4  and  N_5
REMARK    5  A    between atoms: C_4  and  P_6
REMARK    6  A    between atoms: P_6  and  O_8
REMARK    7  A    between atoms: P_6  and  C_9
REMARK    8  A    between atoms: C_9  and  N_11
REMARK    9  A    between atoms: N_11  and  C_12
REMARK   10  A    between atoms: C_12  and  C_13
REMARK   11  A    between atoms: C_16  and  O_17
REMARK   12  A    between atoms: O_17  and  C_18
REMARK                            x       y       z     vdW  Elec       q    Type
REMARK                         _______ _______ _______ _____ _____    ______ ____
ROOT
ATOM      1  C   UNL     1       5.290   4.655  18.443  0.00  0.00    +0.000 C 
ATOM      2  S   UNL     1       4.686   3.407  19.401  0.00  0.00    +0.000 S 
ENDROOT
BRANCH   1   3
ATOM      3  P   UNL     1       7.041   5.071  18.556  0.00  0.00    +0.000 P 
ATOM      4  O   UNL     1       8.009   4.094  17.945  0.00  0.00    +0.000 OA
BRANCH   3   5
ATOM      5  O   UNL     1       7.428   5.414  20.100  0.00  0.00    +0.000 OA
ATOM      6  H   UNL     1       8.130   6.113  20.116  0.00  0.00    +0.000 HD
ENDBRANCH   3   5
BRANCH   3   7
ATOM      7  C   UNL     1       7.269   6.732  17.833  0.00  0.00    +0.000 C 
BRANCH   7   8
ATOM      8  N   UNL     1       7.340   6.591  16.359  0.00  0.00    +0.000 NA
ATOM      9  H   UNL     1       7.742   7.444  15.956  0.00  0.00    +0.000 HD
ATOM     10  H   UNL     1       6.387   6.564  15.984  0.00  0.00    +0.000 HD
ENDBRANCH   7   8
BRANCH   7  11
ATOM     11  C   UNL     1       8.268   7.713  18.436  0.00  0.00    +0.000 C 
BRANCH  11  13
ATOM     12  C   UNL     1       9.019  10.158  18.435  0.00  0.00    +0.000 C 
ATOM     13  C   UNL     1       8.040   9.134  17.885  0.00  0.00    +0.000 C 
ENDBRANCH  11  13
ENDBRANCH   7  11
ENDBRANCH   3   7
ENDBRANCH   1   3
BRANCH   1  14
ATOM     14  N   UNL     1       4.394   5.177  17.518  0.00  0.00    +0.000 N 
ATOM     15  H   UNL     1       4.730   5.220  16.559  0.00  0.00    +0.000 HD
BRANCH  14  16
ATOM     16  C   UNL     1       2.971   5.312  17.722  0.00  0.00    +0.000 C 
BRANCH  16  17
ATOM     17  C   UNL     1       2.552   6.557  18.460  0.00  0.00    +0.000 A 
ATOM     18  C   UNL     1       2.317   7.749  17.759  0.00  0.00    +0.000 A 
ATOM     19  C   UNL     1       1.795   8.872  18.410  0.00  0.00    +0.000 A 
ATOM     20  C   UNL     1       1.483   8.826  19.772  0.00  0.00    +0.000 A 
ATOM     21  C   UNL     1       1.744   7.657  20.485  0.00  0.00    +0.000 A 
ATOM     22  C   UNL     1       2.278   6.532  19.836  0.00  0.00    +0.000 A 
BRANCH  20  23
ATOM     23  O   UNL     1       0.969   9.982  20.281  0.00  0.00    +0.000 OA
ATOM     24  C   UNL     1       0.030   9.848  21.345  0.00  0.00    +0.000 C 
ENDBRANCH  20  23
ENDBRANCH  16  17
ENDBRANCH  14  16
ENDBRANCH   1  14
TORSDOF 10
ENDMDL
MODEL 3
REMARK VINA RESULT:      -6.2      2.603      6.039
REMARK  Name = 
REMARK  12 active torsions:
REMARK  status: ('A' for Active; 'I' for Inactive)
REMARK    1  A    between atoms: C_1  and  C_2
REMARK    2  A    between atoms: C_2  and  C_3
REMARK    3  A    between atoms: C_3  and  C_4
REMARK    4  A    between atoms: C_4  and  N_5
REMARK    5  A    between atoms: C_4  and  P_6
REMARK    6  A    between atoms: P_6  and  O_8
REMARK    7  A    between atoms: P_6  and  C_9
REMARK    8  A    between atoms: C_9  and  N_11
REMARK    9  A    between atoms: N_11  and  C_12
REMARK   10  A    between atoms: C_12  and  C_13
REMARK   11  A    between atoms: C_16  and  O_17
REMARK   12  A    between atoms: O_17  and  C_18
REMARK                            x       y       z     vdW  Elec       q    Type
REMARK                         _______ _______ _______ _____ _____    ______ ____
ROOT
ATOM      1  C   UNL     1       3.699   3.049  19.370  0.00  0.00    +0.000 C 
ATOM      2  S   UNL     1       3.277   1.595  18.630  0.00  0.00    +0.000 S 
ENDROOT
BRANCH   1   3
ATOM      3  P   UNL     1       2.430   3.979  20.252  0.00  0.00    +0.000 P 
ATOM      4  O   UNL     1       2.428   3.864  21.753  0.00  0.00    +0.000 OA
BRANCH   3   5
ATOM      5  O   UNL     1       0.966   3.647  19.623  0.00  0.00    +0.000 OA
ATOM      6  H   UNL     1       0.261   4.002  20.222  0.00  0.00    +0.000 HD
ENDBRANCH   3   5
BRANCH   3   7
ATOM      7  C   UNL     1       2.564   5.728  19.747  0.00  0.00    +0.000 C 
BRANCH   7   8
ATOM      8  N   UNL     1       1.891   6.560  20.773  0.00  0.00    +0.000 NA
ATOM      9  H   UNL     1       0.915   6.713  20.498  0.00  0.00    +0.000 HD
ATOM     10  H   UNL     1       2.303   7.498  20.758  0.00  0.00    +0.000 HD
ENDBRANCH   7   8
BRANCH   7  11
ATOM     11  C   UNL     1       2.301   6.144  18.304  0.00  0.00    +0.000 C 
BRANCH  11  13
ATOM     12  C   UNL     1       2.161   8.642  17.774  0.00  0.00    +0.000 C 
ATOM     13  C   UNL     1       3.066   7.436  17.958  0.00  0.00    +0.000 C 
ENDBRANCH  11  13
ENDBRANCH   7  11
ENDBRANCH   3   7
ENDBRANCH   1   3
BRANCH   1  14
ATOM     14  N   UNL     1       5.056   3.346  19.359  0.00  0.00    +0.000 N 
ATOM     15  H   UNL     1       5.679   2.556  19.514  0.00  0.00    +0.000 HD
BRANCH  14  16
ATOM     16  C   UNL     1       5.642   4.545  18.808  0.00  0.00    +0.000 C 
BRANCH  16  17
ATOM     17  C   UNL     1       6.046   4.446  17.360  0.00  0.00    +0.000 A 
ATOM     18  C   UNL     1       5.136   3.973  16.403  0.00  0.00    +0.000 A 
ATOM     19  C   UNL     1       5.447   4.006  15.040  0.00  0.00    +0.000 A 
ATOM     20  C   UNL     1       6.669   4.523  14.600  0.00  0.00    +0.000 A 
ATOM     21  C   UNL     1       7.594   4.965  15.544  0.00  0.00    +0.000 A 
ATOM     22  C   UNL     1       7.287   4.923  16.914  0.00  0.00    +0.000 A 
BRANCH  20  23
ATOM     23  O   UNL     1       6.842   4.509  13.247  0.00  0.00    +0.000 OA
ATOM     24  C   UNL     1       6.091   3.542  12.518  0.00  0.00    +0.000 C 
ENDBRANCH  20  23
ENDBRANCH  16  17
ENDBRANCH  14  16
ENDBRANCH   1  14
TORSDOF 10
ENDMDL
MODEL 4
REMARK VINA RESULT:      -6.2      2.979      3.354
REMARK  Name = 
REMARK  12 active torsions:
REMARK  status: ('A' for Active; 'I' for Inactive)
REMARK    1  A    between atoms: C_1  and  C_2
REMARK    2  A    between atoms: C_2  and  C_3
REMARK    3  A    between atoms: C_3  and  C_4
REMARK    4  A    between atoms: C_4  and  N_5
REMARK    5  A    between atoms: C_4  and  P_6
REMARK    6  A    between atoms: P_6  and  O_8
REMARK    7  A    between atoms: P_6  and  C_9
REMARK    8  A    between atoms: C_9  and  N_11
REMARK    9  A    between atoms: N_11  and  C_12
REMARK   10  A    between atoms: C_12  and  C_13
REMARK   11  A    between atoms: C_16  and  O_17
REMARK   12  A    between atoms: O_17  and  C_18
REMARK                            x       y       z     vdW  Elec       q    Type
REMARK                         _______ _______ _______ _____ _____    ______ ____
ROOT
ATOM      1  C   UNL     1       4.598   5.228  18.025  0.00  0.00    +0.000 C 
ATOM      2  S   UNL     1       3.691   3.969  17.368  0.00  0.00    +0.000 S 
ENDROOT
BRANCH   1   3
ATOM      3  P   UNL     1       5.909   5.968  17.031  0.00  0.00    +0.000 P 
ATOM      4  O   UNL     1       6.904   6.831  17.759  0.00  0.00    +0.000 OA
BRANCH   3   5
ATOM      5  O   UNL     1       5.262   6.744  15.755  0.00  0.00    +0.000 OA
ATOM      6  H   UNL     1       4.652   7.455  16.076  0.00  0.00    +0.000 HD
ENDBRANCH   3   5
BRANCH   3   7
ATOM      7  C   UNL     1       6.763   4.622  16.139  0.00  0.00    +0.000 C 
BRANCH   7   8
ATOM      8  N   UNL     1       7.942   4.211  16.939  0.00  0.00    +0.000 NA
ATOM      9  H   UNL     1       8.524   5.033  17.130  0.00  0.00    +0.000 HD
ATOM     10  H   UNL     1       8.539   3.612  16.361  0.00  0.00    +0.000 HD
ENDBRANCH   7   8
BRANCH   7  11
ATOM     11  C   UNL     1       7.001   4.713  14.636  0.00  0.00    +0.000 C 
BRANCH  11  13
ATOM     12  C   UNL     1       6.366   3.575  12.436  0.00  0.00    +0.000 C 
ATOM     13  C   UNL     1       5.955   3.885  13.866  0.00  0.00    +0.000 C 
ENDBRANCH  11  13
ENDBRANCH   7  11
ENDBRANCH   3   7
ENDBRANCH   1   3
BRANCH   1  14
ATOM     14  N   UNL     1       4.154   5.699  19.254  0.00  0.00    +0.000 N 
ATOM     15  H   UNL     1       4.853   6.174  19.820  0.00  0.00    +0.000 HD
BRANCH  14  16
ATOM     16  C   UNL     1       2.771   5.891  19.622  0.00  0.00    +0.000 C 
BRANCH  16  17
ATOM     17  C   UNL     1       2.252   7.292  19.429  0.00  0.00    +0.000 A 
ATOM     18  C   UNL     1       2.310   7.899  18.166  0.00  0.00    +0.000 A 
ATOM     19  C   UNL     1       1.708   9.142  17.940  0.00  0.00    +0.000 A 
ATOM     20  C   UNL     1       1.024   9.800  18.966  0.00  0.00    +0.000 A 
ATOM     21  C   UNL     1       0.990   9.221  20.234  0.00  0.00    +0.000 A 
ATOM     22  C   UNL     1       1.602   7.979  20.465  0.00  0.00    +0.000 A 
BRANCH  20  23
ATOM     23  O   UNL     1       0.473  10.996  18.611  0.00  0.00    +0.000 OA
ATOM     24  C   UNL     1      -0.041  11.800  19.670  0.00  0.00    +0.000 C 
ENDBRANCH  20  23
ENDBRANCH  16  17
ENDBRANCH  14  16
ENDBRANCH   1  14
TORSDOF 10
ENDMDL
MODEL 5
REMARK VINA RESULT:      -6.1      2.640      3.722
REMARK  Name = 
REMARK  12 active torsions:
REMARK  status: ('A' for Active; 'I' for Inactive)
REMARK    1  A    between atoms: C_1  and  C_2
REMARK    2  A    between atoms: C_2  and  C_3
REMARK    3  A    between atoms: C_3  and  C_4
REMARK    4  A    between atoms: C_4  and  N_5
REMARK    5  A    between atoms: C_4  and  P_6
REMARK    6  A    between atoms: P_6  and  O_8
REMARK    7  A    between atoms: P_6  and  C_9
REMARK    8  A    between atoms: C_9  and  N_11
REMARK    9  A    between atoms: N_11  and  C_12
REMARK   10  A    between atoms: C_12  and  C_13
REMARK   11  A    between atoms: C_16  and  O_17
REMARK   12  A    between atoms: O_17  and  C_18
REMARK                            x       y       z     vdW  Elec       q    Type
REMARK                         _______ _______ _______ _____ _____    ______ ____
ROOT
ATOM      1  C   UNL     1       4.120   5.527  17.792  0.00  0.00    +0.000 C 
ATOM      2  S   UNL     1       4.983   6.221  16.522  0.00  0.00    +0.000 S 
ENDROOT
BRANCH   1   3
ATOM      3  P   UNL     1       4.352   3.774  18.148  0.00  0.00    +0.000 P 
ATOM      4  O   UNL     1       5.003   3.430  19.461  0.00  0.00    +0.000 OA
BRANCH   3   5
ATOM      5  O   UNL     1       5.105   3.053  16.898  0.00  0.00    +0.000 OA
ATOM      6  H   UNL     1       4.775   3.439  16.047  0.00  0.00    +0.000 HD
ENDBRANCH   3   5
BRANCH   3   7
ATOM      7  C   UNL     1       2.726   2.954  18.008  0.00  0.00    +0.000 C 
BRANCH   7   8
ATOM      8  N   UNL     1       1.799   3.878  17.310  0.00  0.00    +0.000 NA
ATOM      9  H   UNL     1       0.850   3.742  17.673  0.00  0.00    +0.000 HD
ATOM     10  H   UNL     1       1.733   3.597  16.327  0.00  0.00    +0.000 HD
ENDBRANCH   7   8
BRANCH   7  11
ATOM     11  C   UNL     1       2.125   2.210  19.195  0.00  0.00    +0.000 C 
BRANCH  11  13
ATOM     12  C   UNL     1       1.345   3.973  20.875  0.00  0.00    +0.000 C 
ATOM     13  C   UNL     1       0.937   2.994  19.787  0.00  0.00    +0.000 C 
ENDBRANCH  11  13
ENDBRANCH   7  11
ENDBRANCH   3   7
ENDBRANCH   1   3
BRANCH   1  14
ATOM     14  N   UNL     1       3.391   6.419  18.569  0.00  0.00    +0.000 N 
ATOM     15  H   UNL     1       3.671   6.479  19.546  0.00  0.00    +0.000 HD
BRANCH  14  16
ATOM     16  C   UNL     1       2.560   7.482  18.058  0.00  0.00    +0.000 C 
BRANCH  16  17
ATOM     17  C   UNL     1       1.831   8.279  19.109  0.00  0.00    +0.000 A 
ATOM     18  C   UNL     1       1.710   7.781  20.415  0.00  0.00    +0.000 A 
ATOM     19  C   UNL     1       1.161   8.568  21.433  0.00  0.00    +0.000 A 
ATOM     20  C   UNL     1       0.731   9.872  21.173  0.00  0.00    +0.000 A 
ATOM     21  C   UNL     1       0.815  10.365  19.872  0.00  0.00    +0.000 A 
ATOM     22  C   UNL     1       1.358   9.573  18.846  0.00  0.00    +0.000 A 
BRANCH  20  23
ATOM     23  O   UNL     1       0.228  10.535  22.254  0.00  0.00    +0.000 OA
ATOM     24  C   UNL     1      -0.361   9.734  23.275  0.00  0.00    +0.000 C 
ENDBRANCH  20  23
ENDBRANCH  16  17
ENDBRANCH  14  16
ENDBRANCH   1  14
TORSDOF 10
ENDMDL
MODEL 6
REMARK VINA RESULT:      -6.1      3.637      4.684
REMARK  Name = 
REMARK  12 active torsions:
REMARK  status: ('A' for Active; 'I' for Inactive)
REMARK    1  A    between atoms: C_1  and  C_2
REMARK    2  A    between atoms: C_2  and  C_3
REMARK    3  A    between atoms: C_3  and  C_4
REMARK    4  A    between atoms: C_4  and  N_5
REMARK    5  A    between atoms: C_4  and  P_6
REMARK    6  A    between atoms: P_6  and  O_8
REMARK    7  A    between atoms: P_6  and  C_9
REMARK    8  A    between atoms: C_9  and  N_11
REMARK    9  A    between atoms: N_11  and  C_12
REMARK   10  A    between atoms: C_12  and  C_13
REMARK   11  A    between atoms: C_16  and  O_17
REMARK   12  A    between atoms: O_17  and  C_18
REMARK                            x       y       z     vdW  Elec       q    Type
REMARK                         _______ _______ _______ _____ _____    ______ ____
ROOT
ATOM      1  C   UNL     1       6.040   4.889  17.748  0.00  0.00    +0.000 C 
ATOM      2  S   UNL     1       6.606   5.309  19.278  0.00  0.00    +0.000 S 
ENDROOT
BRANCH   1   3
ATOM      3  P   UNL     1       6.550   5.879  16.328  0.00  0.00    +0.000 P 
ATOM      4  O   UNL     1       7.672   6.856  16.553  0.00  0.00    +0.000 OA
BRANCH   3   5
ATOM      5  O   UNL     1       5.250   6.600  15.664  0.00  0.00    +0.000 OA
ATOM      6  H   UNL     1       5.120   6.261  14.742  0.00  0.00    +0.000 HD
ENDBRANCH   3   5
BRANCH   3   7
ATOM      7  C   UNL     1       6.963   4.734  14.967  0.00  0.00    +0.000 C 
BRANCH   7   8
ATOM      8  N   UNL     1       8.003   5.372  14.125  0.00  0.00    +0.000 NA
ATOM      9  H   UNL     1       8.586   4.644  13.698  0.00  0.00    +0.000 HD
ATOM     10  H   UNL     1       8.650   5.884  14.732  0.00  0.00    +0.000 HD
ENDBRANCH   7   8
BRANCH   7  11
ATOM     11  C   UNL     1       5.863   4.010  14.198  0.00  0.00    +0.000 C 
BRANCH  11  13
ATOM     12  C   UNL     1       5.779   2.681  12.015  0.00  0.00    +0.000 C 
ATOM     13  C   UNL     1       6.179   3.982  12.689  0.00  0.00    +0.000 C 
ENDBRANCH  11  13
ENDBRANCH   7  11
ENDBRANCH   3   7
ENDBRANCH   1   3
BRANCH   1  14
ATOM     14  N   UNL     1       5.325   3.700  17.687  0.00  0.00    +0.000 N 
ATOM     15  H   UNL     1       5.826   2.870  17.997  0.00  0.00    +0.000 HD
BRANCH  14  16
ATOM     16  C   UNL     1       3.889   3.596  17.578  0.00  0.00    +0.000 C 
BRANCH  16  17
ATOM     17  C   UNL     1       3.117   4.589  18.409  0.00  0.00    +0.000 A 
ATOM     18  C   UNL     1       2.771   4.283  19.734  0.00  0.00    +0.000 A 
ATOM     19  C   UNL     1       2.179   5.245  20.559  0.00  0.00    +0.000 A 
ATOM     20  C   UNL     1       1.930   6.536  20.086  0.00  0.00    +0.000 A 
ATOM     21  C   UNL     1       2.239   6.840  18.761  0.00  0.00    +0.000 A 
ATOM     22  C   UNL     1       2.825   5.873  17.927  0.00  0.00    +0.000 A 
BRANCH  20  23
ATOM     23  O   UNL     1       1.362   7.379  20.994  0.00  0.00    +0.000 OA
ATOM     24  C   UNL     1       1.191   8.734  20.586  0.00  0.00    +0.000 C 
ENDBRANCH  20  23
ENDBRANCH  16  17
ENDBRANCH  14  16
ENDBRANCH   1  14
TORSDOF 10
ENDMDL
MODEL 7
REMARK VINA RESULT:      -6.1      3.148      3.735
REMARK  Name = 
REMARK  12 active torsions:
REMARK  status: ('A' for Active; 'I' for Inactive)
REMARK    1  A    between atoms: C_1  and  C_2
REMARK    2  A    between atoms: C_2  and  C_3
REMARK    3  A    between atoms: C_3  and  C_4
REMARK    4  A    between atoms: C_4  and  N_5
REMARK    5  A    between atoms: C_4  and  P_6
REMARK    6  A    between atoms: P_6  and  O_8
REMARK    7  A    between atoms: P_6  and  C_9
REMARK    8  A    between atoms: C_9  and  N_11
REMARK    9  A    between atoms: N_11  and  C_12
REMARK   10  A    between atoms: C_12  and  C_13
REMARK   11  A    between atoms: C_16  and  O_17
REMARK   12  A    between atoms: O_17  and  C_18
REMARK                            x       y       z     vdW  Elec       q    Type
REMARK                         _______ _______ _______ _____ _____    ______ ____
ROOT
ATOM      1  C   UNL     1       4.135   5.378  17.395  0.00  0.00    +0.000 C 
ATOM      2  S   UNL     1       3.823   3.729  17.236  0.00  0.00    +0.000 S 
ENDROOT
BRANCH   1   3
ATOM      3  P   UNL     1       5.628   6.059  16.647  0.00  0.00    +0.000 P 
ATOM      4  O   UNL     1       6.493   6.921  17.527  0.00  0.00    +0.000 OA
BRANCH   3   5
ATOM      5  O   UNL     1       5.251   6.811  15.253  0.00  0.00    +0.000 OA
ATOM      6  H   UNL     1       4.330   7.171  15.311  0.00  0.00    +0.000 HD
ENDBRANCH   3   5
BRANCH   3   7
ATOM      7  C   UNL     1       6.596   4.669  15.964  0.00  0.00    +0.000 C 
BRANCH   7   8
ATOM      8  N   UNL     1       7.711   4.379  16.897  0.00  0.00    +0.000 NA
ATOM      9  H   UNL     1       8.271   5.227  17.030  0.00  0.00    +0.000 HD
ATOM     10  H   UNL     1       8.356   3.723  16.445  0.00  0.00    +0.000 HD
ENDBRANCH   7   8
BRANCH   7  11
ATOM     11  C   UNL     1       6.964   4.629  14.485  0.00  0.00    +0.000 C 
BRANCH  11  13
ATOM     12  C   UNL     1       6.383   3.483  12.274  0.00  0.00    +0.000 C 
ATOM     13  C   UNL     1       5.929   3.814  13.686  0.00  0.00    +0.000 C 
ENDBRANCH  11  13
ENDBRANCH   7  11
ENDBRANCH   3   7
ENDBRANCH   1   3
BRANCH   1  14
ATOM     14  N   UNL     1       3.116   6.118  17.983  0.00  0.00    +0.000 N 
ATOM     15  H   UNL     1       2.665   5.684  18.785  0.00  0.00    +0.000 HD
BRANCH  14  16
ATOM     16  C   UNL     1       2.902   7.534  17.796  0.00  0.00    +0.000 C 
BRANCH  16  17
ATOM     17  C   UNL     1       2.107   8.204  18.886  0.00  0.00    +0.000 A 
ATOM     18  C   UNL     1       1.373   9.368  18.612  0.00  0.00    +0.000 A 
ATOM     19  C   UNL     1       0.522   9.921  19.574  0.00  0.00    +0.000 A 
ATOM     20  C   UNL     1       0.374   9.319  20.827  0.00  0.00    +0.000 A 
ATOM     21  C   UNL     1       1.124   8.181  21.122  0.00  0.00    +0.000 A 
ATOM     22  C   UNL     1       1.987   7.630  20.161  0.00  0.00    +0.000 A 
BRANCH  20  23
ATOM     23  O   UNL     1      -0.496   9.950  21.667  0.00  0.00    +0.000 OA
ATOM     24  C   UNL     1      -0.317   9.717  23.062  0.00  0.00    +0.000 C 
ENDBRANCH  20  23
ENDBRANCH  16  17
ENDBRANCH  14  16
ENDBRANCH   1  14
TORSDOF 10
ENDMDL
MODEL 8
REMARK VINA RESULT:      -6.1      1.549      1.724
REMARK  Name = 
REMARK  12 active torsions:
REMARK  status: ('A' for Active; 'I' for Inactive)
REMARK    1  A    between atoms: C_1  and  C_2
REMARK    2  A    between atoms: C_2  and  C_3
REMARK    3  A    between atoms: C_3  and  C_4
REMARK    4  A    between atoms: C_4  and  N_5
REMARK    5  A    between atoms: C_4  and  P_6
REMARK    6  A    between atoms: P_6  and  O_8
REMARK    7  A    between atoms: P_6  and  C_9
REMARK    8  A    between atoms: C_9  and  N_11
REMARK    9  A    between atoms: N_11  and  C_12
REMARK   10  A    between atoms: C_12  and  C_13
REMARK   11  A    between atoms: C_16  and  O_17
REMARK   12  A    between atoms: O_17  and  C_18
REMARK                            x       y       z     vdW  Elec       q    Type
REMARK                         _______ _______ _______ _____ _____    ______ ____
ROOT
ATOM      1  C   UNL     1       3.345   4.340  20.028  0.00  0.00    +0.000 C 
ATOM      2  S   UNL     1       2.370   3.522  21.133  0.00  0.00    +0.000 S 
ENDROOT
BRANCH   1   3
ATOM      3  P   UNL     1       4.387   3.383  18.910  0.00  0.00    +0.000 P 
ATOM      4  O   UNL     1       3.737   2.867  17.654  0.00  0.00    +0.000 OA
BRANCH   3   5
ATOM      5  O   UNL     1       5.130   2.191  19.734  0.00  0.00    +0.000 OA
ATOM      6  H   UNL     1       5.270   1.414  19.135  0.00  0.00    +0.000 HD
ENDBRANCH   3   5
BRANCH   3   7
ATOM      7  C   UNL     1       5.849   4.397  18.501  0.00  0.00    +0.000 C 
BRANCH   7   8
ATOM      8  N   UNL     1       6.273   5.115  19.727  0.00  0.00    +0.000 NA
ATOM      9  H   UNL     1       6.357   6.116  19.521  0.00  0.00    +0.000 HD
ATOM     10  H   UNL     1       7.228   4.829  19.963  0.00  0.00    +0.000 HD
ENDBRANCH   7   8
BRANCH   7  11
ATOM     11  C   UNL     1       5.890   5.225  17.222  0.00  0.00    +0.000 C 
BRANCH  11  13
ATOM     12  C   UNL     1       5.996   3.794  15.105  0.00  0.00    +0.000 C 
ATOM     13  C   UNL     1       6.783   4.550  16.162  0.00  0.00    +0.000 C 
ENDBRANCH  11  13
ENDBRANCH   7  11
ENDBRANCH   3   7
ENDBRANCH   1   3
BRANCH   1  14
ATOM     14  N   UNL     1       3.152   5.715  19.973  0.00  0.00    +0.000 N 
ATOM     15  H   UNL     1       3.493   6.238  20.776  0.00  0.00    +0.000 HD
BRANCH  14  16
ATOM     16  C   UNL     1       2.859   6.467  18.776  0.00  0.00    +0.000 C 
BRANCH  16  17
ATOM     17  C   UNL     1       2.155   7.779  19.008  0.00  0.00    +0.000 A 
ATOM     18  C   UNL     1       1.875   8.631  17.929  0.00  0.00    +0.000 A 
ATOM     19  C   UNL     1       1.101   9.783  18.108  0.00  0.00    +0.000 A 
ATOM     20  C   UNL     1       0.579  10.103  19.365  0.00  0.00    +0.000 A 
ATOM     21  C   UNL     1       0.880   9.282  20.450  0.00  0.00    +0.000 A 
ATOM     22  C   UNL     1       1.665   8.130  20.275  0.00  0.00    +0.000 A 
BRANCH  20  23
ATOM     23  O   UNL     1      -0.167  11.244  19.400  0.00  0.00    +0.000 OA
ATOM     24  C   UNL     1      -0.987  11.433  20.551  0.00  0.00    +0.000 C 
ENDBRANCH  20  23
ENDBRANCH  16  17
ENDBRANCH  14  16
ENDBRANCH   1  14
TORSDOF 10
ENDMDL
MODEL 9
REMARK VINA RESULT:      -6.0      3.453      4.095
REMARK  Name = 
REMARK  12 active torsions:
REMARK  status: ('A' for Active; 'I' for Inactive)
REMARK    1  A    between atoms: C_1  and  C_2
REMARK    2  A    between atoms: C_2  and  C_3
REMARK    3  A    between atoms: C_3  and  C_4
REMARK    4  A    between atoms: C_4  and  N_5
REMARK    5  A    between atoms: C_4  and  P_6
REMARK    6  A    between atoms: P_6  and  O_8
REMARK    7  A    between atoms: P_6  and  C_9
REMARK    8  A    between atoms: C_9  and  N_11
REMARK    9  A    between atoms: N_11  and  C_12
REMARK   10  A    between atoms: C_12  and  C_13
REMARK   11  A    between atoms: C_16  and  O_17
REMARK   12  A    between atoms: O_17  and  C_18
REMARK                            x       y       z     vdW  Elec       q    Type
REMARK                         _______ _______ _______ _____ _____    ______ ____
ROOT
ATOM      1  C   UNL     1       5.476   4.912  17.847  0.00  0.00    +0.000 C 
ATOM      2  S   UNL     1       4.405   3.909  17.018  0.00  0.00    +0.000 S 
ENDROOT
BRANCH   1   3
ATOM      3  P   UNL     1       7.101   5.232  17.133  0.00  0.00    +0.000 P 
ATOM      4  O   UNL     1       7.154   5.452  15.645  0.00  0.00    +0.000 OA
BRANCH   3   5
ATOM      5  O   UNL     1       8.148   4.079  17.607  0.00  0.00    +0.000 OA
ATOM      6  H   UNL     1       7.825   3.666  18.448  0.00  0.00    +0.000 HD
ENDBRANCH   3   5
BRANCH   3   7
ATOM      7  C   UNL     1       7.830   6.655  18.015  0.00  0.00    +0.000 C 
BRANCH   7   8
ATOM      8  N   UNL     1       8.079   6.251  19.420  0.00  0.00    +0.000 NA
ATOM      9  H   UNL     1       8.013   7.077  20.025  0.00  0.00    +0.000 HD
ATOM     10  H   UNL     1       9.054   5.953  19.510  0.00  0.00    +0.000 HD
ENDBRANCH   7   8
BRANCH   7  11
ATOM     11  C   UNL     1       7.260   8.057  17.837  0.00  0.00    +0.000 C 
BRANCH  11  13
ATOM     12  C   UNL     1       8.879   9.712  18.923  0.00  0.00    +0.000 C 
ATOM     13  C   UNL     1       8.389   9.085  17.628  0.00  0.00    +0.000 C 
ENDBRANCH  11  13
ENDBRANCH   7  11
ENDBRANCH   3   7
ENDBRANCH   1   3
BRANCH   1  14
ATOM     14  N   UNL     1       4.951   5.539  18.971  0.00  0.00    +0.000 N 
ATOM     15  H   UNL     1       5.500   6.313  19.338  0.00  0.00    +0.000 HD
BRANCH  14  16
ATOM     16  C   UNL     1       3.582   5.434  19.419  0.00  0.00    +0.000 C 
BRANCH  16  17
ATOM     17  C   UNL     1       2.743   6.664  19.188  0.00  0.00    +0.000 A 
ATOM     18  C   UNL     1       2.041   7.250  20.251  0.00  0.00    +0.000 A 
ATOM     19  C   UNL     1       1.372   8.468  20.084  0.00  0.00    +0.000 A 
ATOM     20  C   UNL     1       1.400   9.133  18.855  0.00  0.00    +0.000 A 
ATOM     21  C   UNL     1       2.067   8.543  17.782  0.00  0.00    +0.000 A 
ATOM     22  C   UNL     1       2.731   7.316  17.946  0.00  0.00    +0.000 A 
BRANCH  20  23
ATOM     23  O   UNL     1       0.720  10.315  18.829  0.00  0.00    +0.000 OA
ATOM     24  C   UNL     1       1.335  11.419  19.489  0.00  0.00    +0.000 C 
ENDBRANCH  20  23
ENDBRANCH  16  17
ENDBRANCH  14  16
ENDBRANCH   1  14
TORSDOF 10
ENDMDL
