MODEL 1
REMARK VINA RESULT:      -8.3      0.000      0.000
REMARK  Name = 
REMARK  8 active torsions:
REMARK  status: ('A' for Active; 'I' for Inactive)
REMARK    1  A    between atoms: C_1  and  C_2
REMARK    2  A    between atoms: C_2  and  C_3
REMARK    3  A    between atoms: C_3  and  C_4
REMARK    4  A    between atoms: C_7  and  C_8
REMARK    5  A    between atoms: C_17  and  C_18
REMARK    6  A    between atoms: C_18  and  N_19
REMARK    7  A    between atoms: C_21  and  C_22
REMARK    8  A    between atoms: C_22  and  O_24
REMARK                            x       y       z     vdW  Elec       q    Type
REMARK                         _______ _______ _______ _____ _____    ______ ____
ROOT
ATOM      1  C   UNL     1      -1.381  11.587  22.328  0.00  0.00    +0.000 A 
ATOM      2  O   UNL     1      -0.954  10.907  23.438  0.00  0.00    +0.000 OA
ATOM      3  N   UNL     1       0.108  10.091  23.103  0.00  0.00    +0.000 NA
ATOM      4  C   UNL     1       0.301  10.309  21.801  0.00  0.00    +0.000 A 
ATOM      5  C   UNL     1      -0.479  11.368  21.308  0.00  0.00    +0.000 A 
ATOM      6  C   UNL     1      -0.341  11.814  19.910  0.00  0.00    +0.000 C 
ATOM      7  O   UNL     1       0.521  11.005  19.055  0.00  0.00    +0.000 OA
ATOM      8  C   UNL     1       1.067   9.842  19.550  0.00  0.00    +0.000 A 
ATOM      9  C   UNL     1       1.637   8.970  18.613  0.00  0.00    +0.000 A 
ATOM     10  C   UNL     1       2.099   7.701  19.000  0.00  0.00    +0.000 A 
ATOM     11  C   UNL     1       1.982   7.324  20.353  0.00  0.00    +0.000 A 
ATOM     12  C   UNL     1       1.479   8.210  21.302  0.00  0.00    +0.000 A 
ATOM     13  C   UNL     1       1.026   9.465  20.898  0.00  0.00    +0.000 A 
ENDROOT
BRANCH   1  17
ATOM     14  C   UNL     1      -5.199  13.432  22.872  0.00  0.00    +0.000 A 
ATOM     15  C   UNL     1      -4.661  13.283  21.583  0.00  0.00    +0.000 A 
ATOM     16  C   UNL     1      -3.412  12.685  21.392  0.00  0.00    +0.000 A 
ATOM     17  C   UNL     1      -2.665  12.249  22.487  0.00  0.00    +0.000 A 
ATOM     18  C   UNL     1      -3.206  12.404  23.776  0.00  0.00    +0.000 A 
ATOM     19  C   UNL     1      -4.455  12.991  23.967  0.00  0.00    +0.000 A 
BRANCH  14  20
ATOM     20  C   UNL     1      -6.559  14.048  23.087  0.00  0.00    +0.000 C 
BRANCH  20  22
ATOM     21  C   UNL     1      -6.900  16.577  23.131  0.00  0.00    +0.000 C 
ATOM     22  C   UNL     1      -6.545  15.328  23.928  0.00  0.00    +0.000 C 
ENDBRANCH  20  22
ENDBRANCH  14  20
ENDBRANCH   1  17
BRANCH  10  23
ATOM     23  C   UNL     1       2.609   6.665  18.011  0.00  0.00    +0.000 C 
BRANCH  23  24
ATOM     24  N   UNL     1       2.568   5.256  18.457  0.00  0.00    +0.000 NA
ATOM     25  C   UNL     1       1.564   4.478  17.699  0.00  0.00    +0.000 C 
ATOM     26  C   UNL     1       2.645   3.433  17.378  0.00  0.00    +0.000 C 
ATOM     27  C   UNL     1       3.662   4.508  17.792  0.00  0.00    +0.000 C 
BRANCH  26  28
ATOM     28  C   UNL     1       2.620   2.102  18.158  0.00  0.00    +0.000 C 
ATOM     29  O   UNL     1       3.593   1.387  18.356  0.00  0.00    +0.000 OA
BRANCH  28  30
ATOM     30  O   UNL     1       1.400   1.757  18.654  0.00  0.00    +0.000 OA
ATOM     31  H   UNL     1       1.293   2.022  19.591  0.00  0.00    +0.000 HD
ENDBRANCH  28  30
ENDBRANCH  26  28
ENDBRANCH  23  24
ENDBRANCH  10  23
TORSDOF 7
ENDMDL
MODEL 2
REMARK VINA RESULT:      -8.2      1.864      2.414
REMARK  Name = 
REMARK  8 active torsions:
REMARK  status: ('A' for Active; 'I' for Inactive)
REMARK    1  A    between atoms: C_1  and  C_2
REMARK    2  A    between atoms: C_2  and  C_3
REMARK    3  A    between atoms: C_3  and  C_4
REMARK    4  A    between atoms: C_7  and  C_8
REMARK    5  A    between atoms: C_17  and  C_18
REMARK    6  A    between atoms: C_18  and  N_19
REMARK    7  A    between atoms: C_21  and  C_22
REMARK    8  A    between atoms: C_22  and  O_24
REMARK                            x       y       z     vdW  Elec       q    Type
REMARK                         _______ _______ _______ _____ _____    ______ ____
ROOT
ATOM      1  C   UNL     1      -0.657  11.262  22.089  0.00  0.00    +0.000 A 
ATOM      2  O   UNL     1      -0.302  10.569  23.217  0.00  0.00    +0.000 OA
ATOM      3  N   UNL     1       0.641   9.613  22.899  0.00  0.00    +0.000 NA
ATOM      4  C   UNL     1       0.839   9.761  21.588  0.00  0.00    +0.000 A 
ATOM      5  C   UNL     1       0.192  10.895  21.067  0.00  0.00    +0.000 A 
ATOM      6  C   UNL     1       0.363  11.273  19.653  0.00  0.00    +0.000 C 
ATOM      7  O   UNL     1       1.101  10.332  18.816  0.00  0.00    +0.000 OA
ATOM      8  C   UNL     1       1.502   9.125  19.346  0.00  0.00    +0.000 A 
ATOM      9  C   UNL     1       1.941   8.157  18.433  0.00  0.00    +0.000 A 
ATOM     10  C   UNL     1       2.244   6.852  18.859  0.00  0.00    +0.000 A 
ATOM     11  C   UNL     1       2.101   6.540  20.226  0.00  0.00    +0.000 A 
ATOM     12  C   UNL     1       1.731   7.514  21.148  0.00  0.00    +0.000 A 
ATOM     13  C   UNL     1       1.435   8.802  20.706  0.00  0.00    +0.000 A 
ENDROOT
BRANCH   1  17
ATOM     14  C   UNL     1      -4.071  13.798  22.519  0.00  0.00    +0.000 A 
ATOM     15  C   UNL     1      -3.810  12.796  23.466  0.00  0.00    +0.000 A 
ATOM     16  C   UNL     1      -2.698  11.957  23.335  0.00  0.00    +0.000 A 
ATOM     17  C   UNL     1      -1.843  12.087  22.240  0.00  0.00    +0.000 A 
ATOM     18  C   UNL     1      -2.112  13.090  21.291  0.00  0.00    +0.000 A 
ATOM     19  C   UNL     1      -3.214  13.932  21.425  0.00  0.00    +0.000 A 
BRANCH  14  20
ATOM     20  C   UNL     1      -5.250  14.728  22.666  0.00  0.00    +0.000 C 
BRANCH  20  22
ATOM     21  C   UNL     1      -4.043  16.420  24.147  0.00  0.00    +0.000 C 
ATOM     22  C   UNL     1      -5.263  15.526  23.974  0.00  0.00    +0.000 C 
ENDBRANCH  20  22
ENDBRANCH  14  20
ENDBRANCH   1  17
BRANCH  10  23
ATOM     23  C   UNL     1       2.601   5.728  17.901  0.00  0.00    +0.000 C 
BRANCH  23  24
ATOM     24  N   UNL     1       3.985   5.214  17.979  0.00  0.00    +0.000 NA
ATOM     25  C   UNL     1       4.297   4.326  16.838  0.00  0.00    +0.000 C 
ATOM     26  C   UNL     1       5.553   5.166  16.554  0.00  0.00    +0.000 C 
ATOM     27  C   UNL     1       4.912   6.241  17.445  0.00  0.00    +0.000 C 
BRANCH  26  28
ATOM     28  C   UNL     1       6.921   4.584  16.968  0.00  0.00    +0.000 C 
ATOM     29  O   UNL     1       7.903   4.516  16.241  0.00  0.00    +0.000 OA
BRANCH  28  30
ATOM     30  O   UNL     1       6.987   4.146  18.255  0.00  0.00    +0.000 OA
ATOM     31  H   UNL     1       7.577   3.371  18.353  0.00  0.00    +0.000 HD
ENDBRANCH  28  30
ENDBRANCH  26  28
ENDBRANCH  23  24
ENDBRANCH  10  23
TORSDOF 7
ENDMDL
MODEL 3
REMARK VINA RESULT:      -8.2      2.073      2.639
REMARK  Name = 
REMARK  8 active torsions:
REMARK  status: ('A' for Active; 'I' for Inactive)
REMARK    1  A    between atoms: C_1  and  C_2
REMARK    2  A    between atoms: C_2  and  C_3
REMARK    3  A    between atoms: C_3  and  C_4
REMARK    4  A    between atoms: C_7  and  C_8
REMARK    5  A    between atoms: C_17  and  C_18
REMARK    6  A    between atoms: C_18  and  N_19
REMARK    7  A    between atoms: C_21  and  C_22
REMARK    8  A    between atoms: C_22  and  O_24
REMARK                            x       y       z     vdW  Elec       q    Type
REMARK                         _______ _______ _______ _____ _____    ______ ____
ROOT
ATOM      1  C   UNL     1      -0.476  11.134  21.896  0.00  0.00    +0.000 A 
ATOM      2  O   UNL     1      -0.161  10.444  23.037  0.00  0.00    +0.000 OA
ATOM      3  N   UNL     1       0.772   9.469  22.748  0.00  0.00    +0.000 NA
ATOM      4  C   UNL     1       1.003   9.603  21.441  0.00  0.00    +0.000 A 
ATOM      5  C   UNL     1       0.390  10.744  20.897  0.00  0.00    +0.000 A 
ATOM      6  C   UNL     1       0.601  11.108  19.485  0.00  0.00    +0.000 C 
ATOM      7  O   UNL     1       1.341  10.147  18.673  0.00  0.00    +0.000 OA
ATOM      8  C   UNL     1       1.707   8.937  19.220  0.00  0.00    +0.000 A 
ATOM      9  C   UNL     1       2.149   7.954  18.325  0.00  0.00    +0.000 A 
ATOM     10  C   UNL     1       2.417   6.647  18.768  0.00  0.00    +0.000 A 
ATOM     11  C   UNL     1       2.237   6.348  20.133  0.00  0.00    +0.000 A 
ATOM     12  C   UNL     1       1.863   7.336  21.039  0.00  0.00    +0.000 A 
ATOM     13  C   UNL     1       1.602   8.626  20.581  0.00  0.00    +0.000 A 
ENDROOT
BRANCH   1  17
ATOM     14  C   UNL     1      -3.869  13.721  22.164  0.00  0.00    +0.000 A 
ATOM     15  C   UNL     1      -3.295  13.183  23.327  0.00  0.00    +0.000 A 
ATOM     16  C   UNL     1      -2.187  12.333  23.253  0.00  0.00    +0.000 A 
ATOM     17  C   UNL     1      -1.650  11.983  22.013  0.00  0.00    +0.000 A 
ATOM     18  C   UNL     1      -2.232  12.520  20.851  0.00  0.00    +0.000 A 
ATOM     19  C   UNL     1      -3.330  13.375  20.924  0.00  0.00    +0.000 A 
BRANCH  14  20
ATOM     20  C   UNL     1      -5.045  14.663  22.235  0.00  0.00    +0.000 C 
BRANCH  20  22
ATOM     21  C   UNL     1      -6.949  14.016  23.807  0.00  0.00    +0.000 C 
ATOM     22  C   UNL     1      -5.657  14.804  23.633  0.00  0.00    +0.000 C 
ENDBRANCH  20  22
ENDBRANCH  14  20
ENDBRANCH   1  17
BRANCH  10  23
ATOM     23  C   UNL     1       2.775   5.509  17.826  0.00  0.00    +0.000 C 
BRANCH  23  24
ATOM     24  N   UNL     1       4.159   5.499  17.305  0.00  0.00    +0.000 NA
ATOM     25  C   UNL     1       5.149   5.593  18.399  0.00  0.00    +0.000 C 
ATOM     26  C   UNL     1       5.858   4.350  17.838  0.00  0.00    +0.000 C 
ATOM     27  C   UNL     1       4.567   4.098  17.044  0.00  0.00    +0.000 C 
BRANCH  26  28
ATOM     28  C   UNL     1       7.174   4.557  17.059  0.00  0.00    +0.000 C 
ATOM     29  O   UNL     1       7.271   5.145  15.990  0.00  0.00    +0.000 OA
BRANCH  28  30
ATOM     30  O   UNL     1       8.280   4.041  17.663  0.00  0.00    +0.000 OA
ATOM     31  H   UNL     1       8.893   4.739  17.972  0.00  0.00    +0.000 HD
ENDBRANCH  28  30
ENDBRANCH  26  28
ENDBRANCH  23  24
ENDBRANCH  10  23
TORSDOF 7
ENDMDL
MODEL 4
REMARK VINA RESULT:      -8.1      2.656     10.494
REMARK  Name = 
REMARK  8 active torsions:
REMARK  status: ('A' for Active; 'I' for Inactive)
REMARK    1  A    between atoms: C_1  and  C_2
REMARK    2  A    between atoms: C_2  and  C_3
REMARK    3  A    between atoms: C_3  and  C_4
REMARK    4  A    between atoms: C_7  and  C_8
REMARK    5  A    between atoms: C_17  and  C_18
REMARK    6  A    between atoms: C_18  and  N_19
REMARK    7  A    between atoms: C_21  and  C_22
REMARK    8  A    between atoms: C_22  and  O_24
REMARK                            x       y       z     vdW  Elec       q    Type
REMARK                         _______ _______ _______ _____ _____    ______ ____
ROOT
ATOM      1  C   UNL     1       2.040   8.013  19.348  0.00  0.00    +0.000 A 
ATOM      2  O   UNL     1       2.124   8.459  18.055  0.00  0.00    +0.000 OA
ATOM      3  N   UNL     1       1.429   9.645  17.926  0.00  0.00    +0.000 NA
ATOM      4  C   UNL     1       0.953   9.889  19.148  0.00  0.00    +0.000 A 
ATOM      5  C   UNL     1       1.457   9.001  20.113  0.00  0.00    +0.000 A 
ATOM      6  C   UNL     1       1.113   9.166  21.537  0.00  0.00    +0.000 C 
ATOM      7  O   UNL     1       0.118  10.187  21.848  0.00  0.00    +0.000 OA
ATOM      8  C   UNL     1      -0.508  10.858  20.821  0.00  0.00    +0.000 A 
ATOM      9  C   UNL     1      -1.643  11.604  21.163  0.00  0.00    +0.000 A 
ATOM     10  C   UNL     1      -2.428  12.214  20.169  0.00  0.00    +0.000 A 
ATOM     11  C   UNL     1      -2.046  12.063  18.821  0.00  0.00    +0.000 A 
ATOM     12  C   UNL     1      -0.883  11.381  18.479  0.00  0.00    +0.000 A 
ATOM     13  C   UNL     1      -0.117  10.783  19.479  0.00  0.00    +0.000 A 
ENDROOT
BRANCH   1  17
ATOM     14  C   UNL     1       3.332   3.961  19.779  0.00  0.00    +0.000 A 
ATOM     15  C   UNL     1       2.236   4.437  20.516  0.00  0.00    +0.000 A 
ATOM     16  C   UNL     1       1.806   5.762  20.387  0.00  0.00    +0.000 A 
ATOM     17  C   UNL     1       2.480   6.642  19.539  0.00  0.00    +0.000 A 
ATOM     18  C   UNL     1       3.580   6.161  18.806  0.00  0.00    +0.000 A 
ATOM     19  C   UNL     1       4.003   4.839  18.927  0.00  0.00    +0.000 A 
BRANCH  14  20
ATOM     20  C   UNL     1       3.785   2.526  19.887  0.00  0.00    +0.000 C 
BRANCH  20  22
ATOM     21  C   UNL     1       2.490   2.346  17.695  0.00  0.00    +0.000 C 
ATOM     22  C   UNL     1       3.209   1.600  18.811  0.00  0.00    +0.000 C 
ENDBRANCH  20  22
ENDBRANCH  14  20
ENDBRANCH   1  17
BRANCH  10  23
ATOM     23  C   UNL     1      -3.737  12.928  20.467  0.00  0.00    +0.000 C 
BRANCH  23  24
ATOM     24  N   UNL     1      -4.479  12.468  21.660  0.00  0.00    +0.000 NA
ATOM     25  C   UNL     1      -4.609  13.546  22.664  0.00  0.00    +0.000 C 
ATOM     26  C   UNL     1      -6.126  13.299  22.704  0.00  0.00    +0.000 C 
ATOM     27  C   UNL     1      -5.933  12.539  21.382  0.00  0.00    +0.000 C 
BRANCH  26  28
ATOM     28  C   UNL     1      -6.704  12.537  23.915  0.00  0.00    +0.000 C 
ATOM     29  O   UNL     1      -7.868  12.596  24.289  0.00  0.00    +0.000 OA
BRANCH  28  30
ATOM     30  O   UNL     1      -5.811  11.742  24.566  0.00  0.00    +0.000 OA
ATOM     31  H   UNL     1      -6.200  10.881  24.823  0.00  0.00    +0.000 HD
ENDBRANCH  28  30
ENDBRANCH  26  28
ENDBRANCH  23  24
ENDBRANCH  10  23
TORSDOF 7
ENDMDL
MODEL 5
REMARK VINA RESULT:      -8.0      2.687     10.628
REMARK  Name = 
REMARK  8 active torsions:
REMARK  status: ('A' for Active; 'I' for Inactive)
REMARK    1  A    between atoms: C_1  and  C_2
REMARK    2  A    between atoms: C_2  and  C_3
REMARK    3  A    between atoms: C_3  and  C_4
REMARK    4  A    between atoms: C_7  and  C_8
REMARK    5  A    between atoms: C_17  and  C_18
REMARK    6  A    between atoms: C_18  and  N_19
REMARK    7  A    between atoms: C_21  and  C_22
REMARK    8  A    between atoms: C_22  and  O_24
REMARK                            x       y       z     vdW  Elec       q    Type
REMARK                         _______ _______ _______ _____ _____    ______ ____
ROOT
ATOM      1  C   UNL     1       2.325   7.904  18.315  0.00  0.00    +0.000 A 
ATOM      2  O   UNL     1       2.666   8.740  17.284  0.00  0.00    +0.000 OA
ATOM      3  N   UNL     1       2.131   9.994  17.506  0.00  0.00    +0.000 NA
ATOM      4  C   UNL     1       1.491   9.883  18.671  0.00  0.00    +0.000 A 
ATOM      5  C   UNL     1       1.733   8.655  19.308  0.00  0.00    +0.000 A 
ATOM      6  C   UNL     1       1.181   8.383  20.647  0.00  0.00    +0.000 C 
ATOM      7  O   UNL     1       0.263   9.382  21.184  0.00  0.00    +0.000 OA
ATOM      8  C   UNL     1      -0.113  10.449  20.398  0.00  0.00    +0.000 A 
ATOM      9  C   UNL     1      -1.202  11.205  20.849  0.00  0.00    +0.000 A 
ATOM     10  C   UNL     1      -1.745  12.229  20.053  0.00  0.00    +0.000 A 
ATOM     11  C   UNL     1      -1.166  12.483  18.794  0.00  0.00    +0.000 A 
ATOM     12  C   UNL     1      -0.041  11.781  18.368  0.00  0.00    +0.000 A 
ATOM     13  C   UNL     1       0.482  10.769  19.172  0.00  0.00    +0.000 A 
ENDROOT
BRANCH   1  17
ATOM     14  C   UNL     1       3.025   3.736  17.671  0.00  0.00    +0.000 A 
ATOM     15  C   UNL     1       4.048   4.670  17.442  0.00  0.00    +0.000 A 
ATOM     16  C   UNL     1       3.831   6.036  17.646  0.00  0.00    +0.000 A 
ATOM     17  C   UNL     1       2.579   6.497  18.055  0.00  0.00    +0.000 A 
ATOM     18  C   UNL     1       1.556   5.558  18.279  0.00  0.00    +0.000 A 
ATOM     19  C   UNL     1       1.773   4.196  18.086  0.00  0.00    +0.000 A 
BRANCH  14  20
ATOM     20  C   UNL     1       3.257   2.257  17.484  0.00  0.00    +0.000 C 
BRANCH  20  22
ATOM     21  C   UNL     1       4.323   2.233  19.803  0.00  0.00    +0.000 C 
ATOM     22  C   UNL     1       3.469   1.483  18.789  0.00  0.00    +0.000 C 
ENDBRANCH  20  22
ENDBRANCH  14  20
ENDBRANCH   1  17
BRANCH  10  23
ATOM     23  C   UNL     1      -3.001  12.996  20.431  0.00  0.00    +0.000 C 
BRANCH  23  24
ATOM     24  N   UNL     1      -3.631  12.631  21.718  0.00  0.00    +0.000 NA
ATOM     25  C   UNL     1      -3.733  13.798  22.620  0.00  0.00    +0.000 C 
ATOM     26  C   UNL     1      -5.231  13.502  22.802  0.00  0.00    +0.000 C 
ATOM     27  C   UNL     1      -5.104  12.622  21.549  0.00  0.00    +0.000 C 
BRANCH  26  28
ATOM     28  C   UNL     1      -5.684  12.845  24.122  0.00  0.00    +0.000 C 
ATOM     29  O   UNL     1      -5.068  11.970  24.717  0.00  0.00    +0.000 OA
BRANCH  28  30
ATOM     30  O   UNL     1      -6.854  13.325  24.625  0.00  0.00    +0.000 OA
ATOM     31  H   UNL     1      -6.729  13.782  25.482  0.00  0.00    +0.000 HD
ENDBRANCH  28  30
ENDBRANCH  26  28
ENDBRANCH  23  24
ENDBRANCH  10  23
TORSDOF 7
ENDMDL
MODEL 6
REMARK VINA RESULT:      -8.0      3.711      4.706
REMARK  Name = 
REMARK  8 active torsions:
REMARK  status: ('A' for Active; 'I' for Inactive)
REMARK    1  A    between atoms: C_1  and  C_2
REMARK    2  A    between atoms: C_2  and  C_3
REMARK    3  A    between atoms: C_3  and  C_4
REMARK    4  A    between atoms: C_7  and  C_8
REMARK    5  A    between atoms: C_17  and  C_18
REMARK    6  A    between atoms: C_18  and  N_19
REMARK    7  A    between atoms: C_21  and  C_22
REMARK    8  A    between atoms: C_22  and  O_24
REMARK                            x       y       z     vdW  Elec       q    Type
REMARK                         _______ _______ _______ _____ _____    ______ ____
ROOT
ATOM      1  C   UNL     1      -0.495   9.881  19.412  0.00  0.00    +0.000 A 
ATOM      2  O   UNL     1      -0.549   9.342  20.670  0.00  0.00    +0.000 OA
ATOM      3  N   UNL     1       0.572   8.567  20.893  0.00  0.00    +0.000 NA
ATOM      4  C   UNL     1       1.278   8.669  19.767  0.00  0.00    +0.000 A 
ATOM      5  C   UNL     1       0.750   9.622  18.880  0.00  0.00    +0.000 A 
ATOM      6  C   UNL     1       1.443   9.937  17.617  0.00  0.00    +0.000 C 
ATOM      7  O   UNL     1       2.595   9.105  17.287  0.00  0.00    +0.000 OA
ATOM      8  C   UNL     1       2.911   8.033  18.092  0.00  0.00    +0.000 A 
ATOM      9  C   UNL     1       3.832   7.113  17.575  0.00  0.00    +0.000 A 
ATOM     10  C   UNL     1       4.117   5.920  18.262  0.00  0.00    +0.000 A 
ATOM     11  C   UNL     1       3.461   5.672  19.484  0.00  0.00    +0.000 A 
ATOM     12  C   UNL     1       2.596   6.612  20.036  0.00  0.00    +0.000 A 
ATOM     13  C   UNL     1       2.326   7.789  19.340  0.00  0.00    +0.000 A 
ENDROOT
BRANCH   1  17
ATOM     14  C   UNL     1      -4.115  11.626  17.953  0.00  0.00    +0.000 A 
ATOM     15  C   UNL     1      -3.492  12.142  19.101  0.00  0.00    +0.000 A 
ATOM     16  C   UNL     1      -2.309  11.578  19.590  0.00  0.00    +0.000 A 
ATOM     17  C   UNL     1      -1.743  10.471  18.958  0.00  0.00    +0.000 A 
ATOM     18  C   UNL     1      -2.374   9.954  17.811  0.00  0.00    +0.000 A 
ATOM     19  C   UNL     1      -3.546  10.521  17.317  0.00  0.00    +0.000 A 
BRANCH  14  20
ATOM     20  C   UNL     1      -5.374  12.245  17.399  0.00  0.00    +0.000 C 
BRANCH  20  22
ATOM     21  C   UNL     1      -6.904  10.659  18.686  0.00  0.00    +0.000 C 
ATOM     22  C   UNL     1      -6.599  12.102  18.308  0.00  0.00    +0.000 C 
ENDBRANCH  20  22
ENDBRANCH  14  20
ENDBRANCH   1  17
BRANCH  10  23
ATOM     23  C   UNL     1       5.008   4.828  17.692  0.00  0.00    +0.000 C 
BRANCH  23  24
ATOM     24  N   UNL     1       5.766   5.169  16.470  0.00  0.00    +0.000 NA
ATOM     25  C   UNL     1       6.892   4.236  16.253  0.00  0.00    +0.000 C 
ATOM     26  C   UNL     1       6.389   3.991  14.821  0.00  0.00    +0.000 C 
ATOM     27  C   UNL     1       5.062   4.607  15.292  0.00  0.00    +0.000 C 
BRANCH  26  28
ATOM     28  C   UNL     1       7.147   4.671  13.662  0.00  0.00    +0.000 C 
ATOM     29  O   UNL     1       7.900   5.628  13.782  0.00  0.00    +0.000 OA
BRANCH  28  30
ATOM     30  O   UNL     1       6.937   4.110  12.439  0.00  0.00    +0.000 OA
ATOM     31  H   UNL     1       6.607   3.191  12.505  0.00  0.00    +0.000 HD
ENDBRANCH  28  30
ENDBRANCH  26  28
ENDBRANCH  23  24
ENDBRANCH  10  23
TORSDOF 7
ENDMDL
MODEL 7
REMARK VINA RESULT:      -8.0      0.672      1.166
REMARK  Name = 
REMARK  8 active torsions:
REMARK  status: ('A' for Active; 'I' for Inactive)
REMARK    1  A    between atoms: C_1  and  C_2
REMARK    2  A    between atoms: C_2  and  C_3
REMARK    3  A    between atoms: C_3  and  C_4
REMARK    4  A    between atoms: C_7  and  C_8
REMARK    5  A    between atoms: C_17  and  C_18
REMARK    6  A    between atoms: C_18  and  N_19
REMARK    7  A    between atoms: C_21  and  C_22
REMARK    8  A    between atoms: C_22  and  O_24
REMARK                            x       y       z     vdW  Elec       q    Type
REMARK                         _______ _______ _______ _____ _____    ______ ____
ROOT
ATOM      1  C   UNL     1      -1.406  11.669  22.336  0.00  0.00    +0.000 A 
ATOM      2  O   UNL     1      -0.947  11.031  23.459  0.00  0.00    +0.000 OA
ATOM      3  N   UNL     1       0.116  10.215  23.129  0.00  0.00    +0.000 NA
ATOM      4  C   UNL     1       0.278  10.390  21.817  0.00  0.00    +0.000 A 
ATOM      5  C   UNL     1      -0.524  11.424  21.305  0.00  0.00    +0.000 A 
ATOM      6  C   UNL     1      -0.421  11.824  19.890  0.00  0.00    +0.000 C 
ATOM      7  O   UNL     1       0.431  10.995  19.044  0.00  0.00    +0.000 OA
ATOM      8  C   UNL     1       1.000   9.854  19.566  0.00  0.00    +0.000 A 
ATOM      9  C   UNL     1       1.560   8.958  18.647  0.00  0.00    +0.000 A 
ATOM     10  C   UNL     1       2.044   7.707  19.067  0.00  0.00    +0.000 A 
ATOM     11  C   UNL     1       1.960   7.376  20.434  0.00  0.00    +0.000 A 
ATOM     12  C   UNL     1       1.468   8.288  21.363  0.00  0.00    +0.000 A 
ATOM     13  C   UNL     1       0.993   9.524  20.926  0.00  0.00    +0.000 A 
ENDROOT
BRANCH   1  17
ATOM     14  C   UNL     1      -5.141  13.702  22.770  0.00  0.00    +0.000 A 
ATOM     15  C   UNL     1      -4.581  13.011  23.856  0.00  0.00    +0.000 A 
ATOM     16  C   UNL     1      -3.361  12.339  23.726  0.00  0.00    +0.000 A 
ATOM     17  C   UNL     1      -2.693  12.322  22.501  0.00  0.00    +0.000 A 
ATOM     18  C   UNL     1      -3.262  13.012  21.414  0.00  0.00    +0.000 A 
ATOM     19  C   UNL     1      -4.472  13.690  21.545  0.00  0.00    +0.000 A 
BRANCH  14  20
ATOM     20  C   UNL     1      -6.441  14.456  22.907  0.00  0.00    +0.000 C 
BRANCH  20  22
ATOM     21  C   UNL     1      -6.853  16.957  23.207  0.00  0.00    +0.000 C 
ATOM     22  C   UNL     1      -6.373  15.662  23.850  0.00  0.00    +0.000 C 
ENDBRANCH  20  22
ENDBRANCH  14  20
ENDBRANCH   1  17
BRANCH  10  23
ATOM     23  C   UNL     1       2.543   6.643  18.102  0.00  0.00    +0.000 C 
BRANCH  23  24
ATOM     24  N   UNL     1       2.743   5.290  18.663  0.00  0.00    +0.000 NA
ATOM     25  C   UNL     1       2.441   4.241  17.666  0.00  0.00    +0.000 C 
ATOM     26  C   UNL     1       3.815   3.609  17.943  0.00  0.00    +0.000 C 
ATOM     27  C   UNL     1       4.185   4.949  18.599  0.00  0.00    +0.000 C 
BRANCH  26  28
ATOM     28  C   UNL     1       3.862   2.329  18.803  0.00  0.00    +0.000 C 
ATOM     29  O   UNL     1       3.742   2.297  20.020  0.00  0.00    +0.000 OA
BRANCH  28  30
ATOM     30  O   UNL     1       4.035   1.176  18.099  0.00  0.00    +0.000 OA
ATOM     31  H   UNL     1       3.825   1.288  17.149  0.00  0.00    +0.000 HD
ENDBRANCH  28  30
ENDBRANCH  26  28
ENDBRANCH  23  24
ENDBRANCH  10  23
TORSDOF 7
ENDMDL
MODEL 8
REMARK VINA RESULT:      -8.0      2.022      2.429
REMARK  Name = 
REMARK  8 active torsions:
REMARK  status: ('A' for Active; 'I' for Inactive)
REMARK    1  A    between atoms: C_1  and  C_2
REMARK    2  A    between atoms: C_2  and  C_3
REMARK    3  A    between atoms: C_3  and  C_4
REMARK    4  A    between atoms: C_7  and  C_8
REMARK    5  A    between atoms: C_17  and  C_18
REMARK    6  A    between atoms: C_18  and  N_19
REMARK    7  A    between atoms: C_21  and  C_22
REMARK    8  A    between atoms: C_22  and  O_24
REMARK                            x       y       z     vdW  Elec       q    Type
REMARK                         _______ _______ _______ _____ _____    ______ ____
ROOT
ATOM      1  C   UNL     1      -0.412  11.210  21.862  0.00  0.00    +0.000 A 
ATOM      2  O   UNL     1      -0.113  10.518  23.006  0.00  0.00    +0.000 OA
ATOM      3  N   UNL     1       0.794   9.516  22.720  0.00  0.00    +0.000 NA
ATOM      4  C   UNL     1       1.026   9.638  21.413  0.00  0.00    +0.000 A 
ATOM      5  C   UNL     1       0.443  10.792  20.864  0.00  0.00    +0.000 A 
ATOM      6  C   UNL     1       0.661  11.143  19.449  0.00  0.00    +0.000 C 
ATOM      7  O   UNL     1       1.374  10.159  18.641  0.00  0.00    +0.000 OA
ATOM      8  C   UNL     1       1.708   8.943  19.194  0.00  0.00    +0.000 A 
ATOM      9  C   UNL     1       2.123   7.944  18.303  0.00  0.00    +0.000 A 
ATOM     10  C   UNL     1       2.357   6.633  18.752  0.00  0.00    +0.000 A 
ATOM     11  C   UNL     1       2.171   6.345  20.119  0.00  0.00    +0.000 A 
ATOM     12  C   UNL     1       1.825   7.347  21.021  0.00  0.00    +0.000 A 
ATOM     13  C   UNL     1       1.598   8.641  20.556  0.00  0.00    +0.000 A 
ENDROOT
BRANCH   1  17
ATOM     14  C   UNL     1      -3.875  13.691  22.216  0.00  0.00    +0.000 A 
ATOM     15  C   UNL     1      -2.997  13.851  21.132  0.00  0.00    +0.000 A 
ATOM     16  C   UNL     1      -1.859  13.048  21.006  0.00  0.00    +0.000 A 
ATOM     17  C   UNL     1      -1.562  12.090  21.976  0.00  0.00    +0.000 A 
ATOM     18  C   UNL     1      -2.443  11.937  23.063  0.00  0.00    +0.000 A 
ATOM     19  C   UNL     1      -3.582  12.730  23.184  0.00  0.00    +0.000 A 
BRANCH  14  20
ATOM     20  C   UNL     1      -5.121  14.531  22.345  0.00  0.00    +0.000 C 
BRANCH  20  22
ATOM     21  C   UNL     1      -7.103  14.832  23.925  0.00  0.00    +0.000 C 
ATOM     22  C   UNL     1      -6.260  13.855  23.116  0.00  0.00    +0.000 C 
ENDBRANCH  20  22
ENDBRANCH  14  20
ENDBRANCH   1  17
BRANCH  10  23
ATOM     23  C   UNL     1       2.684   5.481  17.816  0.00  0.00    +0.000 C 
BRANCH  23  24
ATOM     24  N   UNL     1       4.047   5.467  17.243  0.00  0.00    +0.000 NA
ATOM     25  C   UNL     1       5.077   5.608  18.294  0.00  0.00    +0.000 C 
ATOM     26  C   UNL     1       5.778   4.353  17.747  0.00  0.00    +0.000 C 
ATOM     27  C   UNL     1       4.460   4.062  17.013  0.00  0.00    +0.000 C 
BRANCH  26  28
ATOM     28  C   UNL     1       7.061   4.547  16.912  0.00  0.00    +0.000 C 
ATOM     29  O   UNL     1       8.178   4.178  17.248  0.00  0.00    +0.000 OA
BRANCH  28  30
ATOM     30  O   UNL     1       6.872   5.165  15.714  0.00  0.00    +0.000 OA
ATOM     31  H   UNL     1       7.650   5.080  15.126  0.00  0.00    +0.000 HD
ENDBRANCH  28  30
ENDBRANCH  26  28
ENDBRANCH  23  24
ENDBRANCH  10  23
TORSDOF 7
ENDMDL
MODEL 9
REMARK VINA RESULT:      -8.0      0.831      1.204
REMARK  Name = 
REMARK  8 active torsions:
REMARK  status: ('A' for Active; 'I' for Inactive)
REMARK    1  A    between atoms: C_1  and  C_2
REMARK    2  A    between atoms: C_2  and  C_3
REMARK    3  A    between atoms: C_3  and  C_4
REMARK    4  A    between atoms: C_7  and  C_8
REMARK    5  A    between atoms: C_17  and  C_18
REMARK    6  A    between atoms: C_18  and  N_19
REMARK    7  A    between atoms: C_21  and  C_22
REMARK    8  A    between atoms: C_22  and  O_24
REMARK                            x       y       z     vdW  Elec       q    Type
REMARK                         _______ _______ _______ _____ _____    ______ ____
ROOT
ATOM      1  C   UNL     1      -1.388  12.011  22.296  0.00  0.00    +0.000 A 
ATOM      2  O   UNL     1      -1.100  11.266  23.410  0.00  0.00    +0.000 OA
ATOM      3  N   UNL     1      -0.094  10.366  23.120  0.00  0.00    +0.000 NA
ATOM      4  C   UNL     1       0.206  10.599  21.842  0.00  0.00    +0.000 A 
ATOM      5  C   UNL     1      -0.441  11.737  21.332  0.00  0.00    +0.000 A 
ATOM      6  C   UNL     1      -0.168  12.205  19.962  0.00  0.00    +0.000 C 
ATOM      7  O   UNL     1       0.675  11.344  19.140  0.00  0.00    +0.000 OA
ATOM      8  C   UNL     1       1.081  10.123  19.632  0.00  0.00    +0.000 A 
ATOM      9  C   UNL     1       1.635   9.229  18.708  0.00  0.00    +0.000 A 
ATOM     10  C   UNL     1       1.955   7.913  19.084  0.00  0.00    +0.000 A 
ATOM     11  C   UNL     1       1.711   7.514  20.414  0.00  0.00    +0.000 A 
ATOM     12  C   UNL     1       1.225   8.416  21.354  0.00  0.00    +0.000 A 
ATOM     13  C   UNL     1       0.914   9.717  20.962  0.00  0.00    +0.000 A 
ENDROOT
BRANCH   1  17
ATOM     14  C   UNL     1      -5.018  14.232  22.700  0.00  0.00    +0.000 A 
ATOM     15  C   UNL     1      -4.812  13.409  21.581  0.00  0.00    +0.000 A 
ATOM     16  C   UNL     1      -3.628  12.680  21.436  0.00  0.00    +0.000 A 
ATOM     17  C   UNL     1      -2.616  12.782  22.391  0.00  0.00    +0.000 A 
ATOM     18  C   UNL     1      -2.826  13.612  23.508  0.00  0.00    +0.000 A 
ATOM     19  C   UNL     1      -4.009  14.331  23.659  0.00  0.00    +0.000 A 
BRANCH  14  20
ATOM     20  C   UNL     1      -6.305  14.999  22.882  0.00  0.00    +0.000 C 
BRANCH  20  22
ATOM     21  C   UNL     1      -7.589  13.245  24.218  0.00  0.00    +0.000 C 
ATOM     22  C   UNL     1      -7.556  14.119  22.972  0.00  0.00    +0.000 C 
ENDBRANCH  20  22
ENDBRANCH  14  20
ENDBRANCH   1  17
BRANCH  10  23
ATOM     23  C   UNL     1       2.437   6.861  18.098  0.00  0.00    +0.000 C 
BRANCH  23  24
ATOM     24  N   UNL     1       2.762   5.533  18.661  0.00  0.00    +0.000 NA
ATOM     25  C   UNL     1       2.243   4.443  17.808  0.00  0.00    +0.000 C 
ATOM     26  C   UNL     1       3.646   3.812  17.795  0.00  0.00    +0.000 C 
ATOM     27  C   UNL     1       4.152   5.177  18.287  0.00  0.00    +0.000 C 
BRANCH  26  28
ATOM     28  C   UNL     1       3.890   2.572  18.680  0.00  0.00    +0.000 C 
ATOM     29  O   UNL     1       3.159   1.592  18.730  0.00  0.00    +0.000 OA
BRANCH  28  30
ATOM     30  O   UNL     1       5.028   2.621  19.426  0.00  0.00    +0.000 OA
ATOM     31  H   UNL     1       4.999   3.330  20.101  0.00  0.00    +0.000 HD
ENDBRANCH  28  30
ENDBRANCH  26  28
ENDBRANCH  23  24
ENDBRANCH  10  23
TORSDOF 7
ENDMDL
