MODEL 1
REMARK VINA RESULT:      -7.7      0.000      0.000
REMARK  Name = 
REMARK  12 active torsions:
REMARK  status: ('A' for Active; 'I' for Inactive)
REMARK    1  A    between atoms: C_1  and  N_2
REMARK    2  A    between atoms: C_6  and  C_7
REMARK    3  A    between atoms: N_9  and  C_10
REMARK    4  A    between atoms: C_10  and  C_11
REMARK    5  A    between atoms: C_11  and  O_12
REMARK    6  A    between atoms: O_12  and  C_13
REMARK    7  A    between atoms: C_13  and  C_15
REMARK    8  A    between atoms: C_19  and  N_20
REMARK    9  A    between atoms: C_21  and  C_23
REMARK   10  A    between atoms: C_23  and  C_24
REMARK   11  A    between atoms: C_32  and  C_33
REMARK   12  A    between atoms: C_32  and  C_34
REMARK                            x       y       z     vdW  Elec       q    Type
REMARK                         _______ _______ _______ _____ _____    ______ ____
ROOT
ATOM      1  C   UNL     1      -0.040  12.376  20.908  0.00  0.00    +0.000 C 
ATOM      2  N   UNL     1       0.395  10.994  21.020  0.00  0.00    +0.000 N 
ATOM      3  C   UNL     1       0.632  10.052  21.943  0.00  0.00    +0.000 C 
ATOM      4  O   UNL     1       0.516   9.980  23.134  0.00  0.00    +0.000 OA
ATOM      5  C   UNL     1       0.872   9.158  20.675  0.00  0.00    +0.000 C 
ATOM      6  C   UNL     1       1.542  10.500  20.176  0.00  0.00    +0.000 C 
ATOM      7  S   UNL     1       1.408  11.789  18.831  0.00  0.00    +0.000 S 
ATOM      8  C   UNL     1      -0.191  12.460  19.369  0.00  0.00    +0.000 C 
ATOM      9  C   UNL     1      -1.228  11.496  18.746  0.00  0.00    +0.000 C 
ATOM     10  C   UNL     1      -0.424  13.855  18.805  0.00  0.00    +0.000 C 
ENDROOT
BRANCH   5  11
ATOM     11  N   UNL     1       1.790   7.974  20.656  0.00  0.00    +0.000 N 
ATOM     12  C   UNL     1       2.200   7.521  19.409  0.00  0.00    +0.000 C 
ATOM     13  O   UNL     1       1.869   8.094  18.369  0.00  0.00    +0.000 OA
ATOM     14  H   UNL     1       1.884   7.364  21.462  0.00  0.00    +0.000 HD
BRANCH  12  15
ATOM     15  C   UNL     1       3.069   6.287  19.365  0.00  0.00    +0.000 C 
BRANCH  15  16
ATOM     16  C   UNL     1       2.305   5.030  19.696  0.00  0.00    +0.000 A 
ATOM     17  C   UNL     1       2.244   4.549  21.013  0.00  0.00    +0.000 A 
ATOM     18  C   UNL     1       1.552   3.373  21.307  0.00  0.00    +0.000 A 
ATOM     19  C   UNL     1       0.905   2.676  20.290  0.00  0.00    +0.000 A 
ATOM     20  C   UNL     1       0.938   3.160  18.983  0.00  0.00    +0.000 A 
ATOM     21  C   UNL     1       1.632   4.334  18.687  0.00  0.00    +0.000 A 
ENDBRANCH  15  16
ENDBRANCH  12  15
ENDBRANCH   5  11
BRANCH   1  22
ATOM     22  C   UNL     1      -1.346  12.904  21.517  0.00  0.00    +0.000 C 
ATOM     23  O   UNL     1      -1.649  14.095  21.475  0.00  0.00    +0.000 OA
BRANCH  22  24
ATOM     24  O   UNL     1      -2.227  11.915  21.829  0.00  0.00    +0.000 OA
BRANCH  24  25
ATOM     25  C   UNL     1      -2.716  12.002  23.187  0.00  0.00    +0.000 C 
BRANCH  25  26
ATOM     26  C   UNL     1      -4.130  12.594  23.156  0.00  0.00    +0.000 C 
BRANCH  26  29
ATOM     27  C   UNL     1      -5.651  13.310  21.339  0.00  0.00    +0.000 C 
ATOM     28  O   UNL     1      -5.910  14.384  21.873  0.00  0.00    +0.000 OA
ATOM     29  N   UNL     1      -4.853  12.350  21.919  0.00  0.00    +0.000 N 
ATOM     30  H   UNL     1      -4.516  11.596  21.337  0.00  0.00    +0.000 HD
BRANCH  27  36
ATOM     31  C   UNL     1      -4.819  11.470  16.793  0.00  0.00    +0.000 C 
ATOM     32  N   UNL     1      -5.696  12.202  17.707  0.00  0.00    +0.000 N 
ATOM     33  C   UNL     1      -6.906  12.730  17.274  0.00  0.00    +0.000 C 
ATOM     34  C   UNL     1      -7.791  13.308  18.100  0.00  0.00    +0.000 C 
ATOM     35  C   UNL     1      -7.518  13.402  19.585  0.00  0.00    +0.000 C 
ATOM     36  C   UNL     1      -6.099  13.014  19.946  0.00  0.00    +0.000 C 
ATOM     37  C   UNL     1      -5.312  12.417  19.031  0.00  0.00    +0.000 C 
ENDBRANCH  27  36
ENDBRANCH  26  29
ENDBRANCH  25  26
ENDBRANCH  24  25
ENDBRANCH  22  24
ENDBRANCH   1  22
TORSDOF 9
ENDMDL
MODEL 2
REMARK VINA RESULT:      -7.7      4.765      7.869
REMARK  Name = 
REMARK  12 active torsions:
REMARK  status: ('A' for Active; 'I' for Inactive)
REMARK    1  A    between atoms: C_1  and  N_2
REMARK    2  A    between atoms: C_6  and  C_7
REMARK    3  A    between atoms: N_9  and  C_10
REMARK    4  A    between atoms: C_10  and  C_11
REMARK    5  A    between atoms: C_11  and  O_12
REMARK    6  A    between atoms: O_12  and  C_13
REMARK    7  A    between atoms: C_13  and  C_15
REMARK    8  A    between atoms: C_19  and  N_20
REMARK    9  A    between atoms: C_21  and  C_23
REMARK   10  A    between atoms: C_23  and  C_24
REMARK   11  A    between atoms: C_32  and  C_33
REMARK   12  A    between atoms: C_32  and  C_34
REMARK                            x       y       z     vdW  Elec       q    Type
REMARK                         _______ _______ _______ _____ _____    ______ ____
ROOT
ATOM      1  C   UNL     1       2.321   4.410  19.144  0.00  0.00    +0.000 C 
ATOM      2  N   UNL     1       3.290   4.608  18.079  0.00  0.00    +0.000 N 
ATOM      3  C   UNL     1       3.823   5.581  17.329  0.00  0.00    +0.000 C 
ATOM      4  O   UNL     1       3.721   6.776  17.286  0.00  0.00    +0.000 OA
ATOM      5  C   UNL     1       4.716   4.404  16.798  0.00  0.00    +0.000 C 
ATOM      6  C   UNL     1       3.334   3.647  16.920  0.00  0.00    +0.000 C 
ATOM      7  S   UNL     1       2.530   2.202  17.790  0.00  0.00    +0.000 S 
ATOM      8  C   UNL     1       2.601   2.920  19.456  0.00  0.00    +0.000 C 
ATOM      9  C   UNL     1       4.036   2.597  19.939  0.00  0.00    +0.000 C 
ATOM     10  C   UNL     1       1.610   2.244  20.393  0.00  0.00    +0.000 C 
ENDROOT
BRANCH   5  11
ATOM     11  N   UNL     1       5.312   4.369  15.424  0.00  0.00    +0.000 N 
ATOM     12  C   UNL     1       6.629   4.793  15.302  0.00  0.00    +0.000 C 
ATOM     13  O   UNL     1       7.295   5.133  16.283  0.00  0.00    +0.000 OA
ATOM     14  H   UNL     1       4.728   4.318  14.594  0.00  0.00    +0.000 HD
BRANCH  12  15
ATOM     15  C   UNL     1       7.225   4.832  13.917  0.00  0.00    +0.000 C 
BRANCH  15  16
ATOM     16  C   UNL     1       6.495   3.937  12.947  0.00  0.00    +0.000 A 
ATOM     17  C   UNL     1       5.115   4.078  12.734  0.00  0.00    +0.000 A 
ATOM     18  C   UNL     1       4.444   3.233  11.850  0.00  0.00    +0.000 A 
ATOM     19  C   UNL     1       5.148   2.247  11.162  0.00  0.00    +0.000 A 
ATOM     20  C   UNL     1       6.523   2.116  11.348  0.00  0.00    +0.000 A 
ATOM     21  C   UNL     1       7.196   2.959  12.233  0.00  0.00    +0.000 A 
ENDBRANCH  15  16
ENDBRANCH  12  15
ENDBRANCH   5  11
BRANCH   1  22
ATOM     22  C   UNL     1       2.365   5.165  20.480  0.00  0.00    +0.000 C 
ATOM     23  O   UNL     1       2.561   4.587  21.547  0.00  0.00    +0.000 OA
BRANCH  22  24
ATOM     24  O   UNL     1       2.456   6.514  20.328  0.00  0.00    +0.000 OA
BRANCH  24  25
ATOM     25  C   UNL     1       1.269   7.214  20.763  0.00  0.00    +0.000 C 
BRANCH  25  26
ATOM     26  C   UNL     1       1.572   8.716  20.786  0.00  0.00    +0.000 C 
BRANCH  26  29
ATOM     27  C   UNL     1       0.279   9.813  18.983  0.00  0.00    +0.000 C 
ATOM     28  O   UNL     1       1.061   9.466  18.104  0.00  0.00    +0.000 OA
ATOM     29  N   UNL     1       0.481   9.554  20.320  0.00  0.00    +0.000 N 
ATOM     30  H   UNL     1      -0.298   9.678  20.952  0.00  0.00    +0.000 HD
BRANCH  27  36
ATOM     31  C   UNL     1      -3.496  12.863  20.077  0.00  0.00    +0.000 C 
ATOM     32  N   UNL     1      -2.912  11.861  19.185  0.00  0.00    +0.000 N 
ATOM     33  C   UNL     1      -3.604  11.402  18.071  0.00  0.00    +0.000 C 
ATOM     34  C   UNL     1      -3.066  10.572  17.164  0.00  0.00    +0.000 C 
ATOM     35  C   UNL     1      -1.638  10.094  17.304  0.00  0.00    +0.000 C 
ATOM     36  C   UNL     1      -1.028  10.450  18.644  0.00  0.00    +0.000 C 
ATOM     37  C   UNL     1      -1.657  11.317  19.459  0.00  0.00    +0.000 C 
ENDBRANCH  27  36
ENDBRANCH  26  29
ENDBRANCH  25  26
ENDBRANCH  24  25
ENDBRANCH  22  24
ENDBRANCH   1  22
TORSDOF 9
ENDMDL
MODEL 3
REMARK VINA RESULT:      -7.6      4.771      8.151
REMARK  Name = 
REMARK  12 active torsions:
REMARK  status: ('A' for Active; 'I' for Inactive)
REMARK    1  A    between atoms: C_1  and  N_2
REMARK    2  A    between atoms: C_6  and  C_7
REMARK    3  A    between atoms: N_9  and  C_10
REMARK    4  A    between atoms: C_10  and  C_11
REMARK    5  A    between atoms: C_11  and  O_12
REMARK    6  A    between atoms: O_12  and  C_13
REMARK    7  A    between atoms: C_13  and  C_15
REMARK    8  A    between atoms: C_19  and  N_20
REMARK    9  A    between atoms: C_21  and  C_23
REMARK   10  A    between atoms: C_23  and  C_24
REMARK   11  A    between atoms: C_32  and  C_33
REMARK   12  A    between atoms: C_32  and  C_34
REMARK                            x       y       z     vdW  Elec       q    Type
REMARK                         _______ _______ _______ _____ _____    ______ ____
ROOT
ATOM      1  C   UNL     1       2.495   4.513  18.935  0.00  0.00    +0.000 C 
ATOM      2  N   UNL     1       3.509   4.543  17.894  0.00  0.00    +0.000 N 
ATOM      3  C   UNL     1       4.128   5.402  17.074  0.00  0.00    +0.000 C 
ATOM      4  O   UNL     1       4.106   6.590  16.910  0.00  0.00    +0.000 OA
ATOM      5  C   UNL     1       4.958   4.124  16.694  0.00  0.00    +0.000 C 
ATOM      6  C   UNL     1       3.525   3.470  16.837  0.00  0.00    +0.000 C 
ATOM      7  S   UNL     1       2.602   2.172  17.812  0.00  0.00    +0.000 S 
ATOM      8  C   UNL     1       2.667   3.047  19.402  0.00  0.00    +0.000 C 
ATOM      9  C   UNL     1       4.061   2.686  19.969  0.00  0.00    +0.000 C 
ATOM     10  C   UNL     1       1.604   2.531  20.362  0.00  0.00    +0.000 C 
ENDROOT
BRANCH   5  11
ATOM     11  N   UNL     1       5.593   3.915  15.353  0.00  0.00    +0.000 N 
ATOM     12  C   UNL     1       6.638   4.766  15.017  0.00  0.00    +0.000 C 
ATOM     13  O   UNL     1       7.060   5.618  15.803  0.00  0.00    +0.000 OA
ATOM     14  H   UNL     1       5.124   3.391  14.621  0.00  0.00    +0.000 HD
BRANCH  12  15
ATOM     15  C   UNL     1       7.246   4.618  13.644  0.00  0.00    +0.000 C 
BRANCH  15  16
ATOM     16  C   UNL     1       6.397   3.777  12.724  0.00  0.00    +0.000 A 
ATOM     17  C   UNL     1       5.051   4.099  12.488  0.00  0.00    +0.000 A 
ATOM     18  C   UNL     1       4.268   3.305  11.651  0.00  0.00    +0.000 A 
ATOM     19  C   UNL     1       4.826   2.189  11.031  0.00  0.00    +0.000 A 
ATOM     20  C   UNL     1       6.169   1.876  11.238  0.00  0.00    +0.000 A 
ATOM     21  C   UNL     1       6.953   2.668  12.077  0.00  0.00    +0.000 A 
ENDBRANCH  15  16
ENDBRANCH  12  15
ENDBRANCH   5  11
BRANCH   1  22
ATOM     22  C   UNL     1       2.547   5.393  20.192  0.00  0.00    +0.000 C 
ATOM     23  O   UNL     1       2.423   4.923  21.321  0.00  0.00    +0.000 OA
BRANCH  22  24
ATOM     24  O   UNL     1       3.019   6.646  19.948  0.00  0.00    +0.000 OA
BRANCH  24  25
ATOM     25  C   UNL     1       1.969   7.632  19.828  0.00  0.00    +0.000 C 
BRANCH  25  26
ATOM     26  C   UNL     1       1.239   7.729  21.172  0.00  0.00    +0.000 C 
BRANCH  26  29
ATOM     27  C   UNL     1       0.398   9.759  22.311  0.00  0.00    +0.000 C 
ATOM     28  O   UNL     1       1.145   9.623  23.274  0.00  0.00    +0.000 OA
ATOM     29  N   UNL     1       0.325   8.853  21.277  0.00  0.00    +0.000 N 
ATOM     30  H   UNL     1      -0.147   9.135  20.429  0.00  0.00    +0.000 HD
BRANCH  27  36
ATOM     31  C   UNL     1      -0.679  13.950  19.856  0.00  0.00    +0.000 C 
ATOM     32  N   UNL     1      -0.906  13.080  21.010  0.00  0.00    +0.000 N 
ATOM     33  C   UNL     1      -1.795  13.439  22.015  0.00  0.00    +0.000 C 
ATOM     34  C   UNL     1      -2.120  12.625  23.031  0.00  0.00    +0.000 C 
ATOM     35  C   UNL     1      -1.533  11.234  23.127  0.00  0.00    +0.000 C 
ATOM     36  C   UNL     1      -0.414  10.999  22.134  0.00  0.00    +0.000 C 
ATOM     37  C   UNL     1      -0.202  11.883  21.141  0.00  0.00    +0.000 C 
ENDBRANCH  27  36
ENDBRANCH  26  29
ENDBRANCH  25  26
ENDBRANCH  24  25
ENDBRANCH  22  24
ENDBRANCH   1  22
TORSDOF 9
ENDMDL
MODEL 4
REMARK VINA RESULT:      -7.5      4.837      7.777
REMARK  Name = 
REMARK  12 active torsions:
REMARK  status: ('A' for Active; 'I' for Inactive)
REMARK    1  A    between atoms: C_1  and  N_2
REMARK    2  A    between atoms: C_6  and  C_7
REMARK    3  A    between atoms: N_9  and  C_10
REMARK    4  A    between atoms: C_10  and  C_11
REMARK    5  A    between atoms: C_11  and  O_12
REMARK    6  A    between atoms: O_12  and  C_13
REMARK    7  A    between atoms: C_13  and  C_15
REMARK    8  A    between atoms: C_19  and  N_20
REMARK    9  A    between atoms: C_21  and  C_23
REMARK   10  A    between atoms: C_23  and  C_24
REMARK   11  A    between atoms: C_32  and  C_33
REMARK   12  A    between atoms: C_32  and  C_34
REMARK                            x       y       z     vdW  Elec       q    Type
REMARK                         _______ _______ _______ _____ _____    ______ ____
ROOT
ATOM      1  C   UNL     1       2.355   4.625  18.857  0.00  0.00    +0.000 C 
ATOM      2  N   UNL     1       3.423   4.610  17.872  0.00  0.00    +0.000 N 
ATOM      3  C   UNL     1       4.068   5.427  17.029  0.00  0.00    +0.000 C 
ATOM      4  O   UNL     1       4.031   6.601  16.784  0.00  0.00    +0.000 OA
ATOM      5  C   UNL     1       4.944   4.147  16.781  0.00  0.00    +0.000 C 
ATOM      6  C   UNL     1       3.520   3.470  16.892  0.00  0.00    +0.000 C 
ATOM      7  S   UNL     1       2.571   2.218  17.902  0.00  0.00    +0.000 S 
ATOM      8  C   UNL     1       2.531   3.198  19.430  0.00  0.00    +0.000 C 
ATOM      9  C   UNL     1       3.899   2.909  20.094  0.00  0.00    +0.000 C 
ATOM     10  C   UNL     1       1.428   2.721  20.365  0.00  0.00    +0.000 C 
ENDROOT
BRANCH   5  11
ATOM     11  N   UNL     1       5.656   3.866  15.494  0.00  0.00    +0.000 N 
ATOM     12  C   UNL     1       6.542   4.836  15.044  0.00  0.00    +0.000 C 
ATOM     13  O   UNL     1       6.773   5.857  15.696  0.00  0.00    +0.000 OA
ATOM     14  H   UNL     1       5.317   3.163  14.844  0.00  0.00    +0.000 HD
BRANCH  12  15
ATOM     15  C   UNL     1       7.217   4.603  13.714  0.00  0.00    +0.000 C 
BRANCH  15  16
ATOM     16  C   UNL     1       6.375   3.777  12.775  0.00  0.00    +0.000 A 
ATOM     17  C   UNL     1       5.041   4.125  12.507  0.00  0.00    +0.000 A 
ATOM     18  C   UNL     1       4.264   3.344  11.651  0.00  0.00    +0.000 A 
ATOM     19  C   UNL     1       4.815   2.217  11.047  0.00  0.00    +0.000 A 
ATOM     20  C   UNL     1       6.146   1.879  11.286  0.00  0.00    +0.000 A 
ATOM     21  C   UNL     1       6.925   2.657  12.143  0.00  0.00    +0.000 A 
ENDBRANCH  15  16
ENDBRANCH  12  15
ENDBRANCH   5  11
BRANCH   1  22
ATOM     22  C   UNL     1       2.319   5.587  20.052  0.00  0.00    +0.000 C 
ATOM     23  O   UNL     1       2.095   5.196  21.196  0.00  0.00    +0.000 OA
BRANCH  22  24
ATOM     24  O   UNL     1       2.832   6.814  19.765  0.00  0.00    +0.000 OA
BRANCH  24  25
ATOM     25  C   UNL     1       1.907   7.892  20.035  0.00  0.00    +0.000 C 
BRANCH  25  26
ATOM     26  C   UNL     1       1.819   8.779  18.788  0.00  0.00    +0.000 C 
BRANCH  26  29
ATOM     27  C   UNL     1      -0.244  10.144  18.845  0.00  0.00    +0.000 C 
ATOM     28  O   UNL     1       0.159  10.856  19.759  0.00  0.00    +0.000 OA
ATOM     29  N   UNL     1       0.463   9.070  18.356  0.00  0.00    +0.000 N 
ATOM     30  H   UNL     1       0.172   8.669  17.475  0.00  0.00    +0.000 HD
BRANCH  27  36
ATOM     31  C   UNL     1      -3.098   9.918  14.777  0.00  0.00    +0.000 C 
ATOM     32  N   UNL     1      -2.873  10.448  16.122  0.00  0.00    +0.000 N 
ATOM     33  C   UNL     1      -3.762  11.348  16.697  0.00  0.00    +0.000 C 
ATOM     34  C   UNL     1      -3.658  11.771  17.966  0.00  0.00    +0.000 C 
ATOM     35  C   UNL     1      -2.549  11.265  18.862  0.00  0.00    +0.000 C 
ATOM     36  C   UNL     1      -1.501  10.472  18.110  0.00  0.00    +0.000 C 
ATOM     37  C   UNL     1      -1.734  10.085  16.842  0.00  0.00    +0.000 C 
ENDBRANCH  27  36
ENDBRANCH  26  29
ENDBRANCH  25  26
ENDBRANCH  24  25
ENDBRANCH  22  24
ENDBRANCH   1  22
TORSDOF 9
ENDMDL
MODEL 5
REMARK VINA RESULT:      -7.5      4.766      7.654
REMARK  Name = 
REMARK  12 active torsions:
REMARK  status: ('A' for Active; 'I' for Inactive)
REMARK    1  A    between atoms: C_1  and  N_2
REMARK    2  A    between atoms: C_6  and  C_7
REMARK    3  A    between atoms: N_9  and  C_10
REMARK    4  A    between atoms: C_10  and  C_11
REMARK    5  A    between atoms: C_11  and  O_12
REMARK    6  A    between atoms: O_12  and  C_13
REMARK    7  A    between atoms: C_13  and  C_15
REMARK    8  A    between atoms: C_19  and  N_20
REMARK    9  A    between atoms: C_21  and  C_23
REMARK   10  A    between atoms: C_23  and  C_24
REMARK   11  A    between atoms: C_32  and  C_33
REMARK   12  A    between atoms: C_32  and  C_34
REMARK                            x       y       z     vdW  Elec       q    Type
REMARK                         _______ _______ _______ _____ _____    ______ ____
ROOT
ATOM      1  C   UNL     1       2.372   4.874  18.827  0.00  0.00    +0.000 C 
ATOM      2  N   UNL     1       3.432   4.812  17.834  0.00  0.00    +0.000 N 
ATOM      3  C   UNL     1       4.140   5.606  17.021  0.00  0.00    +0.000 C 
ATOM      4  O   UNL     1       4.199   6.788  16.825  0.00  0.00    +0.000 OA
ATOM      5  C   UNL     1       4.904   4.269  16.714  0.00  0.00    +0.000 C 
ATOM      6  C   UNL     1       3.429   3.709  16.807  0.00  0.00    +0.000 C 
ATOM      7  S   UNL     1       2.383   2.499  17.773  0.00  0.00    +0.000 S 
ATOM      8  C   UNL     1       2.431   3.415  19.340  0.00  0.00    +0.000 C 
ATOM      9  C   UNL     1       3.773   2.985  19.980  0.00  0.00    +0.000 C 
ATOM     10  C   UNL     1       1.296   2.993  20.263  0.00  0.00    +0.000 C 
ENDROOT
BRANCH   5  11
ATOM     11  N   UNL     1       5.585   3.983  15.411  0.00  0.00    +0.000 N 
ATOM     12  C   UNL     1       6.672   4.782  15.084  0.00  0.00    +0.000 C 
ATOM     13  O   UNL     1       7.092   5.652  15.852  0.00  0.00    +0.000 OA
ATOM     14  H   UNL     1       5.127   3.444  14.681  0.00  0.00    +0.000 HD
BRANCH  12  15
ATOM     15  C   UNL     1       7.329   4.556  13.745  0.00  0.00    +0.000 C 
BRANCH  15  16
ATOM     16  C   UNL     1       6.461   3.761  12.802  0.00  0.00    +0.000 A 
ATOM     17  C   UNL     1       5.110   4.091  12.613  0.00  0.00    +0.000 A 
ATOM     18  C   UNL     1       4.310   3.338  11.754  0.00  0.00    +0.000 A 
ATOM     19  C   UNL     1       4.854   2.256  11.067  0.00  0.00    +0.000 A 
ATOM     20  C   UNL     1       6.202   1.936  11.228  0.00  0.00    +0.000 A 
ATOM     21  C   UNL     1       7.004   2.687  12.089  0.00  0.00    +0.000 A 
ENDBRANCH  15  16
ENDBRANCH  12  15
ENDBRANCH   5  11
BRANCH   1  22
ATOM     22  C   UNL     1       2.422   5.786  20.061  0.00  0.00    +0.000 C 
ATOM     23  O   UNL     1       2.478   5.333  21.202  0.00  0.00    +0.000 OA
BRANCH  22  24
ATOM     24  O   UNL     1       2.685   7.085  19.754  0.00  0.00    +0.000 OA
BRANCH  24  25
ATOM     25  C   UNL     1       1.612   7.982  20.121  0.00  0.00    +0.000 C 
BRANCH  25  26
ATOM     26  C   UNL     1       1.521   9.087  19.063  0.00  0.00    +0.000 C 
BRANCH  26  29
ATOM     27  C   UNL     1      -0.627  10.317  19.062  0.00  0.00    +0.000 C 
ATOM     28  O   UNL     1      -0.331  10.991  20.044  0.00  0.00    +0.000 OA
ATOM     29  N   UNL     1       0.180   9.322  18.557  0.00  0.00    +0.000 N 
ATOM     30  H   UNL     1      -0.027   8.963  17.635  0.00  0.00    +0.000 HD
BRANCH  27  36
ATOM     31  C   UNL     1      -5.103  12.432  18.577  0.00  0.00    +0.000 C 
ATOM     32  N   UNL     1      -4.061  11.562  18.029  0.00  0.00    +0.000 N 
ATOM     33  C   UNL     1      -4.236  10.912  16.814  0.00  0.00    +0.000 C 
ATOM     34  C   UNL     1      -3.268  10.198  16.219  0.00  0.00    +0.000 C 
ATOM     35  C   UNL     1      -1.898  10.075  16.850  0.00  0.00    +0.000 C 
ATOM     36  C   UNL     1      -1.852  10.615  18.264  0.00  0.00    +0.000 C 
ATOM     37  C   UNL     1      -2.882  11.340  18.740  0.00  0.00    +0.000 C 
ENDBRANCH  27  36
ENDBRANCH  26  29
ENDBRANCH  25  26
ENDBRANCH  24  25
ENDBRANCH  22  24
ENDBRANCH   1  22
TORSDOF 9
ENDMDL
MODEL 6
REMARK VINA RESULT:      -7.4      4.226      7.566
REMARK  Name = 
REMARK  12 active torsions:
REMARK  status: ('A' for Active; 'I' for Inactive)
REMARK    1  A    between atoms: C_1  and  N_2
REMARK    2  A    between atoms: C_6  and  C_7
REMARK    3  A    between atoms: N_9  and  C_10
REMARK    4  A    between atoms: C_10  and  C_11
REMARK    5  A    between atoms: C_11  and  O_12
REMARK    6  A    between atoms: O_12  and  C_13
REMARK    7  A    between atoms: C_13  and  C_15
REMARK    8  A    between atoms: C_19  and  N_20
REMARK    9  A    between atoms: C_21  and  C_23
REMARK   10  A    between atoms: C_23  and  C_24
REMARK   11  A    between atoms: C_32  and  C_33
REMARK   12  A    between atoms: C_32  and  C_34
REMARK                            x       y       z     vdW  Elec       q    Type
REMARK                         _______ _______ _______ _____ _____    ______ ____
ROOT
ATOM      1  C   UNL     1      -0.157  12.499  19.329  0.00  0.00    +0.000 C 
ATOM      2  N   UNL     1       0.731  11.428  18.910  0.00  0.00    +0.000 N 
ATOM      3  C   UNL     1       1.947  11.234  18.383  0.00  0.00    +0.000 C 
ATOM      4  O   UNL     1       2.864  11.943  18.074  0.00  0.00    +0.000 OA
ATOM      5  C   UNL     1       1.587   9.724  18.621  0.00  0.00    +0.000 C 
ATOM      6  C   UNL     1       0.177  10.255  18.142  0.00  0.00    +0.000 C 
ATOM      7  S   UNL     1      -1.593  10.423  18.715  0.00  0.00    +0.000 S 
ATOM      8  C   UNL     1      -1.259  11.651  20.009  0.00  0.00    +0.000 C 
ATOM      9  C   UNL     1      -0.798  10.802  21.218  0.00  0.00    +0.000 C 
ATOM     10  C   UNL     1      -2.524  12.403  20.399  0.00  0.00    +0.000 C 
ENDROOT
BRANCH   5  11
ATOM     11  N   UNL     1       2.130   8.601  17.792  0.00  0.00    +0.000 N 
ATOM     12  C   UNL     1       2.508   7.450  18.470  0.00  0.00    +0.000 C 
ATOM     13  O   UNL     1       2.357   7.334  19.688  0.00  0.00    +0.000 OA
ATOM     14  H   UNL     1       2.470   8.756  16.848  0.00  0.00    +0.000 HD
BRANCH  12  15
ATOM     15  C   UNL     1       3.122   6.333  17.661  0.00  0.00    +0.000 C 
BRANCH  15  16
ATOM     16  C   UNL     1       2.793   4.969  18.215  0.00  0.00    +0.000 A 
ATOM     17  C   UNL     1       3.675   4.313  19.088  0.00  0.00    +0.000 A 
ATOM     18  C   UNL     1       3.372   3.043  19.579  0.00  0.00    +0.000 A 
ATOM     19  C   UNL     1       2.179   2.423  19.213  0.00  0.00    +0.000 A 
ATOM     20  C   UNL     1       1.285   3.078  18.368  0.00  0.00    +0.000 A 
ATOM     21  C   UNL     1       1.587   4.347  17.873  0.00  0.00    +0.000 A 
ENDBRANCH  15  16
ENDBRANCH  12  15
ENDBRANCH   5  11
BRANCH   1  22
ATOM     22  C   UNL     1       0.249  13.592  20.328  0.00  0.00    +0.000 C 
ATOM     23  O   UNL     1       0.893  13.338  21.344  0.00  0.00    +0.000 OA
BRANCH  22  24
ATOM     24  O   UNL     1       0.083  14.851  19.838  0.00  0.00    +0.000 OA
BRANCH  24  25
ATOM     25  C   UNL     1       1.089  15.216  18.865  0.00  0.00    +0.000 C 
BRANCH  25  26
ATOM     26  C   UNL     1       2.265  15.863  19.605  0.00  0.00    +0.000 C 
BRANCH  26  29
ATOM     27  C   UNL     1       4.648  15.963  18.942  0.00  0.00    +0.000 C 
ATOM     28  O   UNL     1       4.598  17.154  18.651  0.00  0.00    +0.000 OA
ATOM     29  N   UNL     1       3.551  15.237  19.347  0.00  0.00    +0.000 N 
ATOM     30  H   UNL     1       3.708  14.332  19.770  0.00  0.00    +0.000 HD
BRANCH  27  36
ATOM     31  C   UNL     1       8.769  14.554  21.345  0.00  0.00    +0.000 C 
ATOM     32  N   UNL     1       7.998  14.603  20.102  0.00  0.00    +0.000 N 
ATOM     33  C   UNL     1       8.505  14.076  18.921  0.00  0.00    +0.000 C 
ATOM     34  C   UNL     1       7.790  13.996  17.789  0.00  0.00    +0.000 C 
ATOM     35  C   UNL     1       6.356  14.475  17.742  0.00  0.00    +0.000 C 
ATOM     36  C   UNL     1       5.950  15.235  18.988  0.00  0.00    +0.000 C 
ATOM     37  C   UNL     1       6.746  15.219  20.073  0.00  0.00    +0.000 C 
ENDBRANCH  27  36
ENDBRANCH  26  29
ENDBRANCH  25  26
ENDBRANCH  24  25
ENDBRANCH  22  24
ENDBRANCH   1  22
TORSDOF 9
ENDMDL
MODEL 7
REMARK VINA RESULT:      -7.4      3.042     10.090
REMARK  Name = 
REMARK  12 active torsions:
REMARK  status: ('A' for Active; 'I' for Inactive)
REMARK    1  A    between atoms: C_1  and  N_2
REMARK    2  A    between atoms: C_6  and  C_7
REMARK    3  A    between atoms: N_9  and  C_10
REMARK    4  A    between atoms: C_10  and  C_11
REMARK    5  A    between atoms: C_11  and  O_12
REMARK    6  A    between atoms: O_12  and  C_13
REMARK    7  A    between atoms: C_13  and  C_15
REMARK    8  A    between atoms: C_19  and  N_20
REMARK    9  A    between atoms: C_21  and  C_23
REMARK   10  A    between atoms: C_23  and  C_24
REMARK   11  A    between atoms: C_32  and  C_33
REMARK   12  A    between atoms: C_32  and  C_34
REMARK                            x       y       z     vdW  Elec       q    Type
REMARK                         _______ _______ _______ _____ _____    ______ ____
ROOT
ATOM      1  C   UNL     1       0.291   9.472  20.396  0.00  0.00    +0.000 C 
ATOM      2  N   UNL     1      -0.354  10.573  21.091  0.00  0.00    +0.000 N 
ATOM      3  C   UNL     1      -0.907  10.873  22.273  0.00  0.00    +0.000 C 
ATOM      4  O   UNL     1      -1.046  10.299  23.317  0.00  0.00    +0.000 OA
ATOM      5  C   UNL     1      -1.014  12.302  21.632  0.00  0.00    +0.000 C 
ATOM      6  C   UNL     1      -1.366  11.423  20.366  0.00  0.00    +0.000 C 
ATOM      7  S   UNL     1      -0.776  11.054  18.633  0.00  0.00    +0.000 S 
ATOM      8  C   UNL     1       0.761  10.225  19.127  0.00  0.00    +0.000 C 
ATOM      9  C   UNL     1       1.751  11.389  19.370  0.00  0.00    +0.000 C 
ATOM     10  C   UNL     1       1.305   9.351  18.005  0.00  0.00    +0.000 C 
ENDROOT
BRANCH   5  11
ATOM     11  N   UNL     1      -2.071  13.298  21.997  0.00  0.00    +0.000 N 
ATOM     12  C   UNL     1      -1.882  14.008  23.176  0.00  0.00    +0.000 C 
ATOM     13  O   UNL     1      -0.868  13.865  23.863  0.00  0.00    +0.000 OA
ATOM     14  H   UNL     1      -2.997  13.264  21.581  0.00  0.00    +0.000 HD
BRANCH  12  15
ATOM     15  C   UNL     1      -2.969  14.965  23.597  0.00  0.00    +0.000 C 
BRANCH  15  16
ATOM     16  C   UNL     1      -4.304  14.285  23.772  0.00  0.00    +0.000 A 
ATOM     17  C   UNL     1      -5.489  14.902  23.342  0.00  0.00    +0.000 A 
ATOM     18  C   UNL     1      -6.721  14.275  23.526  0.00  0.00    +0.000 A 
ATOM     19  C   UNL     1      -6.779  13.021  24.128  0.00  0.00    +0.000 A 
ATOM     20  C   UNL     1      -5.605  12.388  24.535  0.00  0.00    +0.000 A 
ATOM     21  C   UNL     1      -4.371  13.015  24.354  0.00  0.00    +0.000 A 
ENDBRANCH  15  16
ENDBRANCH  12  15
ENDBRANCH   5  11
BRANCH   1  22
ATOM     22  C   UNL     1       1.510   8.721  20.949  0.00  0.00    +0.000 C 
ATOM     23  O   UNL     1       1.999   8.991  22.045  0.00  0.00    +0.000 OA
BRANCH  22  24
ATOM     24  O   UNL     1       1.793   7.581  20.261  0.00  0.00    +0.000 OA
BRANCH  24  25
ATOM     25  C   UNL     1       1.129   6.416  20.800  0.00  0.00    +0.000 C 
BRANCH  25  26
ATOM     26  C   UNL     1       2.155   5.282  20.912  0.00  0.00    +0.000 C 
BRANCH  26  29
ATOM     27  C   UNL     1       3.576   4.411  19.082  0.00  0.00    +0.000 C 
ATOM     28  O   UNL     1       3.009   3.323  19.055  0.00  0.00    +0.000 OA
ATOM     29  N   UNL     1       3.275   5.397  19.994  0.00  0.00    +0.000 N 
ATOM     30  H   UNL     1       3.627   6.329  19.821  0.00  0.00    +0.000 HD
BRANCH  27  36
ATOM     31  C   UNL     1       7.400   7.167  17.493  0.00  0.00    +0.000 C 
ATOM     32  N   UNL     1       6.370   6.167  17.206  0.00  0.00    +0.000 N 
ATOM     33  C   UNL     1       6.224   5.634  15.931  0.00  0.00    +0.000 C 
ATOM     34  C   UNL     1       5.373   4.636  15.648  0.00  0.00    +0.000 C 
ATOM     35  C   UNL     1       4.520   4.015  16.732  0.00  0.00    +0.000 C 
ATOM     36  C   UNL     1       4.568   4.789  18.033  0.00  0.00    +0.000 C 
ATOM     37  C   UNL     1       5.487   5.757  18.205  0.00  0.00    +0.000 C 
ENDBRANCH  27  36
ENDBRANCH  26  29
ENDBRANCH  25  26
ENDBRANCH  24  25
ENDBRANCH  22  24
ENDBRANCH   1  22
TORSDOF 9
ENDMDL
MODEL 8
REMARK VINA RESULT:      -7.4      3.116      4.359
REMARK  Name = 
REMARK  12 active torsions:
REMARK  status: ('A' for Active; 'I' for Inactive)
REMARK    1  A    between atoms: C_1  and  N_2
REMARK    2  A    between atoms: C_6  and  C_7
REMARK    3  A    between atoms: N_9  and  C_10
REMARK    4  A    between atoms: C_10  and  C_11
REMARK    5  A    between atoms: C_11  and  O_12
REMARK    6  A    between atoms: O_12  and  C_13
REMARK    7  A    between atoms: C_13  and  C_15
REMARK    8  A    between atoms: C_19  and  N_20
REMARK    9  A    between atoms: C_21  and  C_23
REMARK   10  A    between atoms: C_23  and  C_24
REMARK   11  A    between atoms: C_32  and  C_33
REMARK   12  A    between atoms: C_32  and  C_34
REMARK                            x       y       z     vdW  Elec       q    Type
REMARK                         _______ _______ _______ _____ _____    ______ ____
ROOT
ATOM      1  C   UNL     1      -0.321  12.332  18.889  0.00  0.00    +0.000 C 
ATOM      2  N   UNL     1       0.598  11.241  18.611  0.00  0.00    +0.000 N 
ATOM      3  C   UNL     1       1.850  11.022  18.188  0.00  0.00    +0.000 C 
ATOM      4  O   UNL     1       2.784  11.715  17.896  0.00  0.00    +0.000 OA
ATOM      5  C   UNL     1       1.479   9.529  18.506  0.00  0.00    +0.000 C 
ATOM      6  C   UNL     1       0.105  10.013  17.891  0.00  0.00    +0.000 C 
ATOM      7  S   UNL     1      -1.702  10.205  18.322  0.00  0.00    +0.000 S 
ATOM      8  C   UNL     1      -1.467  11.524  19.547  0.00  0.00    +0.000 C 
ATOM      9  C   UNL     1      -1.091  10.767  20.843  0.00  0.00    +0.000 C 
ATOM     10  C   UNL     1      -2.759  12.291  19.790  0.00  0.00    +0.000 C 
ENDROOT
BRANCH   5  11
ATOM     11  N   UNL     1       2.084   8.355  17.799  0.00  0.00    +0.000 N 
ATOM     12  C   UNL     1       2.504   7.296  18.593  0.00  0.00    +0.000 C 
ATOM     13  O   UNL     1       2.339   7.296  19.815  0.00  0.00    +0.000 OA
ATOM     14  H   UNL     1       2.432   8.431  16.848  0.00  0.00    +0.000 HD
BRANCH  12  15
ATOM     15  C   UNL     1       3.179   6.134  17.908  0.00  0.00    +0.000 C 
BRANCH  15  16
ATOM     16  C   UNL     1       4.678   6.158  18.070  0.00  0.00    +0.000 A 
ATOM     17  C   UNL     1       5.304   5.429  19.094  0.00  0.00    +0.000 A 
ATOM     18  C   UNL     1       6.690   5.473  19.249  0.00  0.00    +0.000 A 
ATOM     19  C   UNL     1       7.463   6.233  18.376  0.00  0.00    +0.000 A 
ATOM     20  C   UNL     1       6.853   6.939  17.339  0.00  0.00    +0.000 A 
ATOM     21  C   UNL     1       5.467   6.899  17.184  0.00  0.00    +0.000 A 
ENDBRANCH  15  16
ENDBRANCH  12  15
ENDBRANCH   5  11
BRANCH   1  22
ATOM     22  C   UNL     1       0.008  13.496  19.834  0.00  0.00    +0.000 C 
ATOM     23  O   UNL     1      -0.246  14.663  19.541  0.00  0.00    +0.000 OA
BRANCH  22  24
ATOM     24  O   UNL     1       0.322  13.088  21.093  0.00  0.00    +0.000 OA
BRANCH  24  25
ATOM     25  C   UNL     1       0.004  14.074  22.102  0.00  0.00    +0.000 C 
BRANCH  25  26
ATOM     26  C   UNL     1      -0.936  13.431  23.128  0.00  0.00    +0.000 C 
BRANCH  26  29
ATOM     27  C   UNL     1      -3.370  13.046  23.364  0.00  0.00    +0.000 C 
ATOM     28  O   UNL     1      -3.233  11.861  23.652  0.00  0.00    +0.000 OA
ATOM     29  N   UNL     1      -2.318  13.867  23.027  0.00  0.00    +0.000 N 
ATOM     30  H   UNL     1      -2.479  14.865  23.013  0.00  0.00    +0.000 HD
BRANCH  27  36
ATOM     31  C   UNL     1      -6.160  17.145  23.762  0.00  0.00    +0.000 C 
ATOM     32  N   UNL     1      -6.073  15.684  23.750  0.00  0.00    +0.000 N 
ATOM     33  C   UNL     1      -7.199  14.896  23.951  0.00  0.00    +0.000 C 
ATOM     34  C   UNL     1      -7.189  13.560  23.835  0.00  0.00    +0.000 C 
ATOM     35  C   UNL     1      -5.922  12.825  23.456  0.00  0.00    +0.000 C 
ATOM     36  C   UNL     1      -4.698  13.717  23.475  0.00  0.00    +0.000 C 
ATOM     37  C   UNL     1      -4.842  15.052  23.573  0.00  0.00    +0.000 C 
ENDBRANCH  27  36
ENDBRANCH  26  29
ENDBRANCH  25  26
ENDBRANCH  24  25
ENDBRANCH  22  24
ENDBRANCH   1  22
TORSDOF 9
ENDMDL
MODEL 9
REMARK VINA RESULT:      -7.4      2.639      4.167
REMARK  Name = 
REMARK  12 active torsions:
REMARK  status: ('A' for Active; 'I' for Inactive)
REMARK    1  A    between atoms: C_1  and  N_2
REMARK    2  A    between atoms: C_6  and  C_7
REMARK    3  A    between atoms: N_9  and  C_10
REMARK    4  A    between atoms: C_10  and  C_11
REMARK    5  A    between atoms: C_11  and  O_12
REMARK    6  A    between atoms: O_12  and  C_13
REMARK    7  A    between atoms: C_13  and  C_15
REMARK    8  A    between atoms: C_19  and  N_20
REMARK    9  A    between atoms: C_21  and  C_23
REMARK   10  A    between atoms: C_23  and  C_24
REMARK   11  A    between atoms: C_32  and  C_33
REMARK   12  A    between atoms: C_32  and  C_34
REMARK                            x       y       z     vdW  Elec       q    Type
REMARK                         _______ _______ _______ _____ _____    ______ ____
ROOT
ATOM      1  C   UNL     1       1.196   9.406  20.329  0.00  0.00    +0.000 C 
ATOM      2  N   UNL     1       1.609   8.176  19.675  0.00  0.00    +0.000 N 
ATOM      3  C   UNL     1       2.054   6.946  19.962  0.00  0.00    +0.000 C 
ATOM      4  O   UNL     1       2.251   6.326  20.970  0.00  0.00    +0.000 OA
ATOM      5  C   UNL     1       1.933   6.759  18.408  0.00  0.00    +0.000 C 
ATOM      6  C   UNL     1       2.484   8.240  18.449  0.00  0.00    +0.000 C 
ATOM      7  S   UNL     1       2.037   9.981  17.939  0.00  0.00    +0.000 S 
ATOM      8  C   UNL     1       0.652  10.168  19.097  0.00  0.00    +0.000 C 
ATOM      9  C   UNL     1      -0.537   9.497  18.368  0.00  0.00    +0.000 C 
ATOM     10  C   UNL     1       0.314  11.636  19.324  0.00  0.00    +0.000 C 
ENDROOT
BRANCH   5  11
ATOM     11  N   UNL     1       2.783   5.813  17.618  0.00  0.00    +0.000 N 
ATOM     12  C   UNL     1       2.436   4.469  17.667  0.00  0.00    +0.000 C 
ATOM     13  O   UNL     1       1.445   4.077  18.288  0.00  0.00    +0.000 OA
ATOM     14  H   UNL     1       3.712   6.074  17.300  0.00  0.00    +0.000 HD
BRANCH  12  15
ATOM     15  C   UNL     1       3.321   3.491  16.934  0.00  0.00    +0.000 C 
BRANCH  15  16
ATOM     16  C   UNL     1       4.759   3.940  16.881  0.00  0.00    +0.000 A 
ATOM     17  C   UNL     1       5.410   4.133  15.652  0.00  0.00    +0.000 A 
ATOM     18  C   UNL     1       6.747   4.529  15.612  0.00  0.00    +0.000 A 
ATOM     19  C   UNL     1       7.442   4.748  16.798  0.00  0.00    +0.000 A 
ATOM     20  C   UNL     1       6.797   4.585  18.024  0.00  0.00    +0.000 A 
ATOM     21  C   UNL     1       5.461   4.186  18.066  0.00  0.00    +0.000 A 
ENDBRANCH  15  16
ENDBRANCH  12  15
ENDBRANCH   5  11
BRANCH   1  22
ATOM     22  C   UNL     1       0.108   9.464  21.410  0.00  0.00    +0.000 C 
ATOM     23  O   UNL     1      -0.732   8.575  21.537  0.00  0.00    +0.000 OA
BRANCH  22  24
ATOM     24  O   UNL     1       0.345  10.414  22.356  0.00  0.00    +0.000 OA
BRANCH  24  25
ATOM     25  C   UNL     1      -0.859  10.871  23.012  0.00  0.00    +0.000 C 
BRANCH  25  26
ATOM     26  C   UNL     1      -1.277  12.205  22.384  0.00  0.00    +0.000 C 
BRANCH  26  29
ATOM     27  C   UNL     1      -3.388  12.795  21.235  0.00  0.00    +0.000 C 
ATOM     28  O   UNL     1      -2.829  13.057  20.174  0.00  0.00    +0.000 OA
ATOM     29  N   UNL     1      -2.710  12.441  22.379  0.00  0.00    +0.000 N 
ATOM     30  H   UNL     1      -3.239  12.038  23.141  0.00  0.00    +0.000 HD
BRANCH  27  36
ATOM     31  C   UNL     1      -7.612  13.088  23.847  0.00  0.00    +0.000 C 
ATOM     32  N   UNL     1      -6.937  12.785  22.583  0.00  0.00    +0.000 N 
ATOM     33  C   UNL     1      -7.649  12.328  21.482  0.00  0.00    +0.000 C 
ATOM     34  C   UNL     1      -7.093  12.147  20.274  0.00  0.00    +0.000 C 
ATOM     35  C   UNL     1      -5.630  12.455  20.041  0.00  0.00    +0.000 C 
ATOM     36  C   UNL     1      -4.877  12.730  21.325  0.00  0.00    +0.000 C 
ATOM     37  C   UNL     1      -5.553  12.917  22.474  0.00  0.00    +0.000 C 
ENDBRANCH  27  36
ENDBRANCH  26  29
ENDBRANCH  25  26
ENDBRANCH  24  25
ENDBRANCH  22  24
ENDBRANCH   1  22
TORSDOF 9
ENDMDL
