MODEL 1
REMARK VINA RESULT:      -8.8      0.000      0.000
REMARK  Name = 
REMARK  6 active torsions:
REMARK  status: ('A' for Active; 'I' for Inactive)
REMARK    1  A    between atoms: C_1  and  C_2
REMARK    2  A    between atoms: C_2  and  N_3
REMARK    3  A    between atoms: C_7  and  C_8
REMARK    4  A    between atoms: C_9  and  C_10
REMARK    5  A    between atoms: N_13  and  C_14
REMARK    6  A    between atoms: C_14  and  C_15
REMARK                            x       y       z     vdW  Elec       q    Type
REMARK                         _______ _______ _______ _____ _____    ______ ____
ROOT
ATOM      1  C   UNL     1       1.549   8.839  17.845  0.00  0.00    +0.000 C 
ATOM      2  C   UNL     1       1.075   9.418  19.000  0.00  0.00    +0.000 C 
ENDROOT
BRANCH   1   7
ATOM      3  N   UNL     1       4.014   4.083  18.657  0.00  0.00    +0.000 N 
ATOM      4  C   UNL     1       2.737   4.610  18.697  0.00  0.00    +0.000 C 
ATOM      5  C   UNL     1       2.371   5.856  18.360  0.00  0.00    +0.000 C 
ATOM      6  C   UNL     1       3.332   6.849  17.879  0.00  0.00    +0.000 C 
ATOM      7  C   UNL     1       2.917   8.147  17.626  0.00  0.00    +0.000 C 
ATOM      8  C   UNL     1       4.799   6.267  17.742  0.00  0.00    +0.000 A 
ATOM      9  C   UNL     1       5.902   6.995  17.257  0.00  0.00    +0.000 A 
ATOM     10  C   UNL     1       7.204   6.440  17.205  0.00  0.00    +0.000 A 
ATOM     11  C   UNL     1       7.458   5.146  17.636  0.00  0.00    +0.000 A 
ATOM     12  C   UNL     1       6.400   4.390  18.118  0.00  0.00    +0.000 A 
ATOM     13  C   UNL     1       5.074   4.903  18.176  0.00  0.00    +0.000 A 
BRANCH   3  15
ATOM     14  C   UNL     1       3.477   1.669  18.387  0.00  0.00    +0.000 C 
ATOM     15  C   UNL     1       4.284   2.713  19.152  0.00  0.00    +0.000 C 
ENDBRANCH   3  15
ENDBRANCH   1   7
BRANCH   2  16
ATOM     16  C   UNL     1      -0.133  10.362  19.294  0.00  0.00    +0.000 A 
ATOM     17  C   UNL     1       0.018  10.917  20.569  0.00  0.00    +0.000 A 
ATOM     18  C   UNL     1      -1.025  11.619  21.135  0.00  0.00    +0.000 A 
ATOM     19  N   UNL     1      -1.854  12.292  20.330  0.00  0.00    +0.000 N 
ATOM     20  C   UNL     1      -2.286  11.698  19.197  0.00  0.00    +0.000 A 
ATOM     21  C   UNL     1      -3.563  12.103  18.687  0.00  0.00    +0.000 A 
ATOM     22  C   UNL     1      -4.191  11.380  17.710  0.00  0.00    +0.000 A 
ATOM     23  C   UNL     1      -3.521  10.236  17.233  0.00  0.00    +0.000 A 
ATOM     24  C   UNL     1      -2.206   9.879  17.670  0.00  0.00    +0.000 A 
ATOM     25  C   UNL     1      -1.469  10.611  18.678  0.00  0.00    +0.000 A 
BRANCH  19  26
ATOM     26  C   UNL     1      -1.946  13.777  20.534  0.00  0.00    +0.000 C 
ATOM     27  C   UNL     1      -0.817  14.494  19.829  0.00  0.00    +0.000 C 
ENDBRANCH  19  26
ENDBRANCH   2  16
TORSDOF 4
ENDMDL
MODEL 2
REMARK VINA RESULT:      -8.6      1.329      9.558
REMARK  Name = 
REMARK  6 active torsions:
REMARK  status: ('A' for Active; 'I' for Inactive)
REMARK    1  A    between atoms: C_1  and  C_2
REMARK    2  A    between atoms: C_2  and  N_3
REMARK    3  A    between atoms: C_7  and  C_8
REMARK    4  A    between atoms: C_9  and  C_10
REMARK    5  A    between atoms: N_13  and  C_14
REMARK    6  A    between atoms: C_14  and  C_15
REMARK                            x       y       z     vdW  Elec       q    Type
REMARK                         _______ _______ _______ _____ _____    ______ ____
ROOT
ATOM      1  C   UNL     1       1.555   8.920  18.269  0.00  0.00    +0.000 C 
ATOM      2  C   UNL     1       2.347   7.924  18.794  0.00  0.00    +0.000 C 
ENDROOT
BRANCH   1   7
ATOM      3  N   UNL     1      -3.339  11.211  17.874  0.00  0.00    +0.000 N 
ATOM      4  C   UNL     1      -2.611  10.208  17.264  0.00  0.00    +0.000 C 
ATOM      5  C   UNL     1      -1.395   9.767  17.620  0.00  0.00    +0.000 C 
ATOM      6  C   UNL     1      -0.667  10.321  18.761  0.00  0.00    +0.000 C 
ATOM      7  C   UNL     1       0.621   9.890  19.036  0.00  0.00    +0.000 C 
ATOM      8  C   UNL     1      -1.496  11.423  19.541  0.00  0.00    +0.000 A 
ATOM      9  C   UNL     1      -1.048  12.081  20.703  0.00  0.00    +0.000 A 
ATOM     10  C   UNL     1      -1.811  13.097  21.331  0.00  0.00    +0.000 A 
ATOM     11  C   UNL     1      -3.039  13.498  20.826  0.00  0.00    +0.000 A 
ATOM     12  C   UNL     1      -3.521  12.874  19.685  0.00  0.00    +0.000 A 
ATOM     13  C   UNL     1      -2.795  11.839  19.030  0.00  0.00    +0.000 A 
BRANCH   3  15
ATOM     14  C   UNL     1      -5.812  10.952  17.974  0.00  0.00    +0.000 C 
ATOM     15  C   UNL     1      -4.634  11.659  17.309  0.00  0.00    +0.000 C 
ENDBRANCH   3  15
ENDBRANCH   1   7
BRANCH   2  16
ATOM     16  C   UNL     1       3.112   6.727  18.148  0.00  0.00    +0.000 A 
ATOM     17  C   UNL     1       4.092   7.222  17.282  0.00  0.00    +0.000 A 
ATOM     18  C   UNL     1       4.755   6.357  16.437  0.00  0.00    +0.000 A 
ATOM     19  N   UNL     1       4.953   5.096  16.839  0.00  0.00    +0.000 N 
ATOM     20  C   UNL     1       3.937   4.437  17.436  0.00  0.00    +0.000 A 
ATOM     21  C   UNL     1       3.912   3.009  17.307  0.00  0.00    +0.000 A 
ATOM     22  C   UNL     1       2.799   2.292  17.647  0.00  0.00    +0.000 A 
ATOM     23  C   UNL     1       1.694   3.021  18.131  0.00  0.00    +0.000 A 
ATOM     24  C   UNL     1       1.744   4.433  18.352  0.00  0.00    +0.000 A 
ATOM     25  C   UNL     1       2.896   5.254  18.043  0.00  0.00    +0.000 A 
BRANCH  19  26
ATOM     26  C   UNL     1       6.377   4.632  16.949  0.00  0.00    +0.000 C 
ATOM     27  C   UNL     1       6.981   5.039  18.273  0.00  0.00    +0.000 C 
ENDBRANCH  19  26
ENDBRANCH   2  16
TORSDOF 4
ENDMDL
MODEL 3
REMARK VINA RESULT:      -8.5      0.923      2.487
REMARK  Name = 
REMARK  6 active torsions:
REMARK  status: ('A' for Active; 'I' for Inactive)
REMARK    1  A    between atoms: C_1  and  C_2
REMARK    2  A    between atoms: C_2  and  N_3
REMARK    3  A    between atoms: C_7  and  C_8
REMARK    4  A    between atoms: C_9  and  C_10
REMARK    5  A    between atoms: N_13  and  C_14
REMARK    6  A    between atoms: C_14  and  C_15
REMARK                            x       y       z     vdW  Elec       q    Type
REMARK                         _______ _______ _______ _____ _____    ______ ____
ROOT
ATOM      1  C   UNL     1       1.452   8.856  17.826  0.00  0.00    +0.000 C 
ATOM      2  C   UNL     1       0.998   9.511  18.949  0.00  0.00    +0.000 C 
ENDROOT
BRANCH   1   7
ATOM      3  N   UNL     1       3.974   4.128  18.628  0.00  0.00    +0.000 N 
ATOM      4  C   UNL     1       2.690   4.637  18.659  0.00  0.00    +0.000 C 
ATOM      5  C   UNL     1       2.310   5.881  18.328  0.00  0.00    +0.000 C 
ATOM      6  C   UNL     1       3.262   6.890  17.863  0.00  0.00    +0.000 C 
ATOM      7  C   UNL     1       2.832   8.184  17.616  0.00  0.00    +0.000 C 
ATOM      8  C   UNL     1       4.738   6.329  17.736  0.00  0.00    +0.000 A 
ATOM      9  C   UNL     1       5.835   7.076  17.267  0.00  0.00    +0.000 A 
ATOM     10  C   UNL     1       7.145   6.539  17.224  0.00  0.00    +0.000 A 
ATOM     11  C   UNL     1       7.412   5.246  17.648  0.00  0.00    +0.000 A 
ATOM     12  C   UNL     1       6.361   4.472  18.114  0.00  0.00    +0.000 A 
ATOM     13  C   UNL     1       5.027   4.966  18.163  0.00  0.00    +0.000 A 
BRANCH   3  15
ATOM     14  C   UNL     1       3.227   1.755  18.608  0.00  0.00    +0.000 C 
ATOM     15  C   UNL     1       4.259   2.758  19.116  0.00  0.00    +0.000 C 
ENDBRANCH   3  15
ENDBRANCH   1   7
BRANCH   2  16
ATOM     16  C   UNL     1      -0.225  10.444  19.209  0.00  0.00    +0.000 A 
ATOM     17  C   UNL     1      -0.739  10.879  17.983  0.00  0.00    +0.000 A 
ATOM     18  C   UNL     1      -1.690  11.877  17.958  0.00  0.00    +0.000 A 
ATOM     19  N   UNL     1      -2.542  11.976  18.984  0.00  0.00    +0.000 N 
ATOM     20  C   UNL     1      -2.063  11.855  20.241  0.00  0.00    +0.000 A 
ATOM     21  C   UNL     1      -2.772  12.536  21.285  0.00  0.00    +0.000 A 
ATOM     22  C   UNL     1      -2.220  12.687  22.527  0.00  0.00    +0.000 A 
ATOM     23  C   UNL     1      -0.937  12.138  22.725  0.00  0.00    +0.000 A 
ATOM     24  C   UNL     1      -0.264  11.377  21.719  0.00  0.00    +0.000 A 
ATOM     25  C   UNL     1      -0.797  11.151  20.392  0.00  0.00    +0.000 A 
BRANCH  19  26
ATOM     26  C   UNL     1      -4.004  11.831  18.673  0.00  0.00    +0.000 C 
ATOM     27  C   UNL     1      -4.255  10.637  17.781  0.00  0.00    +0.000 C 
ENDBRANCH  19  26
ENDBRANCH   2  16
TORSDOF 4
ENDMDL
MODEL 4
REMARK VINA RESULT:      -8.4      0.939      1.039
REMARK  Name = 
REMARK  6 active torsions:
REMARK  status: ('A' for Active; 'I' for Inactive)
REMARK    1  A    between atoms: C_1  and  C_2
REMARK    2  A    between atoms: C_2  and  N_3
REMARK    3  A    between atoms: C_7  and  C_8
REMARK    4  A    between atoms: C_9  and  C_10
REMARK    5  A    between atoms: N_13  and  C_14
REMARK    6  A    between atoms: C_14  and  C_15
REMARK                            x       y       z     vdW  Elec       q    Type
REMARK                         _______ _______ _______ _____ _____    ______ ____
ROOT
ATOM      1  C   UNL     1       1.820   9.008  18.508  0.00  0.00    +0.000 C 
ATOM      2  C   UNL     1       0.847   9.819  17.970  0.00  0.00    +0.000 C 
ENDROOT
BRANCH   1   7
ATOM      3  N   UNL     1       3.869   3.998  18.737  0.00  0.00    +0.000 N 
ATOM      4  C   UNL     1       2.855   4.731  19.322  0.00  0.00    +0.000 C 
ATOM      5  C   UNL     1       2.493   5.987  19.017  0.00  0.00    +0.000 C 
ATOM      6  C   UNL     1       3.160   6.759  17.969  0.00  0.00    +0.000 C 
ATOM      7  C   UNL     1       2.804   8.080  17.752  0.00  0.00    +0.000 C 
ATOM      8  C   UNL     1       4.280   5.931  17.216  0.00  0.00    +0.000 A 
ATOM      9  C   UNL     1       5.041   6.420  16.136  0.00  0.00    +0.000 A 
ATOM     10  C   UNL     1       6.067   5.652  15.533  0.00  0.00    +0.000 A 
ATOM     11  C   UNL     1       6.378   4.378  15.982  0.00  0.00    +0.000 A 
ATOM     12  C   UNL     1       5.652   3.853  17.041  0.00  0.00    +0.000 A 
ATOM     13  C   UNL     1       4.604   4.584  17.668  0.00  0.00    +0.000 A 
BRANCH   3  15
ATOM     14  C   UNL     1       3.385   1.562  18.576  0.00  0.00    +0.000 C 
ATOM     15  C   UNL     1       4.220   2.650  19.245  0.00  0.00    +0.000 C 
ENDBRANCH   3  15
ENDBRANCH   1   7
BRANCH   2  16
ATOM     16  C   UNL     1      -0.363  10.580  18.596  0.00  0.00    +0.000 A 
ATOM     17  C   UNL     1      -0.038  10.962  19.902  0.00  0.00    +0.000 A 
ATOM     18  C   UNL     1      -1.020  11.464  20.730  0.00  0.00    +0.000 A 
ATOM     19  N   UNL     1      -2.027  12.154  20.183  0.00  0.00    +0.000 N 
ATOM     20  C   UNL     1      -2.600  11.684  19.054  0.00  0.00    +0.000 A 
ATOM     21  C   UNL     1      -3.975  12.020  18.824  0.00  0.00    +0.000 A 
ATOM     22  C   UNL     1      -4.703  11.381  17.858  0.00  0.00    +0.000 A 
ATOM     23  C   UNL     1      -4.036  10.392  17.108  0.00  0.00    +0.000 A 
ATOM     24  C   UNL     1      -2.641  10.117  17.268  0.00  0.00    +0.000 A 
ATOM     25  C   UNL     1      -1.801  10.772  18.248  0.00  0.00    +0.000 A 
BRANCH  19  26
ATOM     26  C   UNL     1      -2.200  13.577  20.629  0.00  0.00    +0.000 C 
ATOM     27  C   UNL     1      -2.398  13.658  22.126  0.00  0.00    +0.000 C 
ENDBRANCH  19  26
ENDBRANCH   2  16
TORSDOF 4
ENDMDL
MODEL 5
REMARK VINA RESULT:      -8.4      6.515     10.546
REMARK  Name = 
REMARK  6 active torsions:
REMARK  status: ('A' for Active; 'I' for Inactive)
REMARK    1  A    between atoms: C_1  and  C_2
REMARK    2  A    between atoms: C_2  and  N_3
REMARK    3  A    between atoms: C_7  and  C_8
REMARK    4  A    between atoms: C_9  and  C_10
REMARK    5  A    between atoms: N_13  and  C_14
REMARK    6  A    between atoms: C_14  and  C_15
REMARK                            x       y       z     vdW  Elec       q    Type
REMARK                         _______ _______ _______ _____ _____    ______ ____
ROOT
ATOM      1  C   UNL     1       8.616   9.120  18.441  0.00  0.00    +0.000 C 
ATOM      2  C   UNL     1       7.907   8.370  17.530  0.00  0.00    +0.000 C 
ENDROOT
BRANCH   1   7
ATOM      3  N   UNL     1      10.112  13.689  20.938  0.00  0.00    +0.000 N 
ATOM      4  C   UNL     1       9.555  12.466  21.259  0.00  0.00    +0.000 C 
ATOM      5  C   UNL     1       9.351  11.433  20.428  0.00  0.00    +0.000 C 
ATOM      6  C   UNL     1       9.723  11.483  19.014  0.00  0.00    +0.000 C 
ATOM      7  C   UNL     1       9.413  10.422  18.179  0.00  0.00    +0.000 C 
ATOM      8  C   UNL     1      10.437  12.840  18.616  0.00  0.00    +0.000 A 
ATOM      9  C   UNL     1      10.938  13.128  17.331  0.00  0.00    +0.000 A 
ATOM     10  C   UNL     1      11.522  14.380  17.017  0.00  0.00    +0.000 A 
ATOM     11  C   UNL     1      11.625  15.389  17.963  0.00  0.00    +0.000 A 
ATOM     12  C   UNL     1      11.149  15.148  19.243  0.00  0.00    +0.000 A 
ATOM     13  C   UNL     1      10.567  13.901  19.606  0.00  0.00    +0.000 A 
BRANCH   3  15
ATOM     14  C   UNL     1       9.061  14.672  22.968  0.00  0.00    +0.000 C 
ATOM     15  C   UNL     1      10.186  14.776  21.943  0.00  0.00    +0.000 C 
ENDBRANCH   3  15
ENDBRANCH   1   7
BRANCH   2  16
ATOM     16  C   UNL     1       7.295   6.935  17.585  0.00  0.00    +0.000 A 
ATOM     17  C   UNL     1       7.427   6.431  18.883  0.00  0.00    +0.000 A 
ATOM     18  C   UNL     1       7.151   5.102  19.129  0.00  0.00    +0.000 A 
ATOM     19  N   UNL     1       6.218   4.494  18.388  0.00  0.00    +0.000 N 
ATOM     20  C   UNL     1       6.206   4.708  17.055  0.00  0.00    +0.000 A 
ATOM     21  C   UNL     1       5.676   3.665  16.226  0.00  0.00    +0.000 A 
ATOM     22  C   UNL     1       5.864   3.680  14.871  0.00  0.00    +0.000 A 
ATOM     23  C   UNL     1       6.590   4.764  14.340  0.00  0.00    +0.000 A 
ATOM     24  C   UNL     1       7.039   5.856  15.148  0.00  0.00    +0.000 A 
ATOM     25  C   UNL     1       6.853   5.923  16.582  0.00  0.00    +0.000 A 
BRANCH  19  26
ATOM     26  C   UNL     1       5.030   3.933  19.114  0.00  0.00    +0.000 C 
ATOM     27  C   UNL     1       4.008   5.009  19.400  0.00  0.00    +0.000 C 
ENDBRANCH  19  26
ENDBRANCH   2  16
TORSDOF 4
ENDMDL
MODEL 6
REMARK VINA RESULT:      -8.3      2.184      9.415
REMARK  Name = 
REMARK  6 active torsions:
REMARK  status: ('A' for Active; 'I' for Inactive)
REMARK    1  A    between atoms: C_1  and  C_2
REMARK    2  A    between atoms: C_2  and  N_3
REMARK    3  A    between atoms: C_7  and  C_8
REMARK    4  A    between atoms: C_9  and  C_10
REMARK    5  A    between atoms: N_13  and  C_14
REMARK    6  A    between atoms: C_14  and  C_15
REMARK                            x       y       z     vdW  Elec       q    Type
REMARK                         _______ _______ _______ _____ _____    ______ ____
ROOT
ATOM      1  C   UNL     1       1.423   9.058  18.172  0.00  0.00    +0.000 C 
ATOM      2  C   UNL     1       2.663   8.477  18.035  0.00  0.00    +0.000 C 
ENDROOT
BRANCH   1   7
ATOM      3  N   UNL     1      -0.692  12.325  21.942  0.00  0.00    +0.000 N 
ATOM      4  C   UNL     1      -0.252  11.020  21.828  0.00  0.00    +0.000 C 
ATOM      5  C   UNL     1       0.327  10.458  20.756  0.00  0.00    +0.000 C 
ATOM      6  C   UNL     1       0.579  11.204  19.524  0.00  0.00    +0.000 C 
ATOM      7  C   UNL     1       1.101  10.554  18.417  0.00  0.00    +0.000 C 
ATOM      8  C   UNL     1       0.161  12.728  19.633  0.00  0.00    +0.000 A 
ATOM      9  C   UNL     1       0.339  13.677  18.608  0.00  0.00    +0.000 A 
ATOM     10  C   UNL     1      -0.101  15.017  18.741  0.00  0.00    +0.000 A 
ATOM     11  C   UNL     1      -0.738  15.460  19.891  0.00  0.00    +0.000 A 
ATOM     12  C   UNL     1      -0.931  14.560  20.928  0.00  0.00    +0.000 A 
ATOM     13  C   UNL     1      -0.493  13.209  20.843  0.00  0.00    +0.000 A 
BRANCH   3  15
ATOM     14  C   UNL     1      -2.787  12.151  23.272  0.00  0.00    +0.000 C 
ATOM     15  C   UNL     1      -1.403  12.783  23.159  0.00  0.00    +0.000 C 
ENDBRANCH   3  15
ENDBRANCH   1   7
BRANCH   2  16
ATOM     16  C   UNL     1       3.145   6.993  18.054  0.00  0.00    +0.000 A 
ATOM     17  C   UNL     1       2.836   6.426  19.295  0.00  0.00    +0.000 A 
ATOM     18  C   UNL     1       3.349   5.189  19.626  0.00  0.00    +0.000 A 
ATOM     19  N   UNL     1       3.564   4.303  18.648  0.00  0.00    +0.000 N 
ATOM     20  C   UNL     1       4.139   4.726  17.502  0.00  0.00    +0.000 A 
ATOM     21  C   UNL     1       4.902   3.769  16.755  0.00  0.00    +0.000 A 
ATOM     22  C   UNL     1       5.726   4.165  15.738  0.00  0.00    +0.000 A 
ATOM     23  C   UNL     1       5.778   5.546  15.462  0.00  0.00    +0.000 A 
ATOM     24  C   UNL     1       4.949   6.496  16.139  0.00  0.00    +0.000 A 
ATOM     25  C   UNL     1       4.034   6.147  17.205  0.00  0.00    +0.000 A 
BRANCH  19  26
ATOM     26  C   UNL     1       2.818   3.002  18.731  0.00  0.00    +0.000 C 
ATOM     27  C   UNL     1       1.391   3.162  18.261  0.00  0.00    +0.000 C 
ENDBRANCH  19  26
ENDBRANCH   2  16
TORSDOF 4
ENDMDL
MODEL 7
REMARK VINA RESULT:      -8.3      1.997      9.685
REMARK  Name = 
REMARK  6 active torsions:
REMARK  status: ('A' for Active; 'I' for Inactive)
REMARK    1  A    between atoms: C_1  and  C_2
REMARK    2  A    between atoms: C_2  and  N_3
REMARK    3  A    between atoms: C_7  and  C_8
REMARK    4  A    between atoms: C_9  and  C_10
REMARK    5  A    between atoms: N_13  and  C_14
REMARK    6  A    between atoms: C_14  and  C_15
REMARK                            x       y       z     vdW  Elec       q    Type
REMARK                         _______ _______ _______ _____ _____    ______ ____
ROOT
ATOM      1  C   UNL     1       2.036   9.063  17.948  0.00  0.00    +0.000 C 
ATOM      2  C   UNL     1       2.392   7.878  18.551  0.00  0.00    +0.000 C 
ENDROOT
BRANCH   1   7
ATOM      3  N   UNL     1       1.659  14.371  18.966  0.00  0.00    +0.000 N 
ATOM      4  C   UNL     1       2.523  13.494  18.339  0.00  0.00    +0.000 C 
ATOM      5  C   UNL     1       2.335  12.179  18.150  0.00  0.00    +0.000 C 
ATOM      6  C   UNL     1       1.127  11.490  18.602  0.00  0.00    +0.000 C 
ATOM      7  C   UNL     1       1.020  10.116  18.458  0.00  0.00    +0.000 C 
ATOM      8  C   UNL     1       0.071  12.471  19.259  0.00  0.00    +0.000 A 
ATOM      9  C   UNL     1      -1.194  12.075  19.735  0.00  0.00    +0.000 A 
ATOM     10  C   UNL     1      -2.079  12.986  20.362  0.00  0.00    +0.000 A 
ATOM     11  C   UNL     1      -1.738  14.318  20.543  0.00  0.00    +0.000 A 
ATOM     12  C   UNL     1      -0.503  14.754  20.087  0.00  0.00    +0.000 A 
ATOM     13  C   UNL     1       0.411  13.876  19.439  0.00  0.00    +0.000 A 
BRANCH   3  15
ATOM     14  C   UNL     1       2.738  16.378  17.966  0.00  0.00    +0.000 C 
ATOM     15  C   UNL     1       2.044  15.785  19.189  0.00  0.00    +0.000 C 
ENDBRANCH   3  15
ENDBRANCH   1   7
BRANCH   2  16
ATOM     16  C   UNL     1       3.174   6.625  18.045  0.00  0.00    +0.000 A 
ATOM     17  C   UNL     1       4.221   7.042  17.216  0.00  0.00    +0.000 A 
ATOM     18  C   UNL     1       4.923   6.108  16.483  0.00  0.00    +0.000 A 
ATOM     19  N   UNL     1       5.066   4.877  16.984  0.00  0.00    +0.000 N 
ATOM     20  C   UNL     1       3.998   4.278  17.554  0.00  0.00    +0.000 A 
ATOM     21  C   UNL     1       3.952   2.845  17.523  0.00  0.00    +0.000 A 
ATOM     22  C   UNL     1       2.803   2.171  17.834  0.00  0.00    +0.000 A 
ATOM     23  C   UNL     1       1.684   2.951  18.187  0.00  0.00    +0.000 A 
ATOM     24  C   UNL     1       1.748   4.375  18.312  0.00  0.00    +0.000 A 
ATOM     25  C   UNL     1       2.935   5.152  18.027  0.00  0.00    +0.000 A 
BRANCH  19  26
ATOM     26  C   UNL     1       6.469   4.399  17.226  0.00  0.00    +0.000 C 
ATOM     27  C   UNL     1       7.137   5.201  18.318  0.00  0.00    +0.000 C 
ENDBRANCH  19  26
ENDBRANCH   2  16
TORSDOF 4
ENDMDL
MODEL 8
REMARK VINA RESULT:      -8.2      1.327      9.573
REMARK  Name = 
REMARK  6 active torsions:
REMARK  status: ('A' for Active; 'I' for Inactive)
REMARK    1  A    between atoms: C_1  and  C_2
REMARK    2  A    between atoms: C_2  and  N_3
REMARK    3  A    between atoms: C_7  and  C_8
REMARK    4  A    between atoms: C_9  and  C_10
REMARK    5  A    between atoms: N_13  and  C_14
REMARK    6  A    between atoms: C_14  and  C_15
REMARK                            x       y       z     vdW  Elec       q    Type
REMARK                         _______ _______ _______ _____ _____    ______ ____
ROOT
ATOM      1  C   UNL     1       1.357   9.122  17.864  0.00  0.00    +0.000 C 
ATOM      2  C   UNL     1       1.694   7.905  18.412  0.00  0.00    +0.000 C 
ENDROOT
BRANCH   1   7
ATOM      3  N   UNL     1      -0.891  12.364  21.578  0.00  0.00    +0.000 N 
ATOM      4  C   UNL     1       0.337  11.791  21.308  0.00  0.00    +0.000 C 
ATOM      5  C   UNL     1       0.663  11.060  20.231  0.00  0.00    +0.000 C 
ATOM      6  C   UNL     1      -0.292  10.778  19.160  0.00  0.00    +0.000 C 
ATOM      7  C   UNL     1       0.069   9.947  18.112  0.00  0.00    +0.000 C 
ATOM      8  C   UNL     1      -1.694  11.480  19.389  0.00  0.00    +0.000 A 
ATOM      9  C   UNL     1      -2.774  11.411  18.488  0.00  0.00    +0.000 A 
ATOM     10  C   UNL     1      -4.025  12.016  18.768  0.00  0.00    +0.000 A 
ATOM     11  C   UNL     1      -4.248  12.704  19.951  0.00  0.00    +0.000 A 
ATOM     12  C   UNL     1      -3.211  12.801  20.866  0.00  0.00    +0.000 A 
ATOM     13  C   UNL     1      -1.934  12.220  20.620  0.00  0.00    +0.000 A 
BRANCH   3  15
ATOM     14  C   UNL     1      -0.562  14.482  22.842  0.00  0.00    +0.000 C 
ATOM     15  C   UNL     1      -1.134  13.067  22.860  0.00  0.00    +0.000 C 
ENDBRANCH   3  15
ENDBRANCH   1   7
BRANCH   2  16
ATOM     16  C   UNL     1       2.796   6.856  18.064  0.00  0.00    +0.000 A 
ATOM     17  C   UNL     1       3.882   7.510  17.473  0.00  0.00    +0.000 A 
ATOM     18  C   UNL     1       4.888   6.769  16.889  0.00  0.00    +0.000 A 
ATOM     19  N   UNL     1       5.173   5.565  17.396  0.00  0.00    +0.000 N 
ATOM     20  C   UNL     1       4.156   4.742  17.729  0.00  0.00    +0.000 A 
ATOM     21  C   UNL     1       4.405   3.331  17.675  0.00  0.00    +0.000 A 
ATOM     22  C   UNL     1       3.376   2.432  17.736  0.00  0.00    +0.000 A 
ATOM     23  C   UNL     1       2.076   2.960  17.860  0.00  0.00    +0.000 A 
ATOM     24  C   UNL     1       1.827   4.360  18.010  0.00  0.00    +0.000 A 
ATOM     25  C   UNL     1       2.866   5.368  17.983  0.00  0.00    +0.000 A 
BRANCH  19  26
ATOM     26  C   UNL     1       6.566   5.357  17.916  0.00  0.00    +0.000 C 
ATOM     27  C   UNL     1       7.428   6.574  17.667  0.00  0.00    +0.000 C 
ENDBRANCH  19  26
ENDBRANCH   2  16
TORSDOF 4
ENDMDL
MODEL 9
REMARK VINA RESULT:      -8.2      2.198      9.640
REMARK  Name = 
REMARK  6 active torsions:
REMARK  status: ('A' for Active; 'I' for Inactive)
REMARK    1  A    between atoms: C_1  and  C_2
REMARK    2  A    between atoms: C_2  and  N_3
REMARK    3  A    between atoms: C_7  and  C_8
REMARK    4  A    between atoms: C_9  and  C_10
REMARK    5  A    between atoms: N_13  and  C_14
REMARK    6  A    between atoms: C_14  and  C_15
REMARK                            x       y       z     vdW  Elec       q    Type
REMARK                         _______ _______ _______ _____ _____    ______ ____
ROOT
ATOM      1  C   UNL     1       1.812   8.846  18.208  0.00  0.00    +0.000 C 
ATOM      2  C   UNL     1       2.208   7.774  18.975  0.00  0.00    +0.000 C 
ENDROOT
BRANCH   1   7
ATOM      3  N   UNL     1       1.960  14.242  18.676  0.00  0.00    +0.000 N 
ATOM      4  C   UNL     1       2.715  13.228  18.118  0.00  0.00    +0.000 C 
ATOM      5  C   UNL     1       2.401  11.924  18.073  0.00  0.00    +0.000 C 
ATOM      6  C   UNL     1       1.154  11.402  18.631  0.00  0.00    +0.000 C 
ATOM      7  C   UNL     1       0.917  10.036  18.635  0.00  0.00    +0.000 C 
ATOM      8  C   UNL     1       0.219  12.540  19.214  0.00  0.00    +0.000 A 
ATOM      9  C   UNL     1      -1.057  12.315  19.765  0.00  0.00    +0.000 A 
ATOM     10  C   UNL     1      -1.830  13.365  20.320  0.00  0.00    +0.000 A 
ATOM     11  C   UNL     1      -1.363  14.671  20.351  0.00  0.00    +0.000 A 
ATOM     12  C   UNL     1      -0.112  14.939  19.814  0.00  0.00    +0.000 A 
ATOM     13  C   UNL     1       0.692  13.917  19.235  0.00  0.00    +0.000 A 
BRANCH   3  15
ATOM     14  C   UNL     1       3.409  15.933  17.565  0.00  0.00    +0.000 C 
ATOM     15  C   UNL     1       2.481  15.628  18.737  0.00  0.00    +0.000 C 
ENDBRANCH   3  15
ENDBRANCH   1   7
BRANCH   2  16
ATOM     16  C   UNL     1       2.865   6.403  18.622  0.00  0.00    +0.000 A 
ATOM     17  C   UNL     1       2.692   5.522  19.694  0.00  0.00    +0.000 A 
ATOM     18  C   UNL     1       3.366   4.319  19.703  0.00  0.00    +0.000 A 
ATOM     19  N   UNL     1       3.634   3.727  18.534  0.00  0.00    +0.000 N 
ATOM     20  C   UNL     1       4.093   4.482  17.513  0.00  0.00    +0.000 A 
ATOM     21  C   UNL     1       4.925   3.837  16.539  0.00  0.00    +0.000 A 
ATOM     22  C   UNL     1       5.641   4.568  15.631  0.00  0.00    +0.000 A 
ATOM     23  C   UNL     1       5.513   5.970  15.699  0.00  0.00    +0.000 A 
ATOM     24  C   UNL     1       4.612   6.615  16.604  0.00  0.00    +0.000 A 
ATOM     25  C   UNL     1       3.803   5.907  17.573  0.00  0.00    +0.000 A 
BRANCH  19  26
ATOM     26  C   UNL     1       3.055   2.359  18.314  0.00  0.00    +0.000 C 
ATOM     27  C   UNL     1       1.562   2.356  18.550  0.00  0.00    +0.000 C 
ENDBRANCH  19  26
ENDBRANCH   2  16
TORSDOF 4
ENDMDL
