MODEL 1
REMARK VINA RESULT:      -7.3      0.000      0.000
REMARK  Name = 
REMARK  5 active torsions:
REMARK  status: ('A' for Active; 'I' for Inactive)
REMARK    1  A    between atoms: C_1  and  C_2
REMARK    2  A    between atoms: C_4  and  C_5
REMARK    3  A    between atoms: C_5  and  N_6
REMARK    4  A    between atoms: N_6  and  C_7
REMARK    5  A    between atoms: C_12  and  C_13
REMARK                            x       y       z     vdW  Elec       q    Type
REMARK                         _______ _______ _______ _____ _____    ______ ____
ROOT
ATOM      1  C   UNL     1       5.418   5.488  15.777  0.00  0.00    +0.000 A 
ATOM      2  C   UNL     1       5.279   6.710  16.441  0.00  0.00    +0.000 A 
ATOM      3  C   UNL     1       4.503   6.834  17.601  0.00  0.00    +0.000 A 
ATOM      4  C   UNL     1       3.815   5.711  18.095  0.00  0.00    +0.000 A 
ATOM      5  N   UNL     1       2.977   5.686  19.197  0.00  0.00    +0.000 NA
ATOM      6  C   UNL     1       2.501   4.472  19.356  0.00  0.00    +0.000 A 
ATOM      7  S   UNL     1       3.039   3.293  18.244  0.00  0.00    +0.000 S 
ATOM      8  C   UNL     1       3.952   4.497  17.421  0.00  0.00    +0.000 A 
ATOM      9  C   UNL     1       4.731   4.368  16.260  0.00  0.00    +0.000 A 
ENDROOT
BRANCH   6  10
ATOM     10  C   UNL     1       1.500   4.127  20.458  0.00  0.00    +0.000 C 
ATOM     11  C   UNL     1       1.241   2.671  20.780  0.00  0.00    +0.000 C 
ATOM     12  C   UNL     1       2.035   3.501  21.730  0.00  0.00    +0.000 C 
ENDBRANCH   6  10
BRANCH   1  13
ATOM     13  N   UNL     1       6.183   5.474  14.606  0.00  0.00    +0.000 N 
ATOM     14  H   UNL     1       5.680   5.950  13.856  0.00  0.00    +0.000 HD
BRANCH  13  15
ATOM     15  C   UNL     1       6.717   4.194  14.124  0.00  0.00    +0.000 C 
BRANCH  15  19
ATOM     16  C   UNL     1       3.344   3.018  10.482  0.00  0.00    +0.000 C 
ATOM     17  C   UNL     1       4.464   3.179  11.423  0.00  0.00    +0.000 A 
ATOM     18  C   UNL     1       4.677   3.974  12.518  0.00  0.00    +0.000 A 
ATOM     19  C   UNL     1       5.976   3.621  12.958  0.00  0.00    +0.000 A 
ATOM     20  N   UNL     1       6.509   2.667  12.185  0.00  0.00    +0.000 NA
ATOM     21  O   UNL     1       5.556   2.393  11.218  0.00  0.00    +0.000 OA
ENDBRANCH  15  19
ENDBRANCH  13  15
ENDBRANCH   1  13
TORSDOF 4
ENDMDL
MODEL 2
REMARK VINA RESULT:      -7.1      1.241      1.370
REMARK  Name = 
REMARK  5 active torsions:
REMARK  status: ('A' for Active; 'I' for Inactive)
REMARK    1  A    between atoms: C_1  and  C_2
REMARK    2  A    between atoms: C_4  and  C_5
REMARK    3  A    between atoms: C_5  and  N_6
REMARK    4  A    between atoms: N_6  and  C_7
REMARK    5  A    between atoms: C_12  and  C_13
REMARK                            x       y       z     vdW  Elec       q    Type
REMARK                         _______ _______ _______ _____ _____    ______ ____
ROOT
ATOM      1  C   UNL     1       5.985   4.780  15.798  0.00  0.00    +0.000 A 
ATOM      2  C   UNL     1       6.765   5.009  16.935  0.00  0.00    +0.000 A 
ATOM      3  C   UNL     1       6.334   4.632  18.212  0.00  0.00    +0.000 A 
ATOM      4  C   UNL     1       5.068   4.039  18.367  0.00  0.00    +0.000 A 
ATOM      5  N   UNL     1       4.486   3.656  19.563  0.00  0.00    +0.000 NA
ATOM      6  C   UNL     1       3.297   3.149  19.328  0.00  0.00    +0.000 A 
ATOM      7  S   UNL     1       2.817   3.064  17.691  0.00  0.00    +0.000 S 
ATOM      8  C   UNL     1       4.291   3.822  17.228  0.00  0.00    +0.000 A 
ATOM      9  C   UNL     1       4.722   4.195  15.945  0.00  0.00    +0.000 A 
ENDROOT
BRANCH   6  10
ATOM     10  C   UNL     1       2.374   2.680  20.452  0.00  0.00    +0.000 C 
ATOM     11  C   UNL     1       2.184   3.570  21.660  0.00  0.00    +0.000 C 
ATOM     12  C   UNL     1       1.080   3.438  20.668  0.00  0.00    +0.000 C 
ENDBRANCH   6  10
BRANCH   1  13
ATOM     13  N   UNL     1       6.487   5.227  14.571  0.00  0.00    +0.000 N 
ATOM     14  H   UNL     1       5.767   5.749  14.069  0.00  0.00    +0.000 HD
BRANCH  13  15
ATOM     15  C   UNL     1       7.127   4.258  13.672  0.00  0.00    +0.000 C 
BRANCH  15  19
ATOM     16  C   UNL     1       3.247   2.997  10.610  0.00  0.00    +0.000 C 
ATOM     17  C   UNL     1       4.474   3.145  11.408  0.00  0.00    +0.000 A 
ATOM     18  C   UNL     1       4.913   4.078  12.311  0.00  0.00    +0.000 A 
ATOM     19  C   UNL     1       6.191   3.610  12.702  0.00  0.00    +0.000 A 
ATOM     20  N   UNL     1       6.500   2.465  12.083  0.00  0.00    +0.000 NA
ATOM     21  O   UNL     1       5.419   2.176  11.268  0.00  0.00    +0.000 OA
ENDBRANCH  15  19
ENDBRANCH  13  15
ENDBRANCH   1  13
TORSDOF 4
ENDMDL
MODEL 3
REMARK VINA RESULT:      -7.1      5.352      7.272
REMARK  Name = 
REMARK  5 active torsions:
REMARK  status: ('A' for Active; 'I' for Inactive)
REMARK    1  A    between atoms: C_1  and  C_2
REMARK    2  A    between atoms: C_4  and  C_5
REMARK    3  A    between atoms: C_5  and  N_6
REMARK    4  A    between atoms: N_6  and  C_7
REMARK    5  A    between atoms: C_12  and  C_13
REMARK                            x       y       z     vdW  Elec       q    Type
REMARK                         _______ _______ _______ _____ _____    ______ ____
ROOT
ATOM      1  C   UNL     1       7.421   7.565  17.793  0.00  0.00    +0.000 A 
ATOM      2  C   UNL     1       8.092   6.741  18.702  0.00  0.00    +0.000 A 
ATOM      3  C   UNL     1       7.539   5.536  19.151  0.00  0.00    +0.000 A 
ATOM      4  C   UNL     1       6.259   5.156  18.709  0.00  0.00    +0.000 A 
ATOM      5  N   UNL     1       5.563   4.024  19.096  0.00  0.00    +0.000 NA
ATOM      6  C   UNL     1       4.397   3.999  18.491  0.00  0.00    +0.000 A 
ATOM      7  S   UNL     1       4.074   5.283  17.410  0.00  0.00    +0.000 S 
ATOM      8  C   UNL     1       5.591   5.989  17.809  0.00  0.00    +0.000 A 
ATOM      9  C   UNL     1       6.145   7.197  17.353  0.00  0.00    +0.000 A 
ENDROOT
BRANCH   6  10
ATOM     10  C   UNL     1       3.367   2.900  18.749  0.00  0.00    +0.000 C 
ATOM     11  C   UNL     1       1.974   3.055  18.178  0.00  0.00    +0.000 C 
ATOM     12  C   UNL     1       2.909   2.067  17.569  0.00  0.00    +0.000 C 
ENDBRANCH   6  10
BRANCH   1  13
ATOM     13  N   UNL     1       8.041   8.767  17.435  0.00  0.00    +0.000 N 
ATOM     14  H   UNL     1       8.662   8.615  16.639  0.00  0.00    +0.000 HD
BRANCH  13  15
ATOM     15  C   UNL     1       8.730   9.545  18.472  0.00  0.00    +0.000 C 
BRANCH  15  19
ATOM     16  C   UNL     1      11.447  13.615  17.032  0.00  0.00    +0.000 C 
ATOM     17  C   UNL     1      10.460  12.590  17.407  0.00  0.00    +0.000 A 
ATOM     18  C   UNL     1      10.555  11.294  17.841  0.00  0.00    +0.000 A 
ATOM     19  C   UNL     1       9.210  10.886  18.016  0.00  0.00    +0.000 A 
ATOM     20  N   UNL     1       8.359  11.874  17.718  0.00  0.00    +0.000 NA
ATOM     21  O   UNL     1       9.149  12.945  17.332  0.00  0.00    +0.000 OA
ENDBRANCH  15  19
ENDBRANCH  13  15
ENDBRANCH   1  13
TORSDOF 4
ENDMDL
MODEL 4
REMARK VINA RESULT:      -7.0      4.353      5.642
REMARK  Name = 
REMARK  5 active torsions:
REMARK  status: ('A' for Active; 'I' for Inactive)
REMARK    1  A    between atoms: C_1  and  C_2
REMARK    2  A    between atoms: C_4  and  C_5
REMARK    3  A    between atoms: C_5  and  N_6
REMARK    4  A    between atoms: N_6  and  C_7
REMARK    5  A    between atoms: C_12  and  C_13
REMARK                            x       y       z     vdW  Elec       q    Type
REMARK                         _______ _______ _______ _____ _____    ______ ____
ROOT
ATOM      1  C   UNL     1       3.158   6.226  19.061  0.00  0.00    +0.000 A 
ATOM      2  C   UNL     1       3.154   7.058  17.938  0.00  0.00    +0.000 A 
ATOM      3  C   UNL     1       2.467   8.277  17.926  0.00  0.00    +0.000 A 
ATOM      4  C   UNL     1       1.728   8.665  19.058  0.00  0.00    +0.000 A 
ATOM      5  N   UNL     1       0.963   9.812  19.182  0.00  0.00    +0.000 NA
ATOM      6  C   UNL     1       0.407   9.840  20.372  0.00  0.00    +0.000 A 
ATOM      7  S   UNL     1       0.781   8.542  21.417  0.00  0.00    +0.000 S 
ATOM      8  C   UNL     1       1.728   7.825  20.173  0.00  0.00    +0.000 A 
ATOM      9  C   UNL     1       2.420   6.602  20.190  0.00  0.00    +0.000 A 
ENDROOT
BRANCH   6  10
ATOM     10  C   UNL     1      -0.545  10.957  20.800  0.00  0.00    +0.000 C 
ATOM     11  C   UNL     1      -0.684  11.272  22.274  0.00  0.00    +0.000 C 
ATOM     12  C   UNL     1       0.060  12.215  21.391  0.00  0.00    +0.000 C 
ENDBRANCH   6  10
BRANCH   1  13
ATOM     13  N   UNL     1       3.843   5.010  18.961  0.00  0.00    +0.000 N 
ATOM     14  H   UNL     1       3.386   4.304  19.539  0.00  0.00    +0.000 HD
BRANCH  13  15
ATOM     15  C   UNL     1       5.293   4.994  19.195  0.00  0.00    +0.000 C 
BRANCH  15  19
ATOM     16  C   UNL     1       7.044   4.545  14.426  0.00  0.00    +0.000 C 
ATOM     17  C   UNL     1       6.781   4.627  15.871  0.00  0.00    +0.000 A 
ATOM     18  C   UNL     1       5.656   4.855  16.620  0.00  0.00    +0.000 A 
ATOM     19  C   UNL     1       6.112   4.802  17.959  0.00  0.00    +0.000 A 
ATOM     20  N   UNL     1       7.425   4.549  18.017  0.00  0.00    +0.000 NA
ATOM     21  O   UNL     1       7.843   4.442  16.701  0.00  0.00    +0.000 OA
ENDBRANCH  15  19
ENDBRANCH  13  15
ENDBRANCH   1  13
TORSDOF 4
ENDMDL
MODEL 5
REMARK VINA RESULT:      -7.0      5.155      9.027
REMARK  Name = 
REMARK  5 active torsions:
REMARK  status: ('A' for Active; 'I' for Inactive)
REMARK    1  A    between atoms: C_1  and  C_2
REMARK    2  A    between atoms: C_4  and  C_5
REMARK    3  A    between atoms: C_5  and  N_6
REMARK    4  A    between atoms: N_6  and  C_7
REMARK    5  A    between atoms: C_12  and  C_13
REMARK                            x       y       z     vdW  Elec       q    Type
REMARK                         _______ _______ _______ _____ _____    ______ ____
ROOT
ATOM      1  C   UNL     1       2.359   6.255  20.169  0.00  0.00    +0.000 A 
ATOM      2  C   UNL     1       2.335   4.889  20.462  0.00  0.00    +0.000 A 
ATOM      3  C   UNL     1       3.039   3.957  19.690  0.00  0.00    +0.000 A 
ATOM      4  C   UNL     1       3.763   4.397  18.566  0.00  0.00    +0.000 A 
ATOM      5  N   UNL     1       4.468   3.597  17.684  0.00  0.00    +0.000 NA
ATOM      6  C   UNL     1       5.009   4.347  16.751  0.00  0.00    +0.000 A 
ATOM      7  S   UNL     1       4.749   6.031  16.883  0.00  0.00    +0.000 S 
ATOM      8  C   UNL     1       3.774   5.762  18.275  0.00  0.00    +0.000 A 
ATOM      9  C   UNL     1       3.072   6.700  19.050  0.00  0.00    +0.000 A 
ENDROOT
BRANCH   6  10
ATOM     10  C   UNL     1       5.810   3.756  15.592  0.00  0.00    +0.000 C 
ATOM     11  C   UNL     1       5.655   4.361  14.213  0.00  0.00    +0.000 C 
ATOM     12  C   UNL     1       6.908   4.605  14.983  0.00  0.00    +0.000 C 
ENDBRANCH   6  10
BRANCH   1  13
ATOM     13  N   UNL     1       1.592   7.101  20.978  0.00  0.00    +0.000 N 
ATOM     14  H   UNL     1       0.687   6.670  21.173  0.00  0.00    +0.000 HD
BRANCH  13  15
ATOM     15  C   UNL     1       1.407   8.498  20.566  0.00  0.00    +0.000 C 
BRANCH  15  19
ATOM     16  C   UNL     1      -1.665  11.761  23.003  0.00  0.00    +0.000 C 
ATOM     17  C   UNL     1      -0.684  10.770  22.532  0.00  0.00    +0.000 A 
ATOM     18  C   UNL     1      -0.350  10.276  21.298  0.00  0.00    +0.000 A 
ATOM     19  C   UNL     1       0.680   9.341  21.564  0.00  0.00    +0.000 A 
ATOM     20  N   UNL     1       0.958   9.282  22.871  0.00  0.00    +0.000 NA
ATOM     21  O   UNL     1       0.096  10.180  23.478  0.00  0.00    +0.000 OA
ENDBRANCH  15  19
ENDBRANCH  13  15
ENDBRANCH   1  13
TORSDOF 4
ENDMDL
MODEL 6
REMARK VINA RESULT:      -6.9      3.240      4.052
REMARK  Name = 
REMARK  5 active torsions:
REMARK  status: ('A' for Active; 'I' for Inactive)
REMARK    1  A    between atoms: C_1  and  C_2
REMARK    2  A    between atoms: C_4  and  C_5
REMARK    3  A    between atoms: C_5  and  N_6
REMARK    4  A    between atoms: N_6  and  C_7
REMARK    5  A    between atoms: C_12  and  C_13
REMARK                            x       y       z     vdW  Elec       q    Type
REMARK                         _______ _______ _______ _____ _____    ______ ____
ROOT
ATOM      1  C   UNL     1       4.197   5.594  18.229  0.00  0.00    +0.000 A 
ATOM      2  C   UNL     1       4.101   6.656  17.326  0.00  0.00    +0.000 A 
ATOM      3  C   UNL     1       3.274   7.759  17.571  0.00  0.00    +0.000 A 
ATOM      4  C   UNL     1       2.490   7.788  18.739  0.00  0.00    +0.000 A 
ATOM      5  N   UNL     1       1.594   8.781  19.097  0.00  0.00    +0.000 NA
ATOM      6  C   UNL     1       1.034   8.471  20.244  0.00  0.00    +0.000 A 
ATOM      7  S   UNL     1       1.554   7.018  20.976  0.00  0.00    +0.000 S 
ATOM      8  C   UNL     1       2.584   6.719  19.631  0.00  0.00    +0.000 A 
ATOM      9  C   UNL     1       3.415   5.613  19.390  0.00  0.00    +0.000 A 
ENDROOT
BRANCH   6  10
ATOM     10  C   UNL     1      -0.045   9.342  20.886  0.00  0.00    +0.000 C 
ATOM     11  C   UNL     1      -0.377   9.135  22.348  0.00  0.00    +0.000 C 
ATOM     12  C   UNL     1       0.387  10.346  21.936  0.00  0.00    +0.000 C 
ENDBRANCH   6  10
BRANCH   1  13
ATOM     13  N   UNL     1       5.022   4.520  17.876  0.00  0.00    +0.000 N 
ATOM     14  H   UNL     1       5.026   3.823  18.622  0.00  0.00    +0.000 HD
BRANCH  13  15
ATOM     15  C   UNL     1       6.396   4.798  17.437  0.00  0.00    +0.000 C 
BRANCH  15  19
ATOM     16  C   UNL     1       6.312   3.593  12.481  0.00  0.00    +0.000 C 
ATOM     17  C   UNL     1       6.499   4.125  13.841  0.00  0.00    +0.000 A 
ATOM     18  C   UNL     1       6.009   3.777  15.072  0.00  0.00    +0.000 A 
ATOM     19  C   UNL     1       6.597   4.712  15.958  0.00  0.00    +0.000 A 
ATOM     20  N   UNL     1       7.397   5.564  15.306  0.00  0.00    +0.000 NA
ATOM     21  O   UNL     1       7.331   5.193  13.973  0.00  0.00    +0.000 OA
ENDBRANCH  15  19
ENDBRANCH  13  15
ENDBRANCH   1  13
TORSDOF 4
ENDMDL
MODEL 7
REMARK VINA RESULT:      -6.9      2.713      3.673
REMARK  Name = 
REMARK  5 active torsions:
REMARK  status: ('A' for Active; 'I' for Inactive)
REMARK    1  A    between atoms: C_1  and  C_2
REMARK    2  A    between atoms: C_4  and  C_5
REMARK    3  A    between atoms: C_5  and  N_6
REMARK    4  A    between atoms: N_6  and  C_7
REMARK    5  A    between atoms: C_12  and  C_13
REMARK                            x       y       z     vdW  Elec       q    Type
REMARK                         _______ _______ _______ _____ _____    ______ ____
ROOT
ATOM      1  C   UNL     1       4.880   4.280  18.461  0.00  0.00    +0.000 A 
ATOM      2  C   UNL     1       4.280   3.395  19.362  0.00  0.00    +0.000 A 
ATOM      3  C   UNL     1       3.199   3.781  20.165  0.00  0.00    +0.000 A 
ATOM      4  C   UNL     1       2.724   5.103  20.094  0.00  0.00    +0.000 A 
ATOM      5  N   UNL     1       1.700   5.645  20.852  0.00  0.00    +0.000 NA
ATOM      6  C   UNL     1       1.535   6.907  20.525  0.00  0.00    +0.000 A 
ATOM      7  S   UNL     1       2.548   7.511  19.289  0.00  0.00    +0.000 S 
ATOM      8  C   UNL     1       3.334   5.983  19.199  0.00  0.00    +0.000 A 
ATOM      9  C   UNL     1       4.416   5.598  18.390  0.00  0.00    +0.000 A 
ENDROOT
BRANCH   6  10
ATOM     10  C   UNL     1       0.513   7.803  21.224  0.00  0.00    +0.000 C 
ATOM     11  C   UNL     1       1.009   8.973  22.046  0.00  0.00    +0.000 C 
ATOM     12  C   UNL     1       0.363   9.226  20.727  0.00  0.00    +0.000 C 
ENDBRANCH   6  10
BRANCH   1  13
ATOM     13  N   UNL     1       5.977   3.810  17.732  0.00  0.00    +0.000 N 
ATOM     14  H   UNL     1       6.575   3.238  18.330  0.00  0.00    +0.000 HD
BRANCH  13  15
ATOM     15  C   UNL     1       6.792   4.774  16.979  0.00  0.00    +0.000 C 
BRANCH  15  19
ATOM     16  C   UNL     1       5.811   3.327  12.187  0.00  0.00    +0.000 C 
ATOM     17  C   UNL     1       6.268   3.899  13.464  0.00  0.00    +0.000 A 
ATOM     18  C   UNL     1       5.925   3.692  14.774  0.00  0.00    +0.000 A 
ATOM     19  C   UNL     1       6.757   4.580  15.497  0.00  0.00    +0.000 A 
ATOM     20  N   UNL     1       7.559   5.271  14.678  0.00  0.00    +0.000 NA
ATOM     21  O   UNL     1       7.246   4.842  13.399  0.00  0.00    +0.000 OA
ENDBRANCH  15  19
ENDBRANCH  13  15
ENDBRANCH   1  13
TORSDOF 4
ENDMDL
MODEL 8
REMARK VINA RESULT:      -6.9      3.670      4.995
REMARK  Name = 
REMARK  5 active torsions:
REMARK  status: ('A' for Active; 'I' for Inactive)
REMARK    1  A    between atoms: C_1  and  C_2
REMARK    2  A    between atoms: C_4  and  C_5
REMARK    3  A    between atoms: C_5  and  N_6
REMARK    4  A    between atoms: N_6  and  C_7
REMARK    5  A    between atoms: C_12  and  C_13
REMARK                            x       y       z     vdW  Elec       q    Type
REMARK                         _______ _______ _______ _____ _____    ______ ____
ROOT
ATOM      1  C   UNL     1       3.386   5.474  18.616  0.00  0.00    +0.000 A 
ATOM      2  C   UNL     1       2.932   5.273  19.923  0.00  0.00    +0.000 A 
ATOM      3  C   UNL     1       2.169   6.237  20.594  0.00  0.00    +0.000 A 
ATOM      4  C   UNL     1       1.880   7.456  19.955  0.00  0.00    +0.000 A 
ATOM      5  N   UNL     1       1.181   8.519  20.501  0.00  0.00    +0.000 NA
ATOM      6  C   UNL     1       1.111   9.494  19.623  0.00  0.00    +0.000 A 
ATOM      7  S   UNL     1       1.830   9.199  18.102  0.00  0.00    +0.000 S 
ATOM      8  C   UNL     1       2.344   7.653  18.654  0.00  0.00    +0.000 A 
ATOM      9  C   UNL     1       3.106   6.687  17.977  0.00  0.00    +0.000 A 
ENDROOT
BRANCH   6  10
ATOM     10  C   UNL     1       0.447  10.833  19.942  0.00  0.00    +0.000 C 
ATOM     11  C   UNL     1       0.166  11.797  18.810  0.00  0.00    +0.000 C 
ATOM     12  C   UNL     1      -0.965  11.060  19.442  0.00  0.00    +0.000 C 
ENDBRANCH   6  10
BRANCH   1  13
ATOM     13  N   UNL     1       4.173   4.468  18.046  0.00  0.00    +0.000 N 
ATOM     14  H   UNL     1       3.962   3.570  18.484  0.00  0.00    +0.000 HD
BRANCH  13  15
ATOM     15  C   UNL     1       5.626   4.663  17.971  0.00  0.00    +0.000 C 
BRANCH  15  19
ATOM     16  C   UNL     1       6.475   3.868  13.004  0.00  0.00    +0.000 C 
ATOM     17  C   UNL     1       6.466   4.197  14.438  0.00  0.00    +0.000 A 
ATOM     18  C   UNL     1       5.551   4.030  15.445  0.00  0.00    +0.000 A 
ATOM     19  C   UNL     1       6.186   4.576  16.587  0.00  0.00    +0.000 A 
ATOM     20  N   UNL     1       7.408   5.034  16.292  0.00  0.00    +0.000 NA
ATOM     21  O   UNL     1       7.580   4.797  14.938  0.00  0.00    +0.000 OA
ENDBRANCH  15  19
ENDBRANCH  13  15
ENDBRANCH   1  13
TORSDOF 4
ENDMDL
MODEL 9
REMARK VINA RESULT:      -6.9      5.406      7.405
REMARK  Name = 
REMARK  5 active torsions:
REMARK  status: ('A' for Active; 'I' for Inactive)
REMARK    1  A    between atoms: C_1  and  C_2
REMARK    2  A    between atoms: C_4  and  C_5
REMARK    3  A    between atoms: C_5  and  N_6
REMARK    4  A    between atoms: N_6  and  C_7
REMARK    5  A    between atoms: C_12  and  C_13
REMARK                            x       y       z     vdW  Elec       q    Type
REMARK                         _______ _______ _______ _____ _____    ______ ____
ROOT
ATOM      1  C   UNL     1       7.572   7.377  17.714  0.00  0.00    +0.000 A 
ATOM      2  C   UNL     1       8.110   6.706  18.815  0.00  0.00    +0.000 A 
ATOM      3  C   UNL     1       7.497   5.570  19.358  0.00  0.00    +0.000 A 
ATOM      4  C   UNL     1       6.287   5.109  18.807  0.00  0.00    +0.000 A 
ATOM      5  N   UNL     1       5.541   4.034  19.258  0.00  0.00    +0.000 NA
ATOM      6  C   UNL     1       4.470   3.901  18.511  0.00  0.00    +0.000 A 
ATOM      7  S   UNL     1       4.301   5.007  17.220  0.00  0.00    +0.000 S 
ATOM      8  C   UNL     1       5.752   5.790  17.713  0.00  0.00    +0.000 A 
ATOM      9  C   UNL     1       6.367   6.927  17.164  0.00  0.00    +0.000 A 
ENDROOT
BRANCH   6  10
ATOM     10  C   UNL     1       3.410   2.834  18.786  0.00  0.00    +0.000 C 
ATOM     11  C   UNL     1       1.953   3.242  18.815  0.00  0.00    +0.000 C 
ATOM     12  C   UNL     1       2.472   2.460  17.657  0.00  0.00    +0.000 C 
ENDBRANCH   6  10
BRANCH   1  13
ATOM     13  N   UNL     1       8.239   8.524  17.269  0.00  0.00    +0.000 N 
ATOM     14  H   UNL     1       9.247   8.361  17.265  0.00  0.00    +0.000 HD
BRANCH  13  15
ATOM     15  C   UNL     1       7.938   9.811  17.910  0.00  0.00    +0.000 C 
BRANCH  15  19
ATOM     16  C   UNL     1      12.234  12.252  19.175  0.00  0.00    +0.000 C 
ATOM     17  C   UNL     1      10.970  11.508  19.061  0.00  0.00    +0.000 A 
ATOM     18  C   UNL     1      10.185  11.126  18.006  0.00  0.00    +0.000 A 
ATOM     19  C   UNL     1       9.104  10.437  18.607  0.00  0.00    +0.000 A 
ATOM     20  N   UNL     1       9.232  10.396  19.938  0.00  0.00    +0.000 NA
ATOM     21  O   UNL     1      10.406  11.074  20.221  0.00  0.00    +0.000 OA
ENDBRANCH  15  19
ENDBRANCH  13  15
ENDBRANCH   1  13
TORSDOF 4
ENDMDL
