MODEL 1
REMARK VINA RESULT:      -7.7      0.000      0.000
REMARK  Name = 
REMARK  7 active torsions:
REMARK  status: ('A' for Active; 'I' for Inactive)
REMARK    1  A    between atoms: C_1  and  C_2
REMARK    2  A    between atoms: C_5  and  S_6
REMARK    3  A    between atoms: S_6  and  C_7
REMARK    4  A    between atoms: C_7  and  C_8
REMARK    5  A    between atoms: C_8  and  C_10
REMARK    6  A    between atoms: C_13  and  S_14
REMARK    7  A    between atoms: S_14  and  N_17
REMARK                            x       y       z     vdW  Elec       q    Type
REMARK                         _______ _______ _______ _____ _____    ______ ____
ROOT
ATOM      1  C   UNL     1       1.456   8.776  19.294  0.00  0.00    +0.000 A 
ATOM      2  C   UNL     1       2.085   8.764  18.041  0.00  0.00    +0.000 A 
ATOM      3  C   UNL     1       2.953   7.724  17.693  0.00  0.00    +0.000 A 
ATOM      4  C   UNL     1       3.195   6.677  18.591  0.00  0.00    +0.000 A 
ATOM      5  C   UNL     1       2.551   6.652  19.828  0.00  0.00    +0.000 A 
ATOM      6  C   UNL     1       1.690   7.703  20.174  0.00  0.00    +0.000 A 
ENDROOT
BRANCH   4   7
ATOM      7  S   UNL     1       4.281   5.352  18.113  0.00  0.00    +0.000 S 
ATOM      8  O   UNL     1       4.846   4.810  19.328  0.00  0.00    +0.000 OA
ATOM      9  O   UNL     1       3.556   4.503  17.187  0.00  0.00    +0.000 OA
BRANCH   7  10
ATOM     10  N   UNL     1       5.541   6.100  17.240  0.00  0.00    +0.000 NA
ATOM     11  C   UNL     1       5.751   5.686  15.818  0.00  0.00    +0.000 C 
ATOM     12  C   UNL     1       6.552   4.384  15.699  0.00  0.00    +0.000 C 
ATOM     13  O   UNL     1       7.796   4.454  16.407  0.00  0.00    +0.000 OA
ATOM     14  C   UNL     1       7.593   4.763  17.793  0.00  0.00    +0.000 C 
ATOM     15  C   UNL     1       6.863   6.102  17.956  0.00  0.00    +0.000 C 
ENDBRANCH   7  10
ENDBRANCH   4   7
BRANCH   1  16
ATOM     16  C   UNL     1       0.537   9.878  19.735  0.00  0.00    +0.000 C 
ATOM     17  O   UNL     1       0.149   9.869  20.905  0.00  0.00    +0.000 OA
BRANCH  16  18
ATOM     18  C   UNL     1       0.063  10.909  18.719  0.00  0.00    +0.000 C 
BRANCH  18  19
ATOM     19  S   UNL     1      -1.385  11.833  19.313  0.00  0.00    +0.000 S 
BRANCH  19  24
ATOM     20  C   UNL     1      -3.007  10.183  14.713  0.00  0.00    +0.000 C 
ATOM     21  C   UNL     1      -3.230  10.747  16.067  0.00  0.00    +0.000 A 
ATOM     22  C   UNL     1      -4.445  11.104  16.624  0.00  0.00    +0.000 A 
ATOM     23  S   UNL     1      -4.212  11.686  18.219  0.00  0.00    +0.000 S 
ATOM     24  C   UNL     1      -2.526  11.452  18.041  0.00  0.00    +0.000 A 
ATOM     25  N   UNL     1      -2.132  10.954  16.888  0.00  0.00    +0.000 NA
ENDBRANCH  19  24
ENDBRANCH  18  19
ENDBRANCH  16  18
ENDBRANCH   1  16
TORSDOF 6
ENDMDL
MODEL 2
REMARK VINA RESULT:      -7.5      0.927      1.326
REMARK  Name = 
REMARK  7 active torsions:
REMARK  status: ('A' for Active; 'I' for Inactive)
REMARK    1  A    between atoms: C_1  and  C_2
REMARK    2  A    between atoms: C_5  and  S_6
REMARK    3  A    between atoms: S_6  and  C_7
REMARK    4  A    between atoms: C_7  and  C_8
REMARK    5  A    between atoms: C_8  and  C_10
REMARK    6  A    between atoms: C_13  and  S_14
REMARK    7  A    between atoms: S_14  and  N_17
REMARK                            x       y       z     vdW  Elec       q    Type
REMARK                         _______ _______ _______ _____ _____    ______ ____
ROOT
ATOM      1  C   UNL     1       1.518   8.842  19.228  0.00  0.00    +0.000 A 
ATOM      2  C   UNL     1       2.162   8.813  17.983  0.00  0.00    +0.000 A 
ATOM      3  C   UNL     1       3.015   7.756  17.652  0.00  0.00    +0.000 A 
ATOM      4  C   UNL     1       3.227   6.709  18.558  0.00  0.00    +0.000 A 
ATOM      5  C   UNL     1       2.568   6.702  19.787  0.00  0.00    +0.000 A 
ATOM      6  C   UNL     1       1.722   7.770  20.117  0.00  0.00    +0.000 A 
ENDROOT
BRANCH   4   7
ATOM      7  S   UNL     1       4.294   5.361  18.100  0.00  0.00    +0.000 S 
ATOM      8  O   UNL     1       4.861   4.838  19.322  0.00  0.00    +0.000 OA
ATOM      9  O   UNL     1       3.553   4.503  17.197  0.00  0.00    +0.000 OA
BRANCH   7  10
ATOM     10  N   UNL     1       5.556   6.076  17.203  0.00  0.00    +0.000 NA
ATOM     11  C   UNL     1       5.760   5.621  15.793  0.00  0.00    +0.000 C 
ATOM     12  C   UNL     1       6.552   4.311  15.709  0.00  0.00    +0.000 C 
ATOM     13  O   UNL     1       7.799   4.393  16.412  0.00  0.00    +0.000 OA
ATOM     14  C   UNL     1       7.601   4.743  17.789  0.00  0.00    +0.000 C 
ATOM     15  C   UNL     1       6.880   6.090  17.916  0.00  0.00    +0.000 C 
ENDBRANCH   7  10
ENDBRANCH   4   7
BRANCH   1  16
ATOM     16  C   UNL     1       0.614   9.964  19.653  0.00  0.00    +0.000 C 
ATOM     17  O   UNL     1       0.661  10.327  20.830  0.00  0.00    +0.000 OA
BRANCH  16  18
ATOM     18  C   UNL     1      -0.369  10.553  18.649  0.00  0.00    +0.000 C 
BRANCH  18  19
ATOM     19  S   UNL     1      -1.580  11.648  19.447  0.00  0.00    +0.000 S 
BRANCH  19  24
ATOM     20  C   UNL     1      -6.420  11.926  17.710  0.00  0.00    +0.000 C 
ATOM     21  C   UNL     1      -4.974  11.635  17.549  0.00  0.00    +0.000 A 
ATOM     22  C   UNL     1      -4.346  11.181  16.404  0.00  0.00    +0.000 A 
ATOM     23  S   UNL     1      -2.663  11.011  16.684  0.00  0.00    +0.000 S 
ATOM     24  C   UNL     1      -2.898  11.520  18.302  0.00  0.00    +0.000 A 
ATOM     25  N   UNL     1      -4.134  11.824  18.636  0.00  0.00    +0.000 NA
ENDBRANCH  19  24
ENDBRANCH  18  19
ENDBRANCH  16  18
ENDBRANCH   1  16
TORSDOF 6
ENDMDL
MODEL 3
REMARK VINA RESULT:      -7.3      1.084      1.254
REMARK  Name = 
REMARK  7 active torsions:
REMARK  status: ('A' for Active; 'I' for Inactive)
REMARK    1  A    between atoms: C_1  and  C_2
REMARK    2  A    between atoms: C_5  and  S_6
REMARK    3  A    between atoms: S_6  and  C_7
REMARK    4  A    between atoms: C_7  and  C_8
REMARK    5  A    between atoms: C_8  and  C_10
REMARK    6  A    between atoms: C_13  and  S_14
REMARK    7  A    between atoms: S_14  and  N_17
REMARK                            x       y       z     vdW  Elec       q    Type
REMARK                         _______ _______ _______ _____ _____    ______ ____
ROOT
ATOM      1  C   UNL     1       1.709   7.719  20.260  0.00  0.00    +0.000 A 
ATOM      2  C   UNL     1       2.232   8.050  19.003  0.00  0.00    +0.000 A 
ATOM      3  C   UNL     1       2.964   7.112  18.270  0.00  0.00    +0.000 A 
ATOM      4  C   UNL     1       3.176   5.826  18.783  0.00  0.00    +0.000 A 
ATOM      5  C   UNL     1       2.634   5.465  20.016  0.00  0.00    +0.000 A 
ATOM      6  C   UNL     1       1.908   6.414  20.750  0.00  0.00    +0.000 A 
ENDROOT
BRANCH   4   7
ATOM      7  S   UNL     1       4.088   4.641  17.818  0.00  0.00    +0.000 S 
ATOM      8  O   UNL     1       4.881   3.864  18.743  0.00  0.00    +0.000 OA
ATOM      9  O   UNL     1       3.152   3.996  16.918  0.00  0.00    +0.000 OA
BRANCH   7  10
ATOM     10  N   UNL     1       5.155   5.569  16.865  0.00  0.00    +0.000 NA
ATOM     11  C   UNL     1       5.464   5.084  15.484  0.00  0.00    +0.000 C 
ATOM     12  C   UNL     1       6.537   3.988  15.474  0.00  0.00    +0.000 C 
ATOM     13  O   UNL     1       7.729   4.399  16.158  0.00  0.00    +0.000 OA
ATOM     14  C   UNL     1       7.449   4.780  17.512  0.00  0.00    +0.000 C 
ATOM     15  C   UNL     1       6.437   5.931  17.562  0.00  0.00    +0.000 C 
ENDBRANCH   7  10
ENDBRANCH   4   7
BRANCH   1  16
ATOM     16  C   UNL     1       0.938   8.691  21.106  0.00  0.00    +0.000 C 
ATOM     17  O   UNL     1       1.355   8.922  22.243  0.00  0.00    +0.000 OA
BRANCH  16  18
ATOM     18  C   UNL     1      -0.354   9.292  20.567  0.00  0.00    +0.000 C 
BRANCH  18  19
ATOM     19  S   UNL     1      -0.089  10.941  19.849  0.00  0.00    +0.000 S 
BRANCH  19  24
ATOM     20  C   UNL     1      -2.814   9.804  15.631  0.00  0.00    +0.000 C 
ATOM     21  C   UNL     1      -2.606  10.516  16.916  0.00  0.00    +0.000 A 
ATOM     22  C   UNL     1      -3.472  11.412  17.514  0.00  0.00    +0.000 A 
ATOM     23  S   UNL     1      -2.818  11.959  19.000  0.00  0.00    +0.000 S 
ATOM     24  C   UNL     1      -1.430  10.997  18.725  0.00  0.00    +0.000 A 
ATOM     25  N   UNL     1      -1.432  10.286  17.618  0.00  0.00    +0.000 NA
ENDBRANCH  19  24
ENDBRANCH  18  19
ENDBRANCH  16  18
ENDBRANCH   1  16
TORSDOF 6
ENDMDL
MODEL 4
REMARK VINA RESULT:      -7.3      2.863      3.737
REMARK  Name = 
REMARK  7 active torsions:
REMARK  status: ('A' for Active; 'I' for Inactive)
REMARK    1  A    between atoms: C_1  and  C_2
REMARK    2  A    between atoms: C_5  and  S_6
REMARK    3  A    between atoms: S_6  and  C_7
REMARK    4  A    between atoms: C_7  and  C_8
REMARK    5  A    between atoms: C_8  and  C_10
REMARK    6  A    between atoms: C_13  and  S_14
REMARK    7  A    between atoms: S_14  and  N_17
REMARK                            x       y       z     vdW  Elec       q    Type
REMARK                         _______ _______ _______ _____ _____    ______ ____
ROOT
ATOM      1  C   UNL     1       1.551   8.781  19.320  0.00  0.00    +0.000 A 
ATOM      2  C   UNL     1       1.775   7.686  20.166  0.00  0.00    +0.000 A 
ATOM      3  C   UNL     1       2.592   6.629  19.755  0.00  0.00    +0.000 A 
ATOM      4  C   UNL     1       3.204   6.658  18.496  0.00  0.00    +0.000 A 
ATOM      5  C   UNL     1       3.022   7.755  17.654  0.00  0.00    +0.000 A 
ATOM      6  C   UNL     1       2.194   8.807  18.068  0.00  0.00    +0.000 A 
ENDROOT
BRANCH   4   7
ATOM      7  S   UNL     1       4.261   5.313  18.009  0.00  0.00    +0.000 S 
ATOM      8  O   UNL     1       4.828   4.763  19.220  0.00  0.00    +0.000 OA
ATOM      9  O   UNL     1       3.512   4.476  17.092  0.00  0.00    +0.000 OA
BRANCH   7  10
ATOM     10  N   UNL     1       5.525   6.037  17.123  0.00  0.00    +0.000 NA
ATOM     11  C   UNL     1       5.778   5.545  15.733  0.00  0.00    +0.000 C 
ATOM     12  C   UNL     1       6.610   4.256  15.709  0.00  0.00    +0.000 C 
ATOM     13  O   UNL     1       7.835   4.396  16.441  0.00  0.00    +0.000 OA
ATOM     14  C   UNL     1       7.591   4.781  17.801  0.00  0.00    +0.000 C 
ATOM     15  C   UNL     1       6.829   6.110  17.868  0.00  0.00    +0.000 C 
ENDBRANCH   7  10
ENDBRANCH   4   7
BRANCH   1  16
ATOM     16  C   UNL     1       0.662   9.933  19.693  0.00  0.00    +0.000 C 
ATOM     17  O   UNL     1       0.930  11.042  19.224  0.00  0.00    +0.000 OA
BRANCH  16  18
ATOM     18  C   UNL     1      -0.476   9.710  20.681  0.00  0.00    +0.000 C 
BRANCH  18  19
ATOM     19  S   UNL     1       0.016  10.111  22.384  0.00  0.00    +0.000 S 
BRANCH  19  24
ATOM     20  C   UNL     1      -4.064  12.700  24.164  0.00  0.00    +0.000 C 
ATOM     21  C   UNL     1      -2.774  12.607  23.438  0.00  0.00    +0.000 A 
ATOM     22  C   UNL     1      -2.099  13.642  22.817  0.00  0.00    +0.000 A 
ATOM     23  S   UNL     1      -0.639  13.064  22.131  0.00  0.00    +0.000 S 
ATOM     24  C   UNL     1      -1.024  11.489  22.679  0.00  0.00    +0.000 A 
ATOM     25  N   UNL     1      -2.150  11.372  23.351  0.00  0.00    +0.000 NA
ENDBRANCH  19  24
ENDBRANCH  18  19
ENDBRANCH  16  18
ENDBRANCH   1  16
TORSDOF 6
ENDMDL
MODEL 5
REMARK VINA RESULT:      -7.2      1.980      2.820
REMARK  Name = 
REMARK  7 active torsions:
REMARK  status: ('A' for Active; 'I' for Inactive)
REMARK    1  A    between atoms: C_1  and  C_2
REMARK    2  A    between atoms: C_5  and  S_6
REMARK    3  A    between atoms: S_6  and  C_7
REMARK    4  A    between atoms: C_7  and  C_8
REMARK    5  A    between atoms: C_8  and  C_10
REMARK    6  A    between atoms: C_13  and  S_14
REMARK    7  A    between atoms: S_14  and  N_17
REMARK                            x       y       z     vdW  Elec       q    Type
REMARK                         _______ _______ _______ _____ _____    ______ ____
ROOT
ATOM      1  C   UNL     1       1.556   8.955  19.299  0.00  0.00    +0.000 A 
ATOM      2  C   UNL     1       2.215   8.790  18.073  0.00  0.00    +0.000 A 
ATOM      3  C   UNL     1       2.950   7.629  17.814  0.00  0.00    +0.000 A 
ATOM      4  C   UNL     1       3.027   6.614  18.775  0.00  0.00    +0.000 A 
ATOM      5  C   UNL     1       2.350   6.744  19.987  0.00  0.00    +0.000 A 
ATOM      6  C   UNL     1       1.623   7.914  20.245  0.00  0.00    +0.000 A 
ENDROOT
BRANCH   4   7
ATOM      7  S   UNL     1       3.947   5.135  18.409  0.00  0.00    +0.000 S 
ATOM      8  O   UNL     1       5.005   5.511  17.499  0.00  0.00    +0.000 OA
ATOM      9  O   UNL     1       4.246   4.483  19.669  0.00  0.00    +0.000 OA
BRANCH   7  10
ATOM     10  N   UNL     1       2.860   4.132  17.561  0.00  0.00    +0.000 NA
ATOM     11  C   UNL     1       1.420   4.160  17.964  0.00  0.00    +0.000 C 
ATOM     12  C   UNL     1       1.138   3.287  19.193  0.00  0.00    +0.000 C 
ATOM     13  O   UNL     1       1.599   1.942  19.013  0.00  0.00    +0.000 OA
ATOM     14  C   UNL     1       3.002   1.906  18.713  0.00  0.00    +0.000 C 
ATOM     15  C   UNL     1       3.313   2.704  17.442  0.00  0.00    +0.000 C 
ENDBRANCH   7  10
ENDBRANCH   4   7
BRANCH   1  16
ATOM     16  C   UNL     1       0.774  10.189  19.646  0.00  0.00    +0.000 C 
ATOM     17  O   UNL     1       0.877  10.632  20.792  0.00  0.00    +0.000 OA
BRANCH  16  18
ATOM     18  C   UNL     1      -0.162  10.798  18.610  0.00  0.00    +0.000 C 
BRANCH  18  19
ATOM     19  S   UNL     1      -1.688  11.434  19.364  0.00  0.00    +0.000 S 
BRANCH  19  24
ATOM     20  C   UNL     1      -3.251  10.089  14.646  0.00  0.00    +0.000 C 
ATOM     21  C   UNL     1      -3.461  10.697  15.983  0.00  0.00    +0.000 A 
ATOM     22  C   UNL     1      -4.622  11.285  16.449  0.00  0.00    +0.000 A 
ATOM     23  S   UNL     1      -4.401  11.825  18.061  0.00  0.00    +0.000 S 
ATOM     24  C   UNL     1      -2.783  11.269  18.008  0.00  0.00    +0.000 A 
ATOM     25  N   UNL     1      -2.408  10.695  16.884  0.00  0.00    +0.000 NA
ENDBRANCH  19  24
ENDBRANCH  18  19
ENDBRANCH  16  18
ENDBRANCH   1  16
TORSDOF 6
ENDMDL
MODEL 6
REMARK VINA RESULT:      -7.2      2.212      3.212
REMARK  Name = 
REMARK  7 active torsions:
REMARK  status: ('A' for Active; 'I' for Inactive)
REMARK    1  A    between atoms: C_1  and  C_2
REMARK    2  A    between atoms: C_5  and  S_6
REMARK    3  A    between atoms: S_6  and  C_7
REMARK    4  A    between atoms: C_7  and  C_8
REMARK    5  A    between atoms: C_8  and  C_10
REMARK    6  A    between atoms: C_13  and  S_14
REMARK    7  A    between atoms: S_14  and  N_17
REMARK                            x       y       z     vdW  Elec       q    Type
REMARK                         _______ _______ _______ _____ _____    ______ ____
ROOT
ATOM      1  C   UNL     1       1.377   9.185  18.976  0.00  0.00    +0.000 A 
ATOM      2  C   UNL     1       1.471   8.273  20.037  0.00  0.00    +0.000 A 
ATOM      3  C   UNL     1       2.241   7.114  19.909  0.00  0.00    +0.000 A 
ATOM      4  C   UNL     1       2.936   6.856  18.721  0.00  0.00    +0.000 A 
ATOM      5  C   UNL     1       2.884   7.768  17.667  0.00  0.00    +0.000 A 
ATOM      6  C   UNL     1       2.102   8.924  17.798  0.00  0.00    +0.000 A 
ENDROOT
BRANCH   4   7
ATOM      7  S   UNL     1       3.932   5.387  18.595  0.00  0.00    +0.000 S 
ATOM      8  O   UNL     1       5.149   5.760  17.910  0.00  0.00    +0.000 OA
ATOM      9  O   UNL     1       3.975   4.773  19.907  0.00  0.00    +0.000 OA
BRANCH   7  10
ATOM     10  N   UNL     1       3.057   4.341  17.571  0.00  0.00    +0.000 NA
ATOM     11  C   UNL     1       1.582   4.217  17.789  0.00  0.00    +0.000 C 
ATOM     12  C   UNL     1       1.237   3.255  18.932  0.00  0.00    +0.000 C 
ATOM     13  O   UNL     1       1.844   1.968  18.750  0.00  0.00    +0.000 OA
ATOM     14  C   UNL     1       3.269   2.074  18.630  0.00  0.00    +0.000 C 
ATOM     15  C   UNL     1       3.656   2.968  17.445  0.00  0.00    +0.000 C 
ENDBRANCH   7  10
ENDBRANCH   4   7
BRANCH   1  16
ATOM     16  C   UNL     1       0.544  10.433  19.043  0.00  0.00    +0.000 C 
ATOM     17  O   UNL     1       1.079  11.499  18.731  0.00  0.00    +0.000 OA
BRANCH  16  18
ATOM     18  C   UNL     1      -0.887  10.350  19.559  0.00  0.00    +0.000 C 
BRANCH  18  19
ATOM     19  S   UNL     1      -1.695  11.978  19.585  0.00  0.00    +0.000 S 
BRANCH  19  24
ATOM     20  C   UNL     1      -6.522  11.741  17.810  0.00  0.00    +0.000 C 
ATOM     21  C   UNL     1      -5.054  11.584  17.666  0.00  0.00    +0.000 A 
ATOM     22  C   UNL     1      -4.375  11.158  16.540  0.00  0.00    +0.000 A 
ATOM     23  S   UNL     1      -2.687  11.158  16.836  0.00  0.00    +0.000 S 
ATOM     24  C   UNL     1      -2.984  11.690  18.436  0.00  0.00    +0.000 A 
ATOM     25  N   UNL     1      -4.246  11.885  18.753  0.00  0.00    +0.000 NA
ENDBRANCH  19  24
ENDBRANCH  18  19
ENDBRANCH  16  18
ENDBRANCH   1  16
TORSDOF 6
ENDMDL
MODEL 7
REMARK VINA RESULT:      -7.1      2.375      2.953
REMARK  Name = 
REMARK  7 active torsions:
REMARK  status: ('A' for Active; 'I' for Inactive)
REMARK    1  A    between atoms: C_1  and  C_2
REMARK    2  A    between atoms: C_5  and  S_6
REMARK    3  A    between atoms: S_6  and  C_7
REMARK    4  A    between atoms: C_7  and  C_8
REMARK    5  A    between atoms: C_8  and  C_10
REMARK    6  A    between atoms: C_13  and  S_14
REMARK    7  A    between atoms: S_14  and  N_17
REMARK                            x       y       z     vdW  Elec       q    Type
REMARK                         _______ _______ _______ _____ _____    ______ ____
ROOT
ATOM      1  C   UNL     1       1.196   9.674  19.851  0.00  0.00    +0.000 A 
ATOM      2  C   UNL     1       1.830   9.089  18.745  0.00  0.00    +0.000 A 
ATOM      3  C   UNL     1       2.280   7.767  18.805  0.00  0.00    +0.000 A 
ATOM      4  C   UNL     1       2.094   7.009  19.968  0.00  0.00    +0.000 A 
ATOM      5  C   UNL     1       1.434   7.562  21.065  0.00  0.00    +0.000 A 
ATOM      6  C   UNL     1       0.994   8.891  21.003  0.00  0.00    +0.000 A 
ENDROOT
BRANCH   4   7
ATOM      7  S   UNL     1       2.651   5.320  20.007  0.00  0.00    +0.000 S 
ATOM      8  O   UNL     1       4.045   5.327  19.624  0.00  0.00    +0.000 OA
ATOM      9  O   UNL     1       2.230   4.749  21.272  0.00  0.00    +0.000 OA
BRANCH   7  10
ATOM     10  N   UNL     1       1.775   4.532  18.775  0.00  0.00    +0.000 NA
ATOM     11  C   UNL     1       1.068   3.261  19.120  0.00  0.00    +0.000 C 
ATOM     12  C   UNL     1       2.006   2.048  19.116  0.00  0.00    +0.000 C 
ATOM     13  O   UNL     1       2.717   1.925  17.877  0.00  0.00    +0.000 OA
ATOM     14  C   UNL     1       3.469   3.111  17.585  0.00  0.00    +0.000 C 
ATOM     15  C   UNL     1       2.552   4.337  17.502  0.00  0.00    +0.000 C 
ENDBRANCH   7  10
ENDBRANCH   4   7
BRANCH   1  16
ATOM     16  C   UNL     1       0.716  11.097  19.858  0.00  0.00    +0.000 C 
ATOM     17  O   UNL     1       1.099  11.829  20.773  0.00  0.00    +0.000 OA
BRANCH  16  18
ATOM     18  C   UNL     1      -0.271  11.559  18.793  0.00  0.00    +0.000 C 
BRANCH  18  19
ATOM     19  S   UNL     1      -1.897  11.956  19.502  0.00  0.00    +0.000 S 
BRANCH  19  24
ATOM     20  C   UNL     1      -3.102  10.327  14.768  0.00  0.00    +0.000 C 
ATOM     21  C   UNL     1      -3.448  10.868  16.106  0.00  0.00    +0.000 A 
ATOM     22  C   UNL     1      -4.711  11.188  16.567  0.00  0.00    +0.000 A 
ATOM     23  S   UNL     1      -4.622  11.755  18.182  0.00  0.00    +0.000 S 
ATOM     24  C   UNL     1      -2.922  11.564  18.137  0.00  0.00    +0.000 A 
ATOM     25  N   UNL     1      -2.424  11.091  17.015  0.00  0.00    +0.000 NA
ENDBRANCH  19  24
ENDBRANCH  18  19
ENDBRANCH  16  18
ENDBRANCH   1  16
TORSDOF 6
ENDMDL
MODEL 8
REMARK VINA RESULT:      -7.1      2.390      3.053
REMARK  Name = 
REMARK  7 active torsions:
REMARK  status: ('A' for Active; 'I' for Inactive)
REMARK    1  A    between atoms: C_1  and  C_2
REMARK    2  A    between atoms: C_5  and  S_6
REMARK    3  A    between atoms: S_6  and  C_7
REMARK    4  A    between atoms: C_7  and  C_8
REMARK    5  A    between atoms: C_8  and  C_10
REMARK    6  A    between atoms: C_13  and  S_14
REMARK    7  A    between atoms: S_14  and  N_17
REMARK                            x       y       z     vdW  Elec       q    Type
REMARK                         _______ _______ _______ _____ _____    ______ ____
ROOT
ATOM      1  C   UNL     1       1.212   9.633  19.355  0.00  0.00    +0.000 A 
ATOM      2  C   UNL     1       1.817   9.025  18.247  0.00  0.00    +0.000 A 
ATOM      3  C   UNL     1       2.364   7.742  18.354  0.00  0.00    +0.000 A 
ATOM      4  C   UNL     1       2.303   7.048  19.568  0.00  0.00    +0.000 A 
ATOM      5  C   UNL     1       1.674   7.622  20.672  0.00  0.00    +0.000 A 
ATOM      6  C   UNL     1       1.136   8.912  20.562  0.00  0.00    +0.000 A 
ENDROOT
BRANCH   4   7
ATOM      7  S   UNL     1       2.982   5.406  19.669  0.00  0.00    +0.000 S 
ATOM      8  O   UNL     1       4.409   5.527  19.473  0.00  0.00    +0.000 OA
ATOM      9  O   UNL     1       2.446   4.784  20.864  0.00  0.00    +0.000 OA
BRANCH   7  10
ATOM     10  N   UNL     1       2.339   4.574  18.328  0.00  0.00    +0.000 NA
ATOM     11  C   UNL     1       1.388   3.450  18.590  0.00  0.00    +0.000 C 
ATOM     12  C   UNL     1       2.109   2.145  18.950  0.00  0.00    +0.000 C 
ATOM     13  O   UNL     1       3.083   1.781  17.963  0.00  0.00    +0.000 OA
ATOM     14  C   UNL     1       4.050   2.823  17.773  0.00  0.00    +0.000 C 
ATOM     15  C   UNL     1       3.374   4.127  17.333  0.00  0.00    +0.000 C 
ENDBRANCH   7  10
ENDBRANCH   4   7
BRANCH   1  16
ATOM     16  C   UNL     1       0.632  11.018  19.310  0.00  0.00    +0.000 C 
ATOM     17  O   UNL     1       1.203  11.858  18.612  0.00  0.00    +0.000 OA
BRANCH  16  18
ATOM     18  C   UNL     1      -0.578  11.351  20.175  0.00  0.00    +0.000 C 
BRANCH  18  19
ATOM     19  S   UNL     1      -1.493  12.786  19.538  0.00  0.00    +0.000 S 
BRANCH  19  24
ATOM     20  C   UNL     1      -6.168  11.021  18.296  0.00  0.00    +0.000 C 
ATOM     21  C   UNL     1      -4.716  11.203  18.048  0.00  0.00    +0.000 A 
ATOM     22  C   UNL     1      -4.000  10.737  16.961  0.00  0.00    +0.000 A 
ATOM     23  S   UNL     1      -2.358  11.211  17.093  0.00  0.00    +0.000 S 
ATOM     24  C   UNL     1      -2.713  11.966  18.587  0.00  0.00    +0.000 A 
ATOM     25  N   UNL     1      -3.967  11.906  18.980  0.00  0.00    +0.000 NA
ENDBRANCH  19  24
ENDBRANCH  18  19
ENDBRANCH  16  18
ENDBRANCH   1  16
TORSDOF 6
ENDMDL
MODEL 9
REMARK VINA RESULT:      -7.1      2.616      3.256
REMARK  Name = 
REMARK  7 active torsions:
REMARK  status: ('A' for Active; 'I' for Inactive)
REMARK    1  A    between atoms: C_1  and  C_2
REMARK    2  A    between atoms: C_5  and  S_6
REMARK    3  A    between atoms: S_6  and  C_7
REMARK    4  A    between atoms: C_7  and  C_8
REMARK    5  A    between atoms: C_8  and  C_10
REMARK    6  A    between atoms: C_13  and  S_14
REMARK    7  A    between atoms: S_14  and  N_17
REMARK                            x       y       z     vdW  Elec       q    Type
REMARK                         _______ _______ _______ _____ _____    ______ ____
ROOT
ATOM      1  C   UNL     1       1.037   9.478  20.180  0.00  0.00    +0.000 A 
ATOM      2  C   UNL     1       1.513   9.267  18.878  0.00  0.00    +0.000 A 
ATOM      3  C   UNL     1       2.123   8.057  18.534  0.00  0.00    +0.000 A 
ATOM      4  C   UNL     1       2.256   7.038  19.486  0.00  0.00    +0.000 A 
ATOM      5  C   UNL     1       1.757   7.215  20.776  0.00  0.00    +0.000 A 
ATOM      6  C   UNL     1       1.156   8.434  21.117  0.00  0.00    +0.000 A 
ENDROOT
BRANCH   4   7
ATOM      7  S   UNL     1       3.011   5.498  19.014  0.00  0.00    +0.000 S 
ATOM      8  O   UNL     1       2.489   5.154  17.710  0.00  0.00    +0.000 OA
ATOM      9  O   UNL     1       4.439   5.625  19.233  0.00  0.00    +0.000 OA
BRANCH   7  10
ATOM     10  N   UNL     1       2.423   4.352  20.131  0.00  0.00    +0.000 NA
ATOM     11  C   UNL     1       3.283   3.168  20.439  0.00  0.00    +0.000 C 
ATOM     12  C   UNL     1       3.171   2.068  19.376  0.00  0.00    +0.000 C 
ATOM     13  O   UNL     1       1.810   1.676  19.153  0.00  0.00    +0.000 OA
ATOM     14  C   UNL     1       0.999   2.795  18.770  0.00  0.00    +0.000 C 
ATOM     15  C   UNL     1       1.022   3.886  19.847  0.00  0.00    +0.000 C 
ENDBRANCH   7  10
ENDBRANCH   4   7
BRANCH   1  16
ATOM     16  C   UNL     1       0.398  10.764  20.617  0.00  0.00    +0.000 C 
ATOM     17  O   UNL     1       1.111  11.598  21.181  0.00  0.00    +0.000 OA
BRANCH  16  18
ATOM     18  C   UNL     1      -1.099  10.961  20.420  0.00  0.00    +0.000 C 
BRANCH  18  19
ATOM     19  S   UNL     1      -1.469  12.481  19.493  0.00  0.00    +0.000 S 
BRANCH  19  24
ATOM     20  C   UNL     1      -2.902  10.361  15.025  0.00  0.00    +0.000 C 
ATOM     21  C   UNL     1      -3.182  10.928  16.367  0.00  0.00    +0.000 A 
ATOM     22  C   UNL     1      -4.422  11.068  16.963  0.00  0.00    +0.000 A 
ATOM     23  S   UNL     1      -4.250  11.749  18.526  0.00  0.00    +0.000 S 
ATOM     24  C   UNL     1      -2.558  11.836  18.284  0.00  0.00    +0.000 A 
ATOM     25  N   UNL     1      -2.116  11.375  17.133  0.00  0.00    +0.000 NA
ENDBRANCH  19  24
ENDBRANCH  18  19
ENDBRANCH  16  18
ENDBRANCH   1  16
TORSDOF 6
ENDMDL
