MODEL 1
REMARK VINA RESULT:      -8.7      0.000      0.000
REMARK  Name = 
REMARK  9 active torsions:
REMARK  status: ('A' for Active; 'I' for Inactive)
REMARK    1  A    between atoms: C_1  and  C_2
REMARK    2  A    between atoms: C_2  and  C_3
REMARK    3  A    between atoms: C_2  and  N_4
REMARK    4  A    between atoms: N_4  and  S_5
REMARK    5  A    between atoms: S_5  and  C_8
REMARK    6  A    between atoms: N_15  and  N_16
REMARK    7  A    between atoms: N_16  and  C_17
REMARK    8  A    between atoms: C_22  and  C_23
REMARK    9  A    between atoms: C_23  and  O_25
REMARK                            x       y       z     vdW  Elec       q    Type
REMARK                         _______ _______ _______ _____ _____    ______ ____
ROOT
ATOM      1  C   UNL     1       4.861   4.949  16.705  0.00  0.00    +0.000 A 
ATOM      2  C   UNL     1       4.622   3.563  16.876  0.00  0.00    +0.000 A 
ATOM      3  C   UNL     1       3.734   3.108  17.854  0.00  0.00    +0.000 A 
ATOM      4  C   UNL     1       3.104   4.060  18.630  0.00  0.00    +0.000 A 
ATOM      5  C   UNL     1       3.339   5.426  18.454  0.00  0.00    +0.000 A 
ATOM      6  C   UNL     1       4.202   5.907  17.487  0.00  0.00    +0.000 A 
ATOM      7  C   UNL     1       2.523   6.120  19.448  0.00  0.00    +0.000 C 
ATOM      8  N   UNL     1       2.496   7.399  19.646  0.00  0.00    +0.000 NA
ATOM      9  C   UNL     1       1.756   5.027  20.193  0.00  0.00    +0.000 C 
ATOM     10  O   UNL     1       0.963   5.222  21.088  0.00  0.00    +0.000 OA
ATOM     11  N   UNL     1       2.179   3.832  19.642  0.00  0.00    +0.000 N 
ATOM     12  H   UNL     1       1.830   2.934  19.945  0.00  0.00    +0.000 HD
ENDROOT
BRANCH   1  13
ATOM     13  S   UNL     1       6.002   5.450  15.425  0.00  0.00    +0.000 S 
ATOM     14  O   UNL     1       5.451   6.600  14.746  0.00  0.00    +0.000 OA
ATOM     15  O   UNL     1       6.366   4.237  14.727  0.00  0.00    +0.000 OA
BRANCH  13  16
ATOM     16  N   UNL     1       7.350   5.936  16.320  0.00  0.00    +0.000 NA
ATOM     17  H   UNL     1       8.119   5.271  16.276  0.00  0.00    +0.000 HD
BRANCH  16  19
ATOM     18  C   UNL     1       7.806   5.836  18.765  0.00  0.00    +0.000 C 
ATOM     19  C   UNL     1       7.168   6.612  17.623  0.00  0.00    +0.000 C 
ATOM     20  C   UNL     1       7.798   8.002  17.532  0.00  0.00    +0.000 C 
ENDBRANCH  16  19
ENDBRANCH  13  16
ENDBRANCH   1  13
BRANCH   8  21
ATOM     21  N   UNL     1       1.644   7.884  20.594  0.00  0.00    +0.000 N 
ATOM     22  H   UNL     1       1.812   7.702  21.597  0.00  0.00    +0.000 HD
BRANCH  21  23
ATOM     23  C   UNL     1       0.943   9.085  20.309  0.00  0.00    +0.000 A 
ATOM     24  C   UNL     1       0.794   9.527  18.981  0.00  0.00    +0.000 A 
ATOM     25  C   UNL     1       0.051  10.670  18.666  0.00  0.00    +0.000 A 
ATOM     26  C   UNL     1      -0.586  11.386  19.672  0.00  0.00    +0.000 A 
ATOM     27  C   UNL     1      -0.460  10.971  20.996  0.00  0.00    +0.000 A 
ATOM     28  C   UNL     1       0.300   9.830  21.321  0.00  0.00    +0.000 A 
BRANCH  28  29
ATOM     29  C   UNL     1       0.337   9.465  22.761  0.00  0.00    +0.000 C 
ATOM     30  O   UNL     1       1.353   9.529  23.434  0.00  0.00    +0.000 OA
BRANCH  29  31
ATOM     31  O   UNL     1      -0.863   9.123  23.276  0.00  0.00    +0.000 OA
ATOM     32  H   UNL     1      -1.123   8.200  23.061  0.00  0.00    +0.000 HD
ENDBRANCH  29  31
ENDBRANCH  28  29
ENDBRANCH  21  23
ENDBRANCH   8  21
TORSDOF 7
ENDMDL
MODEL 2
REMARK VINA RESULT:      -8.6      1.684      2.234
REMARK  Name = 
REMARK  9 active torsions:
REMARK  status: ('A' for Active; 'I' for Inactive)
REMARK    1  A    between atoms: C_1  and  C_2
REMARK    2  A    between atoms: C_2  and  C_3
REMARK    3  A    between atoms: C_2  and  N_4
REMARK    4  A    between atoms: N_4  and  S_5
REMARK    5  A    between atoms: S_5  and  C_8
REMARK    6  A    between atoms: N_15  and  N_16
REMARK    7  A    between atoms: N_16  and  C_17
REMARK    8  A    between atoms: C_22  and  C_23
REMARK    9  A    between atoms: C_23  and  O_25
REMARK                            x       y       z     vdW  Elec       q    Type
REMARK                         _______ _______ _______ _____ _____    ______ ____
ROOT
ATOM      1  C   UNL     1       5.429   4.951  17.069  0.00  0.00    +0.000 A 
ATOM      2  C   UNL     1       5.026   3.599  16.931  0.00  0.00    +0.000 A 
ATOM      3  C   UNL     1       3.897   3.120  17.603  0.00  0.00    +0.000 A 
ATOM      4  C   UNL     1       3.201   4.016  18.391  0.00  0.00    +0.000 A 
ATOM      5  C   UNL     1       3.601   5.349  18.519  0.00  0.00    +0.000 A 
ATOM      6  C   UNL     1       4.704   5.854  17.858  0.00  0.00    +0.000 A 
ATOM      7  C   UNL     1       2.649   5.982  19.430  0.00  0.00    +0.000 C 
ATOM      8  N   UNL     1       2.701   7.207  19.848  0.00  0.00    +0.000 NA
ATOM      9  C   UNL     1       1.631   4.899  19.786  0.00  0.00    +0.000 C 
ATOM     10  O   UNL     1       0.677   5.056  20.517  0.00  0.00    +0.000 OA
ATOM     11  N   UNL     1       2.052   3.758  19.129  0.00  0.00    +0.000 N 
ATOM     12  H   UNL     1       1.558   2.879  19.184  0.00  0.00    +0.000 HD
ENDROOT
BRANCH   1  13
ATOM     13  S   UNL     1       6.876   5.488  16.169  0.00  0.00    +0.000 S 
ATOM     14  O   UNL     1       7.920   4.508  16.358  0.00  0.00    +0.000 OA
ATOM     15  O   UNL     1       7.051   6.883  16.503  0.00  0.00    +0.000 OA
BRANCH  13  16
ATOM     16  N   UNL     1       6.344   5.419  14.567  0.00  0.00    +0.000 NA
ATOM     17  H   UNL     1       5.338   5.547  14.475  0.00  0.00    +0.000 HD
BRANCH  16  19
ATOM     18  C   UNL     1       5.903   3.613  12.913  0.00  0.00    +0.000 C 
ATOM     19  C   UNL     1       6.950   4.453  13.626  0.00  0.00    +0.000 C 
ATOM     20  C   UNL     1       7.767   5.237  12.597  0.00  0.00    +0.000 C 
ENDBRANCH  16  19
ENDBRANCH  13  16
ENDBRANCH   1  13
BRANCH   8  21
ATOM     21  N   UNL     1       1.706   7.647  20.668  0.00  0.00    +0.000 N 
ATOM     22  H   UNL     1       1.700   7.397  21.671  0.00  0.00    +0.000 HD
BRANCH  21  23
ATOM     23  C   UNL     1       1.075   8.879  20.351  0.00  0.00    +0.000 A 
ATOM     24  C   UNL     1       0.718   9.176  19.022  0.00  0.00    +0.000 A 
ATOM     25  C   UNL     1       0.035  10.352  18.690  0.00  0.00    +0.000 A 
ATOM     26  C   UNL     1      -0.332  11.249  19.686  0.00  0.00    +0.000 A 
ATOM     27  C   UNL     1       0.004  10.979  21.011  0.00  0.00    +0.000 A 
ATOM     28  C   UNL     1       0.706   9.806  21.349  0.00  0.00    +0.000 A 
BRANCH  28  29
ATOM     29  C   UNL     1       0.982   9.610  22.796  0.00  0.00    +0.000 C 
ATOM     30  O   UNL     1       0.125   9.731  23.656  0.00  0.00    +0.000 OA
BRANCH  29  31
ATOM     31  O   UNL     1       2.245   9.222  23.070  0.00  0.00    +0.000 OA
ATOM     32  H   UNL     1       2.368   8.249  23.010  0.00  0.00    +0.000 HD
ENDBRANCH  29  31
ENDBRANCH  28  29
ENDBRANCH  21  23
ENDBRANCH   8  21
TORSDOF 7
ENDMDL
MODEL 3
REMARK VINA RESULT:      -8.4      1.758      2.405
REMARK  Name = 
REMARK  9 active torsions:
REMARK  status: ('A' for Active; 'I' for Inactive)
REMARK    1  A    between atoms: C_1  and  C_2
REMARK    2  A    between atoms: C_2  and  C_3
REMARK    3  A    between atoms: C_2  and  N_4
REMARK    4  A    between atoms: N_4  and  S_5
REMARK    5  A    between atoms: S_5  and  C_8
REMARK    6  A    between atoms: N_15  and  N_16
REMARK    7  A    between atoms: N_16  and  C_17
REMARK    8  A    between atoms: C_22  and  C_23
REMARK    9  A    between atoms: C_23  and  O_25
REMARK                            x       y       z     vdW  Elec       q    Type
REMARK                         _______ _______ _______ _____ _____    ______ ____
ROOT
ATOM      1  C   UNL     1       5.096   4.520  16.696  0.00  0.00    +0.000 A 
ATOM      2  C   UNL     1       4.724   3.159  16.823  0.00  0.00    +0.000 A 
ATOM      3  C   UNL     1       3.733   2.773  17.729  0.00  0.00    +0.000 A 
ATOM      4  C   UNL     1       3.138   3.767  18.480  0.00  0.00    +0.000 A 
ATOM      5  C   UNL     1       3.505   5.109  18.347  0.00  0.00    +0.000 A 
ATOM      6  C   UNL     1       4.472   5.523  17.451  0.00  0.00    +0.000 A 
ATOM      7  C   UNL     1       2.687   5.860  19.297  0.00  0.00    +0.000 C 
ATOM      8  N   UNL     1       2.760   7.134  19.518  0.00  0.00    +0.000 NA
ATOM      9  C   UNL     1       1.776   4.830  19.965  0.00  0.00    +0.000 C 
ATOM     10  O   UNL     1       0.943   5.084  20.809  0.00  0.00    +0.000 OA
ATOM     11  N   UNL     1       2.128   3.609  19.422  0.00  0.00    +0.000 N 
ATOM     12  H   UNL     1       1.680   2.742  19.682  0.00  0.00    +0.000 HD
ENDROOT
BRANCH   1  13
ATOM     13  S   UNL     1       6.364   4.934  15.507  0.00  0.00    +0.000 S 
ATOM     14  O   UNL     1       7.652   4.789  16.145  0.00  0.00    +0.000 OA
ATOM     15  O   UNL     1       5.937   6.170  14.892  0.00  0.00    +0.000 OA
BRANCH  13  16
ATOM     16  N   UNL     1       6.183   3.712  14.355  0.00  0.00    +0.000 NA
ATOM     17  H   UNL     1       6.696   2.865  14.589  0.00  0.00    +0.000 HD
BRANCH  16  19
ATOM     18  C   UNL     1       7.481   4.550  12.404  0.00  0.00    +0.000 C 
ATOM     19  C   UNL     1       6.139   4.052  12.916  0.00  0.00    +0.000 C 
ATOM     20  C   UNL     1       5.726   2.799  12.142  0.00  0.00    +0.000 C 
ENDBRANCH  16  19
ENDBRANCH  13  16
ENDBRANCH   1  13
BRANCH   8  21
ATOM     21  N   UNL     1       1.891   7.680  20.415  0.00  0.00    +0.000 N 
ATOM     22  H   UNL     1       2.035   7.558  21.430  0.00  0.00    +0.000 HD
BRANCH  21  23
ATOM     23  C   UNL     1       1.205   8.866  20.042  0.00  0.00    +0.000 A 
ATOM     24  C   UNL     1       1.244   9.325  18.712  0.00  0.00    +0.000 A 
ATOM     25  C   UNL     1       0.523  10.452  18.302  0.00  0.00    +0.000 A 
ATOM     26  C   UNL     1      -0.279  11.134  19.209  0.00  0.00    +0.000 A 
ATOM     27  C   UNL     1      -0.340  10.700  20.532  0.00  0.00    +0.000 A 
ATOM     28  C   UNL     1       0.395   9.576  20.954  0.00  0.00    +0.000 A 
BRANCH  28  29
ATOM     29  C   UNL     1       0.227   9.190  22.379  0.00  0.00    +0.000 C 
ATOM     30  O   UNL     1       0.934   9.627  23.272  0.00  0.00    +0.000 OA
BRANCH  29  31
ATOM     31  O   UNL     1      -0.818   8.367  22.609  0.00  0.00    +0.000 OA
ATOM     32  H   UNL     1      -1.361   8.643  23.379  0.00  0.00    +0.000 HD
ENDBRANCH  29  31
ENDBRANCH  28  29
ENDBRANCH  21  23
ENDBRANCH   8  21
TORSDOF 7
ENDMDL
MODEL 4
REMARK VINA RESULT:      -8.3      1.890      2.516
REMARK  Name = 
REMARK  9 active torsions:
REMARK  status: ('A' for Active; 'I' for Inactive)
REMARK    1  A    between atoms: C_1  and  C_2
REMARK    2  A    between atoms: C_2  and  C_3
REMARK    3  A    between atoms: C_2  and  N_4
REMARK    4  A    between atoms: N_4  and  S_5
REMARK    5  A    between atoms: S_5  and  C_8
REMARK    6  A    between atoms: N_15  and  N_16
REMARK    7  A    between atoms: N_16  and  C_17
REMARK    8  A    between atoms: C_22  and  C_23
REMARK    9  A    between atoms: C_23  and  O_25
REMARK                            x       y       z     vdW  Elec       q    Type
REMARK                         _______ _______ _______ _____ _____    ______ ____
ROOT
ATOM      1  C   UNL     1       4.293   5.964  17.524  0.00  0.00    +0.000 A 
ATOM      2  C   UNL     1       4.274   4.896  18.454  0.00  0.00    +0.000 A 
ATOM      3  C   UNL     1       3.488   4.970  19.608  0.00  0.00    +0.000 A 
ATOM      4  C   UNL     1       2.739   6.115  19.792  0.00  0.00    +0.000 A 
ATOM      5  C   UNL     1       2.758   7.163  18.868  0.00  0.00    +0.000 A 
ATOM      6  C   UNL     1       3.515   7.114  17.713  0.00  0.00    +0.000 A 
ATOM      7  C   UNL     1       1.869   8.197  19.394  0.00  0.00    +0.000 C 
ATOM      8  N   UNL     1       1.651   9.355  18.856  0.00  0.00    +0.000 NA
ATOM      9  C   UNL     1       1.296   7.631  20.693  0.00  0.00    +0.000 C 
ATOM     10  O   UNL     1       0.503   8.203  21.410  0.00  0.00    +0.000 OA
ATOM     11  N   UNL     1       1.883   6.390  20.852  0.00  0.00    +0.000 N 
ATOM     12  H   UNL     1       1.683   5.784  21.634  0.00  0.00    +0.000 HD
ENDROOT
BRANCH   1  13
ATOM     13  S   UNL     1       5.315   5.787  16.068  0.00  0.00    +0.000 S 
ATOM     14  O   UNL     1       5.065   6.912  15.196  0.00  0.00    +0.000 OA
ATOM     15  O   UNL     1       5.148   4.418  15.636  0.00  0.00    +0.000 OA
BRANCH  13  16
ATOM     16  N   UNL     1       6.872   5.925  16.708  0.00  0.00    +0.000 NA
ATOM     17  H   UNL     1       7.410   5.064  16.635  0.00  0.00    +0.000 HD
BRANCH  16  19
ATOM     18  C   UNL     1       7.920   5.953  18.965  0.00  0.00    +0.000 C 
ATOM     19  C   UNL     1       7.101   6.716  17.936  0.00  0.00    +0.000 C 
ATOM     20  C   UNL     1       7.832   8.001  17.548  0.00  0.00    +0.000 C 
ENDBRANCH  16  19
ENDBRANCH  13  16
ENDBRANCH   1  13
BRANCH   8  21
ATOM     21  N   UNL     1       0.758  10.186  19.462  0.00  0.00    +0.000 N 
ATOM     22  H   UNL     1       1.081  10.926  20.107  0.00  0.00    +0.000 HD
BRANCH  21  23
ATOM     23  C   UNL     1      -0.460  10.465  18.787  0.00  0.00    +0.000 A 
ATOM     24  C   UNL     1      -0.801   9.766  17.614  0.00  0.00    +0.000 A 
ATOM     25  C   UNL     1      -2.024   9.970  16.966  0.00  0.00    +0.000 A 
ATOM     26  C   UNL     1      -2.950  10.863  17.493  0.00  0.00    +0.000 A 
ATOM     27  C   UNL     1      -2.642  11.566  18.655  0.00  0.00    +0.000 A 
ATOM     28  C   UNL     1      -1.406  11.376  19.303  0.00  0.00    +0.000 A 
BRANCH  28  29
ATOM     29  C   UNL     1      -1.201  12.157  20.550  0.00  0.00    +0.000 C 
ATOM     30  O   UNL     1      -1.996  12.147  21.476  0.00  0.00    +0.000 OA
BRANCH  29  31
ATOM     31  O   UNL     1      -0.029  12.825  20.598  0.00  0.00    +0.000 OA
ATOM     32  H   UNL     1       0.113  13.289  21.452  0.00  0.00    +0.000 HD
ENDBRANCH  29  31
ENDBRANCH  28  29
ENDBRANCH  21  23
ENDBRANCH   8  21
TORSDOF 7
ENDMDL
MODEL 5
REMARK VINA RESULT:      -8.3      0.761      1.171
REMARK  Name = 
REMARK  9 active torsions:
REMARK  status: ('A' for Active; 'I' for Inactive)
REMARK    1  A    between atoms: C_1  and  C_2
REMARK    2  A    between atoms: C_2  and  C_3
REMARK    3  A    between atoms: C_2  and  N_4
REMARK    4  A    between atoms: N_4  and  S_5
REMARK    5  A    between atoms: S_5  and  C_8
REMARK    6  A    between atoms: N_15  and  N_16
REMARK    7  A    between atoms: N_16  and  C_17
REMARK    8  A    between atoms: C_22  and  C_23
REMARK    9  A    between atoms: C_23  and  O_25
REMARK                            x       y       z     vdW  Elec       q    Type
REMARK                         _______ _______ _______ _____ _____    ______ ____
ROOT
ATOM      1  C   UNL     1       5.238   4.951  16.989  0.00  0.00    +0.000 A 
ATOM      2  C   UNL     1       4.879   3.582  16.916  0.00  0.00    +0.000 A 
ATOM      3  C   UNL     1       3.798   3.089  17.652  0.00  0.00    +0.000 A 
ATOM      4  C   UNL     1       3.103   3.987  18.437  0.00  0.00    +0.000 A 
ATOM      5  C   UNL     1       3.458   5.337  18.501  0.00  0.00    +0.000 A 
ATOM      6  C   UNL     1       4.514   5.856  17.776  0.00  0.00    +0.000 A 
ATOM      7  C   UNL     1       2.523   5.969  19.430  0.00  0.00    +0.000 C 
ATOM      8  N   UNL     1       2.547   7.209  19.802  0.00  0.00    +0.000 NA
ATOM      9  C   UNL     1       1.561   4.865  19.867  0.00  0.00    +0.000 C 
ATOM     10  O   UNL     1       0.632   5.015  20.632  0.00  0.00    +0.000 OA
ATOM     11  N   UNL     1       1.995   3.716  19.232  0.00  0.00    +0.000 N 
ATOM     12  H   UNL     1       1.537   2.823  19.338  0.00  0.00    +0.000 HD
ENDROOT
BRANCH   1  13
ATOM     13  S   UNL     1       6.625   5.505  16.009  0.00  0.00    +0.000 S 
ATOM     14  O   UNL     1       6.206   5.587  14.629  0.00  0.00    +0.000 OA
ATOM     15  O   UNL     1       7.750   4.702  16.432  0.00  0.00    +0.000 OA
BRANCH  13  16
ATOM     16  N   UNL     1       6.876   7.068  16.599  0.00  0.00    +0.000 NA
ATOM     17  H   UNL     1       6.686   7.790  15.908  0.00  0.00    +0.000 HD
BRANCH  16  19
ATOM     18  C   UNL     1       8.104   8.816  17.876  0.00  0.00    +0.000 C 
ATOM     19  C   UNL     1       8.007   7.343  17.512  0.00  0.00    +0.000 C 
ATOM     20  C   UNL     1       7.810   6.512  18.780  0.00  0.00    +0.000 C 
ENDBRANCH  16  19
ENDBRANCH  13  16
ENDBRANCH   1  13
BRANCH   8  21
ATOM     21  N   UNL     1       1.571   7.644  20.648  0.00  0.00    +0.000 N 
ATOM     22  H   UNL     1       1.558   7.342  21.637  0.00  0.00    +0.000 HD
BRANCH  21  23
ATOM     23  C   UNL     1       0.988   8.914  20.398  0.00  0.00    +0.000 A 
ATOM     24  C   UNL     1       0.577   9.267  19.099  0.00  0.00    +0.000 A 
ATOM     25  C   UNL     1      -0.063  10.483  18.836  0.00  0.00    +0.000 A 
ATOM     26  C   UNL     1      -0.332  11.367  19.874  0.00  0.00    +0.000 A 
ATOM     27  C   UNL     1       0.060  11.044  21.171  0.00  0.00    +0.000 A 
ATOM     28  C   UNL     1       0.718   9.828  21.439  0.00  0.00    +0.000 A 
BRANCH  28  29
ATOM     29  C   UNL     1       1.060   9.577  22.864  0.00  0.00    +0.000 C 
ATOM     30  O   UNL     1       0.232   9.610  23.759  0.00  0.00    +0.000 OA
BRANCH  29  31
ATOM     31  O   UNL     1       2.352   9.244  23.071  0.00  0.00    +0.000 OA
ATOM     32  H   UNL     1       2.786   9.802  23.754  0.00  0.00    +0.000 HD
ENDBRANCH  29  31
ENDBRANCH  28  29
ENDBRANCH  21  23
ENDBRANCH   8  21
TORSDOF 7
ENDMDL
MODEL 6
REMARK VINA RESULT:      -8.3      3.575      8.966
REMARK  Name = 
REMARK  9 active torsions:
REMARK  status: ('A' for Active; 'I' for Inactive)
REMARK    1  A    between atoms: C_1  and  C_2
REMARK    2  A    between atoms: C_2  and  C_3
REMARK    3  A    between atoms: C_2  and  N_4
REMARK    4  A    between atoms: N_4  and  S_5
REMARK    5  A    between atoms: S_5  and  C_8
REMARK    6  A    between atoms: N_15  and  N_16
REMARK    7  A    between atoms: N_16  and  C_17
REMARK    8  A    between atoms: C_22  and  C_23
REMARK    9  A    between atoms: C_23  and  O_25
REMARK                            x       y       z     vdW  Elec       q    Type
REMARK                         _______ _______ _______ _____ _____    ______ ____
ROOT
ATOM      1  C   UNL     1      -0.172  11.289  21.174  0.00  0.00    +0.000 A 
ATOM      2  C   UNL     1      -0.178  12.239  20.123  0.00  0.00    +0.000 A 
ATOM      3  C   UNL     1       0.440  11.954  18.902  0.00  0.00    +0.000 A 
ATOM      4  C   UNL     1       1.043  10.719  18.769  0.00  0.00    +0.000 A 
ATOM      5  C   UNL     1       1.041   9.784  19.808  0.00  0.00    +0.000 A 
ATOM      6  C   UNL     1       0.428  10.032  21.021  0.00  0.00    +0.000 A 
ATOM      7  C   UNL     1       1.774   8.618  19.319  0.00  0.00    +0.000 C 
ATOM      8  N   UNL     1       2.039   7.550  20.001  0.00  0.00    +0.000 NA
ATOM      9  C   UNL     1       2.166   8.948  17.879  0.00  0.00    +0.000 C 
ATOM     10  O   UNL     1       2.779   8.208  17.139  0.00  0.00    +0.000 OA
ATOM     11  N   UNL     1       1.696  10.227  17.646  0.00  0.00    +0.000 N 
ATOM     12  H   UNL     1       1.814  10.703  16.763  0.00  0.00    +0.000 HD
ENDROOT
BRANCH   1  13
ATOM     13  S   UNL     1      -0.993  11.725  22.700  0.00  0.00    +0.000 S 
ATOM     14  O   UNL     1      -0.451  12.980  23.167  0.00  0.00    +0.000 OA
ATOM     15  O   UNL     1      -0.983  10.527  23.507  0.00  0.00    +0.000 OA
BRANCH  13  16
ATOM     16  N   UNL     1      -2.585  11.972  22.189  0.00  0.00    +0.000 NA
ATOM     17  H   UNL     1      -2.696  11.896  21.180  0.00  0.00    +0.000 HD
BRANCH  16  19
ATOM     18  C   UNL     1      -4.653  13.345  22.023  0.00  0.00    +0.000 C 
ATOM     19  C   UNL     1      -3.422  13.000  22.845  0.00  0.00    +0.000 C 
ATOM     20  C   UNL     1      -3.850  12.466  24.213  0.00  0.00    +0.000 C 
ENDBRANCH  16  19
ENDBRANCH  13  16
ENDBRANCH   1  13
BRANCH   8  21
ATOM     21  N   UNL     1       2.703   6.537  19.374  0.00  0.00    +0.000 N 
ATOM     22  H   UNL     1       3.593   6.716  18.882  0.00  0.00    +0.000 HD
BRANCH  21  23
ATOM     23  C   UNL     1       2.552   5.222  19.887  0.00  0.00    +0.000 A 
ATOM     24  C   UNL     1       1.325   4.809  20.441  0.00  0.00    +0.000 A 
ATOM     25  C   UNL     1       1.126   3.499  20.892  0.00  0.00    +0.000 A 
ATOM     26  C   UNL     1       2.144   2.560  20.774  0.00  0.00    +0.000 A 
ATOM     27  C   UNL     1       3.368   2.939  20.227  0.00  0.00    +0.000 A 
ATOM     28  C   UNL     1       3.579   4.260  19.787  0.00  0.00    +0.000 A 
BRANCH  28  29
ATOM     29  C   UNL     1       4.913   4.540  19.193  0.00  0.00    +0.000 C 
ATOM     30  O   UNL     1       5.421   5.649  19.200  0.00  0.00    +0.000 OA
BRANCH  29  31
ATOM     31  O   UNL     1       5.540   3.448  18.706  0.00  0.00    +0.000 OA
ATOM     32  H   UNL     1       5.460   2.666  19.294  0.00  0.00    +0.000 HD
ENDBRANCH  29  31
ENDBRANCH  28  29
ENDBRANCH  21  23
ENDBRANCH   8  21
TORSDOF 7
ENDMDL
MODEL 7
REMARK VINA RESULT:      -8.2      3.069      7.687
REMARK  Name = 
REMARK  9 active torsions:
REMARK  status: ('A' for Active; 'I' for Inactive)
REMARK    1  A    between atoms: C_1  and  C_2
REMARK    2  A    between atoms: C_2  and  C_3
REMARK    3  A    between atoms: C_2  and  N_4
REMARK    4  A    between atoms: N_4  and  S_5
REMARK    5  A    between atoms: S_5  and  C_8
REMARK    6  A    between atoms: N_15  and  N_16
REMARK    7  A    between atoms: N_16  and  C_17
REMARK    8  A    between atoms: C_22  and  C_23
REMARK    9  A    between atoms: C_23  and  O_25
REMARK                            x       y       z     vdW  Elec       q    Type
REMARK                         _______ _______ _______ _____ _____    ______ ____
ROOT
ATOM      1  C   UNL     1       1.358   9.536  19.515  0.00  0.00    +0.000 A 
ATOM      2  C   UNL     1       0.847   9.282  20.812  0.00  0.00    +0.000 A 
ATOM      3  C   UNL     1       0.999   8.025  21.404  0.00  0.00    +0.000 A 
ATOM      4  C   UNL     1       1.667   7.059  20.678  0.00  0.00    +0.000 A 
ATOM      5  C   UNL     1       2.173   7.317  19.401  0.00  0.00    +0.000 A 
ATOM      6  C   UNL     1       2.049   8.552  18.795  0.00  0.00    +0.000 A 
ATOM      7  C   UNL     1       2.792   6.075  18.941  0.00  0.00    +0.000 C 
ATOM      8  N   UNL     1       3.334   5.884  17.781  0.00  0.00    +0.000 NA
ATOM      9  C   UNL     1       2.636   5.082  20.092  0.00  0.00    +0.000 C 
ATOM     10  O   UNL     1       3.042   3.939  20.084  0.00  0.00    +0.000 OA
ATOM     11  N   UNL     1       1.941   5.757  21.078  0.00  0.00    +0.000 N 
ATOM     12  H   UNL     1       1.698   5.337  21.964  0.00  0.00    +0.000 HD
ENDROOT
BRANCH   1  13
ATOM     13  S   UNL     1       1.132  11.172  18.832  0.00  0.00    +0.000 S 
ATOM     14  O   UNL     1       2.263  11.473  17.985  0.00  0.00    +0.000 OA
ATOM     15  O   UNL     1       0.750  12.012  19.945  0.00  0.00    +0.000 OA
BRANCH  13  16
ATOM     16  N   UNL     1      -0.238  10.968  17.865  0.00  0.00    +0.000 NA
ATOM     17  H   UNL     1      -0.274  11.618  17.083  0.00  0.00    +0.000 HD
BRANCH  16  19
ATOM     18  C   UNL     1      -2.331  11.898  18.839  0.00  0.00    +0.000 C 
ATOM     19  C   UNL     1      -1.541  10.647  18.486  0.00  0.00    +0.000 C 
ATOM     20  C   UNL     1      -2.343   9.796  17.501  0.00  0.00    +0.000 C 
ENDBRANCH  16  19
ENDBRANCH  13  16
ENDBRANCH   1  13
BRANCH   8  21
ATOM     21  N   UNL     1       3.902   4.670  17.530  0.00  0.00    +0.000 N 
ATOM     22  H   UNL     1       3.340   3.805  17.581  0.00  0.00    +0.000 HD
BRANCH  21  23
ATOM     23  C   UNL     1       5.005   4.621  16.638  0.00  0.00    +0.000 A 
ATOM     24  C   UNL     1       4.801   4.391  15.264  0.00  0.00    +0.000 A 
ATOM     25  C   UNL     1       5.861   4.405  14.351  0.00  0.00    +0.000 A 
ATOM     26  C   UNL     1       7.153   4.677  14.788  0.00  0.00    +0.000 A 
ATOM     27  C   UNL     1       7.384   4.912  16.141  0.00  0.00    +0.000 A 
ATOM     28  C   UNL     1       6.323   4.884  17.067  0.00  0.00    +0.000 A 
BRANCH  28  29
ATOM     29  C   UNL     1       6.686   5.180  18.477  0.00  0.00    +0.000 C 
ATOM     30  O   UNL     1       6.207   4.578  19.424  0.00  0.00    +0.000 OA
BRANCH  29  31
ATOM     31  O   UNL     1       7.639   6.126  18.616  0.00  0.00    +0.000 OA
ATOM     32  H   UNL     1       8.151   6.033  19.449  0.00  0.00    +0.000 HD
ENDBRANCH  29  31
ENDBRANCH  28  29
ENDBRANCH  21  23
ENDBRANCH   8  21
TORSDOF 7
ENDMDL
MODEL 8
REMARK VINA RESULT:      -8.2      2.590      3.355
REMARK  Name = 
REMARK  9 active torsions:
REMARK  status: ('A' for Active; 'I' for Inactive)
REMARK    1  A    between atoms: C_1  and  C_2
REMARK    2  A    between atoms: C_2  and  C_3
REMARK    3  A    between atoms: C_2  and  N_4
REMARK    4  A    between atoms: N_4  and  S_5
REMARK    5  A    between atoms: S_5  and  C_8
REMARK    6  A    between atoms: N_15  and  N_16
REMARK    7  A    between atoms: N_16  and  C_17
REMARK    8  A    between atoms: C_22  and  C_23
REMARK    9  A    between atoms: C_23  and  O_25
REMARK                            x       y       z     vdW  Elec       q    Type
REMARK                         _______ _______ _______ _____ _____    ______ ____
ROOT
ATOM      1  C   UNL     1       4.352   6.308  17.342  0.00  0.00    +0.000 A 
ATOM      2  C   UNL     1       4.319   5.423  18.449  0.00  0.00    +0.000 A 
ATOM      3  C   UNL     1       3.505   5.694  19.553  0.00  0.00    +0.000 A 
ATOM      4  C   UNL     1       2.742   6.844  19.511  0.00  0.00    +0.000 A 
ATOM      5  C   UNL     1       2.775   7.710  18.415  0.00  0.00    +0.000 A 
ATOM      6  C   UNL     1       3.560   7.463  17.304  0.00  0.00    +0.000 A 
ATOM      7  C   UNL     1       1.865   8.810  18.726  0.00  0.00    +0.000 C 
ATOM      8  N   UNL     1       1.652   9.850  17.984  0.00  0.00    +0.000 NA
ATOM      9  C   UNL     1       1.265   8.479  20.092  0.00  0.00    +0.000 C 
ATOM     10  O   UNL     1       0.451   9.161  20.677  0.00  0.00    +0.000 OA
ATOM     11  N   UNL     1       1.858   7.294  20.485  0.00  0.00    +0.000 N 
ATOM     12  H   UNL     1       1.644   6.835  21.359  0.00  0.00    +0.000 HD
ENDROOT
BRANCH   1  13
ATOM     13  S   UNL     1       5.410   5.885  15.966  0.00  0.00    +0.000 S 
ATOM     14  O   UNL     1       5.190   6.846  14.910  0.00  0.00    +0.000 OA
ATOM     15  O   UNL     1       5.247   4.463  15.768  0.00  0.00    +0.000 OA
BRANCH  13  16
ATOM     16  N   UNL     1       6.951   6.128  16.614  0.00  0.00    +0.000 NA
ATOM     17  H   UNL     1       7.561   5.320  16.504  0.00  0.00    +0.000 HD
BRANCH  16  19
ATOM     18  C   UNL     1       7.921   6.104  18.906  0.00  0.00    +0.000 C 
ATOM     19  C   UNL     1       7.113   6.879  17.877  0.00  0.00    +0.000 C 
ATOM     20  C   UNL     1       7.817   8.200  17.561  0.00  0.00    +0.000 C 
ENDBRANCH  16  19
ENDBRANCH  13  16
ENDBRANCH   1  13
BRANCH   8  21
ATOM     21  N   UNL     1       0.737  10.766  18.411  0.00  0.00    +0.000 N 
ATOM     22  H   UNL     1      -0.039  10.485  19.033  0.00  0.00    +0.000 HD
BRANCH  21  23
ATOM     23  C   UNL     1       1.155  12.116  18.541  0.00  0.00    +0.000 A 
ATOM     24  C   UNL     1       2.504  12.467  18.342  0.00  0.00    +0.000 A 
ATOM     25  C   UNL     1       2.932  13.798  18.396  0.00  0.00    +0.000 A 
ATOM     26  C   UNL     1       2.014  14.817  18.625  0.00  0.00    +0.000 A 
ATOM     27  C   UNL     1       0.672  14.500  18.823  0.00  0.00    +0.000 A 
ATOM     28  C   UNL     1       0.238  13.160  18.784  0.00  0.00    +0.000 A 
BRANCH  28  29
ATOM     29  C   UNL     1      -1.220  12.947  18.977  0.00  0.00    +0.000 C 
ATOM     30  O   UNL     1      -1.806  13.262  20.000  0.00  0.00    +0.000 OA
BRANCH  29  31
ATOM     31  O   UNL     1      -1.851  12.436  17.899  0.00  0.00    +0.000 OA
ATOM     32  H   UNL     1      -2.182  11.523  18.046  0.00  0.00    +0.000 HD
ENDBRANCH  29  31
ENDBRANCH  28  29
ENDBRANCH  21  23
ENDBRANCH   8  21
TORSDOF 7
ENDMDL
MODEL 9
REMARK VINA RESULT:      -8.1      2.153      2.755
REMARK  Name = 
REMARK  9 active torsions:
REMARK  status: ('A' for Active; 'I' for Inactive)
REMARK    1  A    between atoms: C_1  and  C_2
REMARK    2  A    between atoms: C_2  and  C_3
REMARK    3  A    between atoms: C_2  and  N_4
REMARK    4  A    between atoms: N_4  and  S_5
REMARK    5  A    between atoms: S_5  and  C_8
REMARK    6  A    between atoms: N_15  and  N_16
REMARK    7  A    between atoms: N_16  and  C_17
REMARK    8  A    between atoms: C_22  and  C_23
REMARK    9  A    between atoms: C_23  and  O_25
REMARK                            x       y       z     vdW  Elec       q    Type
REMARK                         _______ _______ _______ _____ _____    ______ ____
ROOT
ATOM      1  C   UNL     1       4.272   5.978  17.545  0.00  0.00    +0.000 A 
ATOM      2  C   UNL     1       4.161   5.012  18.575  0.00  0.00    +0.000 A 
ATOM      3  C   UNL     1       3.344   5.245  19.685  0.00  0.00    +0.000 A 
ATOM      4  C   UNL     1       2.656   6.441  19.726  0.00  0.00    +0.000 A 
ATOM      5  C   UNL     1       2.765   7.388  18.705  0.00  0.00    +0.000 A 
ATOM      6  C   UNL     1       3.555   7.181  17.590  0.00  0.00    +0.000 A 
ATOM      7  C   UNL     1       1.921   8.516  19.092  0.00  0.00    +0.000 C 
ATOM      8  N   UNL     1       1.788   9.624  18.434  0.00  0.00    +0.000 NA
ATOM      9  C   UNL     1       1.274   8.116  20.418  0.00  0.00    +0.000 C 
ATOM     10  O   UNL     1       0.493   8.799  21.044  0.00  0.00    +0.000 OA
ATOM     11  N   UNL     1       1.784   6.867  20.721  0.00  0.00    +0.000 N 
ATOM     12  H   UNL     1       1.524   6.355  21.551  0.00  0.00    +0.000 HD
ENDROOT
BRANCH   1  13
ATOM     13  S   UNL     1       5.328   5.600  16.154  0.00  0.00    +0.000 S 
ATOM     14  O   UNL     1       5.190   6.655  15.177  0.00  0.00    +0.000 OA
ATOM     15  O   UNL     1       5.079   4.212  15.838  0.00  0.00    +0.000 OA
BRANCH  13  16
ATOM     16  N   UNL     1       6.868   5.689  16.842  0.00  0.00    +0.000 NA
ATOM     17  H   UNL     1       7.354   4.795  16.850  0.00  0.00    +0.000 HD
BRANCH  16  19
ATOM     18  C   UNL     1       7.981   5.871  19.061  0.00  0.00    +0.000 C 
ATOM     19  C   UNL     1       7.104   6.550  18.022  0.00  0.00    +0.000 C 
ATOM     20  C   UNL     1       7.774   7.839  17.546  0.00  0.00    +0.000 C 
ENDBRANCH  16  19
ENDBRANCH  13  16
ENDBRANCH   1  13
BRANCH   8  21
ATOM     21  N   UNL     1       0.925  10.559  18.921  0.00  0.00    +0.000 N 
ATOM     22  H   UNL     1       0.151  10.287  19.549  0.00  0.00    +0.000 HD
BRANCH  21  23
ATOM     23  C   UNL     1       1.406  11.883  19.097  0.00  0.00    +0.000 A 
ATOM     24  C   UNL     1       2.342  12.428  18.198  0.00  0.00    +0.000 A 
ATOM     25  C   UNL     1       2.782  13.752  18.308  0.00  0.00    +0.000 A 
ATOM     26  C   UNL     1       2.274  14.574  19.306  0.00  0.00    +0.000 A 
ATOM     27  C   UNL     1       1.343  14.064  20.209  0.00  0.00    +0.000 A 
ATOM     28  C   UNL     1       0.909  12.728  20.113  0.00  0.00    +0.000 A 
BRANCH  28  29
ATOM     29  C   UNL     1      -0.109  12.304  21.110  0.00  0.00    +0.000 C 
ATOM     30  O   UNL     1      -1.271  12.675  21.069  0.00  0.00    +0.000 OA
BRANCH  29  31
ATOM     31  O   UNL     1       0.347  11.422  22.025  0.00  0.00    +0.000 OA
ATOM     32  H   UNL     1       0.399  10.504  21.678  0.00  0.00    +0.000 HD
ENDBRANCH  29  31
ENDBRANCH  28  29
ENDBRANCH  21  23
ENDBRANCH   8  21
TORSDOF 7
ENDMDL
