MODEL 1
REMARK VINA RESULT:      -8.6      0.000      0.000
REMARK  Name = 
REMARK  9 active torsions:
REMARK  status: ('A' for Active; 'I' for Inactive)
REMARK    1  A    between atoms: C_1  and  N_2
REMARK    2  A    between atoms: N_2  and  C_3
REMARK    3  A    between atoms: N_2  and  C_4
REMARK    4  A    between atoms: C_7  and  C_8
REMARK    5  A    between atoms: N_10  and  C_11
REMARK    6  A    between atoms: C_15  and  C_16
REMARK    7  A    between atoms: C_16  and  N_17
REMARK    8  A    between atoms: C_20  and  C_21
REMARK    9  A    between atoms: N_23  and  C_24
REMARK                            x       y       z     vdW  Elec       q    Type
REMARK                         _______ _______ _______ _____ _____    ______ ____
ROOT
ATOM      1  C   UNL     1       0.362  10.509  20.319  0.00  0.00    +0.000 A 
ATOM      2  C   UNL     1      -0.016  10.047  21.587  0.00  0.00    +0.000 A 
ATOM      3  C   UNL     1       0.359   8.785  22.052  0.00  0.00    +0.000 A 
ATOM      4  C   UNL     1       1.116   7.944  21.248  0.00  0.00    +0.000 A 
ATOM      5  C   UNL     1       1.471   8.342  19.953  0.00  0.00    +0.000 A 
ATOM      6  C   UNL     1       1.063   9.619  19.485  0.00  0.00    +0.000 A 
ENDROOT
BRANCH   1   9
ATOM      7  C   UNL     1       0.824  12.970  20.324  0.00  0.00    +0.000 C 
ATOM      8  O   UNL     1       1.768  12.884  21.112  0.00  0.00    +0.000 OA
ATOM      9  N   UNL     1       0.099  11.851  19.879  0.00  0.00    +0.000 N 
ATOM     10  H   UNL     1      -0.514  11.961  19.084  0.00  0.00    +0.000 HD
BRANCH   7  14
ATOM     11  C   UNL     1      -0.454  16.896  18.841  0.00  0.00    +0.000 A 
ATOM     12  C   UNL     1      -1.179  16.120  19.750  0.00  0.00    +0.000 A 
ATOM     13  C   UNL     1      -0.708  14.888  20.225  0.00  0.00    +0.000 A 
ATOM     14  C   UNL     1       0.520  14.347  19.818  0.00  0.00    +0.000 A 
ATOM     15  C   UNL     1       1.286  15.110  18.938  0.00  0.00    +0.000 A 
ATOM     16  C   UNL     1       0.795  16.361  18.460  0.00  0.00    +0.000 A 
BRANCH  11  18
ATOM     17  C   UNL     1      -0.469  18.595  17.047  0.00  0.00    +0.000 C 
ATOM     18  N   UNL     1      -0.990  18.074  18.315  0.00  0.00    +0.000 N 
ATOM     19  C   UNL     1      -2.351  18.486  18.640  0.00  0.00    +0.000 C 
ENDBRANCH  11  18
ENDBRANCH   7  14
ENDBRANCH   1   9
BRANCH   5  20
ATOM     20  C   UNL     1       2.422   7.465  19.155  0.00  0.00    +0.000 C 
BRANCH  20  21
ATOM     21  N   UNL     1       2.192   5.999  19.260  0.00  0.00    +0.000 NA
ATOM     22  C   UNL     1       1.875   5.445  17.936  0.00  0.00    +0.000 C 
ATOM     23  C   UNL     1       1.866   3.915  17.906  0.00  0.00    +0.000 C 
ATOM     24  C   UNL     1       3.203   3.347  18.379  0.00  0.00    +0.000 C 
ATOM     25  C   UNL     1       3.463   3.858  19.798  0.00  0.00    +0.000 C 
ATOM     26  C   UNL     1       3.387   5.389  19.879  0.00  0.00    +0.000 C 
BRANCH  24  27
ATOM     27  C   UNL     1       4.357   3.717  17.443  0.00  0.00    +0.000 C 
ATOM     28  O   UNL     1       4.259   3.704  16.220  0.00  0.00    +0.000 OA
ATOM     29  N   UNL     1       5.520   4.098  18.078  0.00  0.00    +0.000 N 
ATOM     30  H   UNL     1       5.510   4.237  19.080  0.00  0.00    +0.000 HD
BRANCH  29  31
ATOM     31  C   UNL     1       6.676   4.542  17.305  0.00  0.00    +0.000 C 
ATOM     32  C   UNL     1       6.292   5.688  16.371  0.00  0.00    +0.000 C 
ATOM     33  C   UNL     1       6.160   7.007  17.118  0.00  0.00    +0.000 C 
ATOM     34  C   UNL     1       7.499   7.379  17.736  0.00  0.00    +0.000 C 
ATOM     35  C   UNL     1       7.988   6.314  18.712  0.00  0.00    +0.000 C 
ATOM     36  C   UNL     1       7.883   4.872  18.202  0.00  0.00    +0.000 C 
ENDBRANCH  29  31
ENDBRANCH  24  27
ENDBRANCH  20  21
ENDBRANCH   5  20
TORSDOF 7
ENDMDL
MODEL 2
REMARK VINA RESULT:      -8.5      2.763      3.907
REMARK  Name = 
REMARK  9 active torsions:
REMARK  status: ('A' for Active; 'I' for Inactive)
REMARK    1  A    between atoms: C_1  and  N_2
REMARK    2  A    between atoms: N_2  and  C_3
REMARK    3  A    between atoms: N_2  and  C_4
REMARK    4  A    between atoms: C_7  and  C_8
REMARK    5  A    between atoms: N_10  and  C_11
REMARK    6  A    between atoms: C_15  and  C_16
REMARK    7  A    between atoms: C_16  and  N_17
REMARK    8  A    between atoms: C_20  and  C_21
REMARK    9  A    between atoms: N_23  and  C_24
REMARK                            x       y       z     vdW  Elec       q    Type
REMARK                         _______ _______ _______ _____ _____    ______ ____
ROOT
ATOM      1  C   UNL     1       1.292   7.795  20.322  0.00  0.00    +0.000 A 
ATOM      2  C   UNL     1       2.143   7.879  19.212  0.00  0.00    +0.000 A 
ATOM      3  C   UNL     1       3.022   6.846  18.880  0.00  0.00    +0.000 A 
ATOM      4  C   UNL     1       3.079   5.703  19.664  0.00  0.00    +0.000 A 
ATOM      5  C   UNL     1       2.286   5.598  20.813  0.00  0.00    +0.000 A 
ATOM      6  C   UNL     1       1.413   6.667  21.151  0.00  0.00    +0.000 A 
ENDROOT
BRANCH   1   9
ATOM      7  C   UNL     1       0.409   9.746  21.622  0.00  0.00    +0.000 C 
ATOM      8  O   UNL     1       1.401   9.826  22.349  0.00  0.00    +0.000 OA
ATOM      9  N   UNL     1       0.291   8.788  20.599  0.00  0.00    +0.000 N 
ATOM     10  H   UNL     1      -0.440   8.908  19.912  0.00  0.00    +0.000 HD
BRANCH   7  14
ATOM     11  C   UNL     1      -2.528  12.977  22.031  0.00  0.00    +0.000 A 
ATOM     12  C   UNL     1      -1.922  12.609  20.827  0.00  0.00    +0.000 A 
ATOM     13  C   UNL     1      -1.017  11.540  20.741  0.00  0.00    +0.000 A 
ATOM     14  C   UNL     1      -0.657  10.772  21.857  0.00  0.00    +0.000 A 
ATOM     15  C   UNL     1      -1.269  11.089  23.067  0.00  0.00    +0.000 A 
ATOM     16  C   UNL     1      -2.186  12.179  23.144  0.00  0.00    +0.000 A 
BRANCH  11  18
ATOM     17  C   UNL     1      -3.081  15.248  21.230  0.00  0.00    +0.000 C 
ATOM     18  N   UNL     1      -3.353  14.102  22.104  0.00  0.00    +0.000 N 
ATOM     19  C   UNL     1      -4.733  13.990  22.564  0.00  0.00    +0.000 C 
ENDBRANCH  11  18
ENDBRANCH   7  14
ENDBRANCH   1   9
BRANCH   5  20
ATOM     20  C   UNL     1       2.261   4.278  21.565  0.00  0.00    +0.000 C 
BRANCH  20  21
ATOM     21  N   UNL     1       2.171   3.055  20.723  0.00  0.00    +0.000 NA
ATOM     22  C   UNL     1       1.124   3.222  19.705  0.00  0.00    +0.000 C 
ATOM     23  C   UNL     1       1.129   2.121  18.644  0.00  0.00    +0.000 C 
ATOM     24  C   UNL     1       2.487   2.028  17.952  0.00  0.00    +0.000 C 
ATOM     25  C   UNL     1       3.548   1.754  19.021  0.00  0.00    +0.000 C 
ATOM     26  C   UNL     1       3.507   2.793  20.149  0.00  0.00    +0.000 C 
BRANCH  24  27
ATOM     27  C   UNL     1       2.823   3.292  17.157  0.00  0.00    +0.000 C 
ATOM     28  O   UNL     1       1.969   4.053  16.714  0.00  0.00    +0.000 OA
ATOM     29  N   UNL     1       4.171   3.535  16.995  0.00  0.00    +0.000 N 
ATOM     30  H   UNL     1       4.838   2.966  17.502  0.00  0.00    +0.000 HD
BRANCH  29  31
ATOM     31  C   UNL     1       4.632   4.743  16.316  0.00  0.00    +0.000 C 
ATOM     32  C   UNL     1       5.773   5.396  17.094  0.00  0.00    +0.000 C 
ATOM     33  C   UNL     1       7.089   4.660  16.890  0.00  0.00    +0.000 C 
ATOM     34  C   UNL     1       7.478   4.710  15.422  0.00  0.00    +0.000 C 
ATOM     35  C   UNL     1       6.420   4.066  14.533  0.00  0.00    +0.000 C 
ATOM     36  C   UNL     1       4.977   4.483  14.839  0.00  0.00    +0.000 C 
ENDBRANCH  29  31
ENDBRANCH  24  27
ENDBRANCH  20  21
ENDBRANCH   5  20
TORSDOF 7
ENDMDL
MODEL 3
REMARK VINA RESULT:      -8.5      2.723      3.560
REMARK  Name = 
REMARK  9 active torsions:
REMARK  status: ('A' for Active; 'I' for Inactive)
REMARK    1  A    between atoms: C_1  and  N_2
REMARK    2  A    between atoms: N_2  and  C_3
REMARK    3  A    between atoms: N_2  and  C_4
REMARK    4  A    between atoms: C_7  and  C_8
REMARK    5  A    between atoms: N_10  and  C_11
REMARK    6  A    between atoms: C_15  and  C_16
REMARK    7  A    between atoms: C_16  and  N_17
REMARK    8  A    between atoms: C_20  and  C_21
REMARK    9  A    between atoms: N_23  and  C_24
REMARK                            x       y       z     vdW  Elec       q    Type
REMARK                         _______ _______ _______ _____ _____    ______ ____
ROOT
ATOM      1  C   UNL     1       0.759   9.602  19.611  0.00  0.00    +0.000 A 
ATOM      2  C   UNL     1       1.330   9.862  18.358  0.00  0.00    +0.000 A 
ATOM      3  C   UNL     1       2.244   8.983  17.771  0.00  0.00    +0.000 A 
ATOM      4  C   UNL     1       2.619   7.824  18.435  0.00  0.00    +0.000 A 
ATOM      5  C   UNL     1       2.115   7.551  19.712  0.00  0.00    +0.000 A 
ATOM      6  C   UNL     1       1.204   8.464  20.306  0.00  0.00    +0.000 A 
ENDROOT
BRANCH   1   9
ATOM      7  C   UNL     1      -0.031  11.547  20.977  0.00  0.00    +0.000 C 
ATOM      8  O   UNL     1       1.107  11.931  21.255  0.00  0.00    +0.000 OA
ATOM      9  N   UNL     1      -0.280  10.425  20.167  0.00  0.00    +0.000 N 
ATOM     10  H   UNL     1      -1.214  10.291  19.808  0.00  0.00    +0.000 HD
BRANCH   7  14
ATOM     11  C   UNL     1      -3.412  13.680  22.783  0.00  0.00    +0.000 A 
ATOM     12  C   UNL     1      -2.605  12.761  23.460  0.00  0.00    +0.000 A 
ATOM     13  C   UNL     1      -1.509  12.135  22.849  0.00  0.00    +0.000 A 
ATOM     14  C   UNL     1      -1.151  12.383  21.517  0.00  0.00    +0.000 A 
ATOM     15  C   UNL     1      -1.913  13.320  20.821  0.00  0.00    +0.000 A 
ATOM     16  C   UNL     1      -3.027  13.949  21.452  0.00  0.00    +0.000 A 
BRANCH  11  18
ATOM     17  C   UNL     1      -5.676  13.333  23.712  0.00  0.00    +0.000 C 
ATOM     18  N   UNL     1      -4.550  14.217  23.389  0.00  0.00    +0.000 N 
ATOM     19  C   UNL     1      -4.467  15.431  24.193  0.00  0.00    +0.000 C 
ENDBRANCH  11  18
ENDBRANCH   7  14
ENDBRANCH   1   9
BRANCH   5  20
ATOM     20  C   UNL     1       2.426   6.206  20.348  0.00  0.00    +0.000 C 
BRANCH  20  21
ATOM     21  N   UNL     1       1.670   5.045  19.808  0.00  0.00    +0.000 NA
ATOM     22  C   UNL     1       1.706   5.061  18.339  0.00  0.00    +0.000 C 
ATOM     23  C   UNL     1       1.169   3.776  17.705  0.00  0.00    +0.000 C 
ATOM     24  C   UNL     1       1.929   2.552  18.211  0.00  0.00    +0.000 C 
ATOM     25  C   UNL     1       1.792   2.502  19.734  0.00  0.00    +0.000 C 
ATOM     26  C   UNL     1       2.239   3.813  20.394  0.00  0.00    +0.000 C 
BRANCH  24  27
ATOM     27  C   UNL     1       3.402   2.568  17.793  0.00  0.00    +0.000 C 
ATOM     28  O   UNL     1       4.112   1.568  17.799  0.00  0.00    +0.000 OA
ATOM     29  N   UNL     1       3.873   3.795  17.375  0.00  0.00    +0.000 N 
ATOM     30  H   UNL     1       3.218   4.555  17.244  0.00  0.00    +0.000 HD
BRANCH  29  31
ATOM     31  C   UNL     1       5.241   3.937  16.884  0.00  0.00    +0.000 C 
ATOM     32  C   UNL     1       5.279   4.840  15.652  0.00  0.00    +0.000 C 
ATOM     33  C   UNL     1       5.156   6.310  16.026  0.00  0.00    +0.000 C 
ATOM     34  C   UNL     1       6.332   6.714  16.899  0.00  0.00    +0.000 C 
ATOM     35  C   UNL     1       6.394   5.891  18.182  0.00  0.00    +0.000 C 
ATOM     36  C   UNL     1       6.213   4.381  17.991  0.00  0.00    +0.000 C 
ENDBRANCH  29  31
ENDBRANCH  24  27
ENDBRANCH  20  21
ENDBRANCH   5  20
TORSDOF 7
ENDMDL
MODEL 4
REMARK VINA RESULT:      -8.4      3.046      4.029
REMARK  Name = 
REMARK  9 active torsions:
REMARK  status: ('A' for Active; 'I' for Inactive)
REMARK    1  A    between atoms: C_1  and  N_2
REMARK    2  A    between atoms: N_2  and  C_3
REMARK    3  A    between atoms: N_2  and  C_4
REMARK    4  A    between atoms: C_7  and  C_8
REMARK    5  A    between atoms: N_10  and  C_11
REMARK    6  A    between atoms: C_15  and  C_16
REMARK    7  A    between atoms: C_16  and  N_17
REMARK    8  A    between atoms: C_20  and  C_21
REMARK    9  A    between atoms: N_23  and  C_24
REMARK                            x       y       z     vdW  Elec       q    Type
REMARK                         _______ _______ _______ _____ _____    ______ ____
ROOT
ATOM      1  C   UNL     1       1.120   8.035  20.400  0.00  0.00    +0.000 A 
ATOM      2  C   UNL     1       1.958   8.106  19.279  0.00  0.00    +0.000 A 
ATOM      3  C   UNL     1       2.827   7.065  18.943  0.00  0.00    +0.000 A 
ATOM      4  C   UNL     1       2.888   5.927  19.734  0.00  0.00    +0.000 A 
ATOM      5  C   UNL     1       2.108   5.835  20.894  0.00  0.00    +0.000 A 
ATOM      6  C   UNL     1       1.246   6.911  21.236  0.00  0.00    +0.000 A 
ENDROOT
BRANCH   1   9
ATOM      7  C   UNL     1       0.340  10.109  21.567  0.00  0.00    +0.000 C 
ATOM      8  O   UNL     1       1.409  10.293  22.151  0.00  0.00    +0.000 OA
ATOM      9  N   UNL     1       0.129   9.035  20.684  0.00  0.00    +0.000 N 
ATOM     10  H   UNL     1      -0.683   9.060  20.084  0.00  0.00    +0.000 HD
BRANCH   7  14
ATOM     11  C   UNL     1      -2.967  12.837  22.498  0.00  0.00    +0.000 A 
ATOM     12  C   UNL     1      -2.476  11.863  23.372  0.00  0.00    +0.000 A 
ATOM     13  C   UNL     1      -1.389  11.041  23.042  0.00  0.00    +0.000 A 
ATOM     14  C   UNL     1      -0.723  11.137  21.812  0.00  0.00    +0.000 A 
ATOM     15  C   UNL     1      -1.163  12.121  20.930  0.00  0.00    +0.000 A 
ATOM     16  C   UNL     1      -2.271  12.950  21.275  0.00  0.00    +0.000 A 
BRANCH  11  18
ATOM     17  C   UNL     1      -4.889  13.215  24.004  0.00  0.00    +0.000 C 
ATOM     18  N   UNL     1      -4.108  13.577  22.816  0.00  0.00    +0.000 N 
ATOM     19  C   UNL     1      -4.243  14.965  22.388  0.00  0.00    +0.000 C 
ENDBRANCH  11  18
ENDBRANCH   7  14
ENDBRANCH   1   9
BRANCH   5  20
ATOM     20  C   UNL     1       2.085   4.521  21.656  0.00  0.00    +0.000 C 
BRANCH  20  21
ATOM     21  N   UNL     1       1.910   3.297  20.828  0.00  0.00    +0.000 NA
ATOM     22  C   UNL     1       0.883   3.527  19.803  0.00  0.00    +0.000 C 
ATOM     23  C   UNL     1       0.812   2.414  18.755  0.00  0.00    +0.000 C 
ATOM     24  C   UNL     1       2.164   2.214  18.072  0.00  0.00    +0.000 C 
ATOM     25  C   UNL     1       3.197   1.877  19.150  0.00  0.00    +0.000 C 
ATOM     26  C   UNL     1       3.227   2.931  20.265  0.00  0.00    +0.000 C 
BRANCH  24  27
ATOM     27  C   UNL     1       2.595   3.439  17.263  0.00  0.00    +0.000 C 
ATOM     28  O   UNL     1       1.801   4.262  16.817  0.00  0.00    +0.000 OA
ATOM     29  N   UNL     1       3.957   3.573  17.092  0.00  0.00    +0.000 N 
ATOM     30  H   UNL     1       4.579   2.957  17.601  0.00  0.00    +0.000 HD
BRANCH  29  31
ATOM     31  C   UNL     1       4.508   4.733  16.399  0.00  0.00    +0.000 C 
ATOM     32  C   UNL     1       5.507   5.469  17.291  0.00  0.00    +0.000 C 
ATOM     33  C   UNL     1       6.845   4.747  17.355  0.00  0.00    +0.000 C 
ATOM     34  C   UNL     1       7.460   4.691  15.966  0.00  0.00    +0.000 C 
ATOM     35  C   UNL     1       6.560   3.958  14.977  0.00  0.00    +0.000 C 
ATOM     36  C   UNL     1       5.084   4.367  15.020  0.00  0.00    +0.000 C 
ENDBRANCH  29  31
ENDBRANCH  24  27
ENDBRANCH  20  21
ENDBRANCH   5  20
TORSDOF 7
ENDMDL
MODEL 5
REMARK VINA RESULT:      -8.4      2.844      3.560
REMARK  Name = 
REMARK  9 active torsions:
REMARK  status: ('A' for Active; 'I' for Inactive)
REMARK    1  A    between atoms: C_1  and  N_2
REMARK    2  A    between atoms: N_2  and  C_3
REMARK    3  A    between atoms: N_2  and  C_4
REMARK    4  A    between atoms: C_7  and  C_8
REMARK    5  A    between atoms: N_10  and  C_11
REMARK    6  A    between atoms: C_15  and  C_16
REMARK    7  A    between atoms: C_16  and  N_17
REMARK    8  A    between atoms: C_20  and  C_21
REMARK    9  A    between atoms: N_23  and  C_24
REMARK                            x       y       z     vdW  Elec       q    Type
REMARK                         _______ _______ _______ _____ _____    ______ ____
ROOT
ATOM      1  C   UNL     1       0.774   9.530  19.911  0.00  0.00    +0.000 A 
ATOM      2  C   UNL     1       1.168   9.756  18.585  0.00  0.00    +0.000 A 
ATOM      3  C   UNL     1       1.974   8.848  17.894  0.00  0.00    +0.000 A 
ATOM      4  C   UNL     1       2.418   7.693  18.521  0.00  0.00    +0.000 A 
ATOM      5  C   UNL     1       2.093   7.453  19.862  0.00  0.00    +0.000 A 
ATOM      6  C   UNL     1       1.291   8.396  20.560  0.00  0.00    +0.000 A 
ENDROOT
BRANCH   1   9
ATOM      7  C   UNL     1       0.221  11.508  21.345  0.00  0.00    +0.000 C 
ATOM      8  O   UNL     1       1.395  11.866  21.462  0.00  0.00    +0.000 OA
ATOM      9  N   UNL     1      -0.161  10.384  20.590  0.00  0.00    +0.000 N 
ATOM     10  H   UNL     1      -1.138  10.269  20.362  0.00  0.00    +0.000 HD
BRANCH   7  14
ATOM     11  C   UNL     1      -2.453  14.226  23.514  0.00  0.00    +0.000 A 
ATOM     12  C   UNL     1      -1.171  14.565  23.071  0.00  0.00    +0.000 A 
ATOM     13  C   UNL     1      -0.370  13.672  22.345  0.00  0.00    +0.000 A 
ATOM     14  C   UNL     1      -0.797  12.377  22.018  0.00  0.00    +0.000 A 
ATOM     15  C   UNL     1      -2.083  12.017  22.414  0.00  0.00    +0.000 A 
ATOM     16  C   UNL     1      -2.889  12.932  23.154  0.00  0.00    +0.000 A 
BRANCH  11  18
ATOM     17  C   UNL     1      -4.642  15.198  24.122  0.00  0.00    +0.000 C 
ATOM     18  N   UNL     1      -3.191  15.102  24.314  0.00  0.00    +0.000 N 
ATOM     19  C   UNL     1      -2.716  15.486  25.638  0.00  0.00    +0.000 C 
ENDBRANCH  11  18
ENDBRANCH   7  14
ENDBRANCH   1   9
BRANCH   5  20
ATOM     20  C   UNL     1       2.466   6.114  20.476  0.00  0.00    +0.000 C 
BRANCH  20  21
ATOM     21  N   UNL     1       1.705   4.938  19.974  0.00  0.00    +0.000 NA
ATOM     22  C   UNL     1       1.694   4.937  18.504  0.00  0.00    +0.000 C 
ATOM     23  C   UNL     1       1.149   3.639  17.903  0.00  0.00    +0.000 C 
ATOM     24  C   UNL     1       1.938   2.429  18.398  0.00  0.00    +0.000 C 
ATOM     25  C   UNL     1       1.851   2.396  19.926  0.00  0.00    +0.000 C 
ATOM     26  C   UNL     1       2.305   3.720  20.556  0.00  0.00    +0.000 C 
BRANCH  24  27
ATOM     27  C   UNL     1       3.396   2.454  17.933  0.00  0.00    +0.000 C 
ATOM     28  O   UNL     1       4.074   1.441  17.793  0.00  0.00    +0.000 OA
ATOM     29  N   UNL     1       3.893   3.709  17.650  0.00  0.00    +0.000 N 
ATOM     30  H   UNL     1       3.259   4.498  17.635  0.00  0.00    +0.000 HD
BRANCH  29  31
ATOM     31  C   UNL     1       5.248   3.871  17.130  0.00  0.00    +0.000 C 
ATOM     32  C   UNL     1       5.234   4.677  15.832  0.00  0.00    +0.000 C 
ATOM     33  C   UNL     1       5.050   6.165  16.093  0.00  0.00    +0.000 C 
ATOM     34  C   UNL     1       6.216   6.686  16.917  0.00  0.00    +0.000 C 
ATOM     35  C   UNL     1       6.328   5.968  18.258  0.00  0.00    +0.000 C 
ATOM     36  C   UNL     1       6.212   4.441  18.186  0.00  0.00    +0.000 C 
ENDBRANCH  29  31
ENDBRANCH  24  27
ENDBRANCH  20  21
ENDBRANCH   5  20
TORSDOF 7
ENDMDL
MODEL 6
REMARK VINA RESULT:      -8.2      4.542     11.302
REMARK  Name = 
REMARK  9 active torsions:
REMARK  status: ('A' for Active; 'I' for Inactive)
REMARK    1  A    between atoms: C_1  and  N_2
REMARK    2  A    between atoms: N_2  and  C_3
REMARK    3  A    between atoms: N_2  and  C_4
REMARK    4  A    between atoms: C_7  and  C_8
REMARK    5  A    between atoms: N_10  and  C_11
REMARK    6  A    between atoms: C_15  and  C_16
REMARK    7  A    between atoms: C_16  and  N_17
REMARK    8  A    between atoms: C_20  and  C_21
REMARK    9  A    between atoms: N_23  and  C_24
REMARK                            x       y       z     vdW  Elec       q    Type
REMARK                         _______ _______ _______ _____ _____    ______ ____
ROOT
ATOM      1  C   UNL     1      -0.639  10.344  18.981  0.00  0.00    +0.000 A 
ATOM      2  C   UNL     1      -0.762  11.331  19.968  0.00  0.00    +0.000 A 
ATOM      3  C   UNL     1      -1.737  12.329  19.891  0.00  0.00    +0.000 A 
ATOM      4  C   UNL     1      -2.608  12.370  18.812  0.00  0.00    +0.000 A 
ATOM      5  C   UNL     1      -2.487  11.436  17.776  0.00  0.00    +0.000 A 
ATOM      6  C   UNL     1      -1.476  10.441  17.855  0.00  0.00    +0.000 A 
ENDROOT
BRANCH   1   9
ATOM      7  C   UNL     1       1.444   9.103  18.352  0.00  0.00    +0.000 C 
ATOM      8  O   UNL     1       1.806   9.946  17.528  0.00  0.00    +0.000 OA
ATOM      9  N   UNL     1       0.267   9.237  19.111  0.00  0.00    +0.000 N 
ATOM     10  H   UNL     1       0.138   8.628  19.907  0.00  0.00    +0.000 HD
BRANCH   7  14
ATOM     11  C   UNL     1       4.137   5.644  18.504  0.00  0.00    +0.000 A 
ATOM     12  C   UNL     1       4.146   6.609  17.492  0.00  0.00    +0.000 A 
ATOM     13  C   UNL     1       3.290   7.720  17.510  0.00  0.00    +0.000 A 
ATOM     14  C   UNL     1       2.365   7.937  18.541  0.00  0.00    +0.000 A 
ATOM     15  C   UNL     1       2.353   7.014  19.584  0.00  0.00    +0.000 A 
ATOM     16  C   UNL     1       3.226   5.886  19.555  0.00  0.00    +0.000 A 
BRANCH  11  18
ATOM     17  C   UNL     1       4.343   3.250  17.928  0.00  0.00    +0.000 C 
ATOM     18  N   UNL     1       4.935   4.502  18.413  0.00  0.00    +0.000 N 
ATOM     19  C   UNL     1       6.379   4.610  18.237  0.00  0.00    +0.000 C 
ENDBRANCH  11  18
ENDBRANCH   7  14
ENDBRANCH   1   9
BRANCH   5  20
ATOM     20  C   UNL     1      -3.544  11.414  16.685  0.00  0.00    +0.000 C 
BRANCH  20  21
ATOM     21  N   UNL     1      -4.940  11.177  17.143  0.00  0.00    +0.000 NA
ATOM     22  C   UNL     1      -4.939  10.712  18.537  0.00  0.00    +0.000 C 
ATOM     23  C   UNL     1      -6.333  10.680  19.166  0.00  0.00    +0.000 C 
ATOM     24  C   UNL     1      -7.000  12.052  19.097  0.00  0.00    +0.000 C 
ATOM     25  C   UNL     1      -7.080  12.470  17.627  0.00  0.00    +0.000 C 
ATOM     26  C   UNL     1      -5.707  12.424  16.942  0.00  0.00    +0.000 C 
BRANCH  24  27
ATOM     27  C   UNL     1      -6.258  13.103  19.927  0.00  0.00    +0.000 C 
ATOM     28  O   UNL     1      -6.027  14.238  19.522  0.00  0.00    +0.000 OA
ATOM     29  N   UNL     1      -5.886  12.689  21.188  0.00  0.00    +0.000 N 
ATOM     30  H   UNL     1      -6.226  11.801  21.535  0.00  0.00    +0.000 HD
BRANCH  29  31
ATOM     31  C   UNL     1      -5.232  13.613  22.110  0.00  0.00    +0.000 C 
ATOM     32  C   UNL     1      -6.055  13.772  23.387  0.00  0.00    +0.000 C 
ATOM     33  C   UNL     1      -5.894  12.577  24.316  0.00  0.00    +0.000 C 
ATOM     34  C   UNL     1      -4.441  12.457  24.746  0.00  0.00    +0.000 C 
ATOM     35  C   UNL     1      -3.511  12.273  23.552  0.00  0.00    +0.000 C 
ATOM     36  C   UNL     1      -3.766  13.226  22.379  0.00  0.00    +0.000 C 
ENDBRANCH  29  31
ENDBRANCH  24  27
ENDBRANCH  20  21
ENDBRANCH   5  20
TORSDOF 7
ENDMDL
MODEL 7
REMARK VINA RESULT:      -8.1      1.085      1.427
REMARK  Name = 
REMARK  9 active torsions:
REMARK  status: ('A' for Active; 'I' for Inactive)
REMARK    1  A    between atoms: C_1  and  N_2
REMARK    2  A    between atoms: N_2  and  C_3
REMARK    3  A    between atoms: N_2  and  C_4
REMARK    4  A    between atoms: C_7  and  C_8
REMARK    5  A    between atoms: N_10  and  C_11
REMARK    6  A    between atoms: C_15  and  C_16
REMARK    7  A    between atoms: C_16  and  N_17
REMARK    8  A    between atoms: C_20  and  C_21
REMARK    9  A    between atoms: N_23  and  C_24
REMARK                            x       y       z     vdW  Elec       q    Type
REMARK                         _______ _______ _______ _____ _____    ______ ____
ROOT
ATOM      1  C   UNL     1       0.564   9.701  20.017  0.00  0.00    +0.000 A 
ATOM      2  C   UNL     1      -0.226   9.240  21.078  0.00  0.00    +0.000 A 
ATOM      3  C   UNL     1      -0.023   7.983  21.654  0.00  0.00    +0.000 A 
ATOM      4  C   UNL     1       0.973   7.149  21.170  0.00  0.00    +0.000 A 
ATOM      5  C   UNL     1       1.753   7.546  20.076  0.00  0.00    +0.000 A 
ATOM      6  C   UNL     1       1.520   8.817  19.486  0.00  0.00    +0.000 A 
ENDROOT
BRANCH   1   9
ATOM      7  C   UNL     1       0.947  12.171  20.176  0.00  0.00    +0.000 C 
ATOM      8  O   UNL     1       1.536  12.102  21.257  0.00  0.00    +0.000 OA
ATOM      9  N   UNL     1       0.457  11.038  19.503  0.00  0.00    +0.000 N 
ATOM     10  H   UNL     1       0.177  11.138  18.537  0.00  0.00    +0.000 HD
BRANCH   7  14
ATOM     11  C   UNL     1       0.880  16.302  18.703  0.00  0.00    +0.000 A 
ATOM     12  C   UNL     1       2.032  15.631  19.123  0.00  0.00    +0.000 A 
ATOM     13  C   UNL     1       2.007  14.295  19.548  0.00  0.00    +0.000 A 
ATOM     14  C   UNL     1       0.825  13.543  19.585  0.00  0.00    +0.000 A 
ATOM     15  C   UNL     1      -0.338  14.169  19.141  0.00  0.00    +0.000 A 
ATOM     16  C   UNL     1      -0.301  15.529  18.713  0.00  0.00    +0.000 A 
BRANCH  11  18
ATOM     17  C   UNL     1       1.353  18.630  19.383  0.00  0.00    +0.000 C 
ATOM     18  N   UNL     1       0.919  17.659  18.373  0.00  0.00    +0.000 N 
ATOM     19  C   UNL     1       1.092  18.088  16.990  0.00  0.00    +0.000 C 
ENDBRANCH  11  18
ENDBRANCH   7  14
ENDBRANCH   1   9
BRANCH   5  20
ATOM     20  C   UNL     1       2.931   6.679  19.665  0.00  0.00    +0.000 C 
BRANCH  20  21
ATOM     21  N   UNL     1       2.603   5.274  19.301  0.00  0.00    +0.000 NA
ATOM     22  C   UNL     1       2.306   5.183  17.865  0.00  0.00    +0.000 C 
ATOM     23  C   UNL     1       2.201   3.744  17.357  0.00  0.00    +0.000 C 
ATOM     24  C   UNL     1       3.478   2.961  17.654  0.00  0.00    +0.000 C 
ATOM     25  C   UNL     1       3.711   2.984  19.166  0.00  0.00    +0.000 C 
ATOM     26  C   UNL     1       3.730   4.415  19.721  0.00  0.00    +0.000 C 
BRANCH  24  27
ATOM     27  C   UNL     1       4.690   3.517  16.903  0.00  0.00    +0.000 C 
ATOM     28  O   UNL     1       4.722   3.649  15.683  0.00  0.00    +0.000 OA
ATOM     29  N   UNL     1       5.748   3.891  17.705  0.00  0.00    +0.000 N 
ATOM     30  H   UNL     1       5.623   3.905  18.709  0.00  0.00    +0.000 HD
BRANCH  29  31
ATOM     31  C   UNL     1       6.941   4.501  17.124  0.00  0.00    +0.000 C 
ATOM     32  C   UNL     1       6.564   5.706  16.264  0.00  0.00    +0.000 C 
ATOM     33  C   UNL     1       6.233   6.925  17.112  0.00  0.00    +0.000 C 
ATOM     34  C   UNL     1       7.456   7.331  17.920  0.00  0.00    +0.000 C 
ATOM     35  C   UNL     1       7.923   6.210  18.842  0.00  0.00    +0.000 C 
ATOM     36  C   UNL     1       8.004   4.826  18.188  0.00  0.00    +0.000 C 
ENDBRANCH  29  31
ENDBRANCH  24  27
ENDBRANCH  20  21
ENDBRANCH   5  20
TORSDOF 7
ENDMDL
MODEL 8
REMARK VINA RESULT:      -8.1      3.570      4.060
REMARK  Name = 
REMARK  9 active torsions:
REMARK  status: ('A' for Active; 'I' for Inactive)
REMARK    1  A    between atoms: C_1  and  N_2
REMARK    2  A    between atoms: N_2  and  C_3
REMARK    3  A    between atoms: N_2  and  C_4
REMARK    4  A    between atoms: C_7  and  C_8
REMARK    5  A    between atoms: N_10  and  C_11
REMARK    6  A    between atoms: C_15  and  C_16
REMARK    7  A    between atoms: C_16  and  N_17
REMARK    8  A    between atoms: C_20  and  C_21
REMARK    9  A    between atoms: N_23  and  C_24
REMARK                            x       y       z     vdW  Elec       q    Type
REMARK                         _______ _______ _______ _____ _____    ______ ____
ROOT
ATOM      1  C   UNL     1       0.319   9.612  18.963  0.00  0.00    +0.000 A 
ATOM      2  C   UNL     1       1.179   9.715  17.862  0.00  0.00    +0.000 A 
ATOM      3  C   UNL     1       2.301   8.894  17.727  0.00  0.00    +0.000 A 
ATOM      4  C   UNL     1       2.598   7.954  18.703  0.00  0.00    +0.000 A 
ATOM      5  C   UNL     1       1.797   7.852  19.847  0.00  0.00    +0.000 A 
ATOM      6  C   UNL     1       0.672   8.709  19.982  0.00  0.00    +0.000 A 
ENDROOT
BRANCH   1   9
ATOM      7  C   UNL     1      -1.908  10.321  18.065  0.00  0.00    +0.000 C 
ATOM      8  O   UNL     1      -1.822   9.628  17.049  0.00  0.00    +0.000 OA
ATOM      9  N   UNL     1      -0.908  10.353  19.052  0.00  0.00    +0.000 N 
ATOM     10  H   UNL     1      -1.130  10.769  19.946  0.00  0.00    +0.000 HD
BRANCH   7  14
ATOM     11  C   UNL     1      -5.606  12.680  18.114  0.00  0.00    +0.000 A 
ATOM     12  C   UNL     1      -5.205  11.862  17.054  0.00  0.00    +0.000 A 
ATOM     13  C   UNL     1      -4.032  11.095  17.103  0.00  0.00    +0.000 A 
ATOM     14  C   UNL     1      -3.180  11.100  18.216  0.00  0.00    +0.000 A 
ATOM     15  C   UNL     1      -3.567  11.877  19.306  0.00  0.00    +0.000 A 
ATOM     16  C   UNL     1      -4.761  12.655  19.244  0.00  0.00    +0.000 A 
BRANCH  11  18
ATOM     17  C   UNL     1      -7.290  14.122  19.205  0.00  0.00    +0.000 C 
ATOM     18  N   UNL     1      -6.730  13.502  18.000  0.00  0.00    +0.000 N 
ATOM     19  C   UNL     1      -7.022  14.201  16.753  0.00  0.00    +0.000 C 
ENDBRANCH  11  18
ENDBRANCH   7  14
ENDBRANCH   1   9
BRANCH   5  20
ATOM     20  C   UNL     1       2.058   6.718  20.823  0.00  0.00    +0.000 C 
BRANCH  20  21
ATOM     21  N   UNL     1       1.564   5.378  20.405  0.00  0.00    +0.000 NA
ATOM     22  C   UNL     1       1.719   5.216  18.953  0.00  0.00    +0.000 C 
ATOM     23  C   UNL     1       1.468   3.786  18.472  0.00  0.00    +0.000 C 
ATOM     24  C   UNL     1       2.386   2.795  19.187  0.00  0.00    +0.000 C 
ATOM     25  C   UNL     1       2.133   2.912  20.692  0.00  0.00    +0.000 C 
ATOM     26  C   UNL     1       2.288   4.356  21.189  0.00  0.00    +0.000 C 
BRANCH  24  27
ATOM     27  C   UNL     1       3.862   3.029  18.858  0.00  0.00    +0.000 C 
ATOM     28  O   UNL     1       4.780   2.615  19.560  0.00  0.00    +0.000 OA
ATOM     29  N   UNL     1       4.094   3.722  17.689  0.00  0.00    +0.000 N 
ATOM     30  H   UNL     1       3.318   3.913  17.068  0.00  0.00    +0.000 HD
BRANCH  29  31
ATOM     31  C   UNL     1       5.458   3.954  17.221  0.00  0.00    +0.000 C 
ATOM     32  C   UNL     1       5.449   4.636  15.854  0.00  0.00    +0.000 C 
ATOM     33  C   UNL     1       5.129   6.119  15.965  0.00  0.00    +0.000 C 
ATOM     34  C   UNL     1       6.201   6.812  16.790  0.00  0.00    +0.000 C 
ATOM     35  C   UNL     1       6.297   6.230  18.197  0.00  0.00    +0.000 C 
ATOM     36  C   UNL     1       6.311   4.698  18.263  0.00  0.00    +0.000 C 
ENDBRANCH  29  31
ENDBRANCH  24  27
ENDBRANCH  20  21
ENDBRANCH   5  20
TORSDOF 7
ENDMDL
MODEL 9
REMARK VINA RESULT:      -8.0      4.269      8.256
REMARK  Name = 
REMARK  9 active torsions:
REMARK  status: ('A' for Active; 'I' for Inactive)
REMARK    1  A    between atoms: C_1  and  N_2
REMARK    2  A    between atoms: N_2  and  C_3
REMARK    3  A    between atoms: N_2  and  C_4
REMARK    4  A    between atoms: C_7  and  C_8
REMARK    5  A    between atoms: N_10  and  C_11
REMARK    6  A    between atoms: C_15  and  C_16
REMARK    7  A    between atoms: C_16  and  N_17
REMARK    8  A    between atoms: C_20  and  C_21
REMARK    9  A    between atoms: N_23  and  C_24
REMARK                            x       y       z     vdW  Elec       q    Type
REMARK                         _______ _______ _______ _____ _____    ______ ____
ROOT
ATOM      1  C   UNL     1       6.384   6.381  16.861  0.00  0.00    +0.000 A 
ATOM      2  C   UNL     1       6.066   5.890  15.588  0.00  0.00    +0.000 A 
ATOM      3  C   UNL     1       5.461   4.643  15.411  0.00  0.00    +0.000 A 
ATOM      4  C   UNL     1       5.171   3.848  16.511  0.00  0.00    +0.000 A 
ATOM      5  C   UNL     1       5.520   4.275  17.798  0.00  0.00    +0.000 A 
ATOM      6  C   UNL     1       6.155   5.535  17.961  0.00  0.00    +0.000 A 
ENDROOT
BRANCH   1   9
ATOM      7  C   UNL     1       7.883   8.030  18.003  0.00  0.00    +0.000 C 
ATOM      8  O   UNL     1       8.436   7.180  18.704  0.00  0.00    +0.000 OA
ATOM      9  N   UNL     1       6.882   7.712  17.069  0.00  0.00    +0.000 N 
ATOM     10  H   UNL     1       6.624   8.411  16.386  0.00  0.00    +0.000 HD
BRANCH   7  14
ATOM     11  C   UNL     1       9.348  12.071  18.878  0.00  0.00    +0.000 A 
ATOM     12  C   UNL     1       9.722  10.925  19.585  0.00  0.00    +0.000 A 
ATOM     13  C   UNL     1       9.256   9.648  19.240  0.00  0.00    +0.000 A 
ATOM     14  C   UNL     1       8.381   9.434  18.166  0.00  0.00    +0.000 A 
ATOM     15  C   UNL     1       8.015  10.550  17.417  0.00  0.00    +0.000 A 
ATOM     16  C   UNL     1       8.492  11.844  17.778  0.00  0.00    +0.000 A 
BRANCH  11  18
ATOM     17  C   UNL     1       9.287  13.847  20.595  0.00  0.00    +0.000 C 
ATOM     18  N   UNL     1       9.754  13.339  19.300  0.00  0.00    +0.000 N 
ATOM     19  C   UNL     1      11.001  13.924  18.821  0.00  0.00    +0.000 C 
ENDBRANCH  11  18
ENDBRANCH   7  14
ENDBRANCH   1   9
BRANCH   5  20
ATOM     20  C   UNL     1       5.057   3.454  18.990  0.00  0.00    +0.000 C 
BRANCH  20  21
ATOM     21  N   UNL     1       3.587   3.413  19.215  0.00  0.00    +0.000 NA
ATOM     22  C   UNL     1       3.280   3.805  20.598  0.00  0.00    +0.000 C 
ATOM     23  C   UNL     1       1.787   4.029  20.846  0.00  0.00    +0.000 C 
ATOM     24  C   UNL     1       1.221   5.078  19.891  0.00  0.00    +0.000 C 
ATOM     25  C   UNL     1       1.464   4.599  18.459  0.00  0.00    +0.000 C 
ATOM     26  C   UNL     1       2.944   4.278  18.205  0.00  0.00    +0.000 C 
BRANCH  24  27
ATOM     27  C   UNL     1       1.833   6.463  20.119  0.00  0.00    +0.000 C 
ATOM     28  O   UNL     1       2.894   6.819  19.616  0.00  0.00    +0.000 OA
ATOM     29  N   UNL     1       1.086   7.304  20.916  0.00  0.00    +0.000 N 
ATOM     30  H   UNL     1       0.151   7.024  21.187  0.00  0.00    +0.000 HD
BRANCH  29  31
ATOM     31  C   UNL     1       1.520   8.677  21.159  0.00  0.00    +0.000 C 
ATOM     32  C   UNL     1       0.925   9.621  20.116  0.00  0.00    +0.000 C 
ATOM     33  C   UNL     1      -0.538   9.929  20.402  0.00  0.00    +0.000 C 
ATOM     34  C   UNL     1      -0.659  10.630  21.745  0.00  0.00    +0.000 C 
ATOM     35  C   UNL     1      -0.112   9.774  22.882  0.00  0.00    +0.000 C 
ATOM     36  C   UNL     1       1.249   9.125  22.606  0.00  0.00    +0.000 C 
ENDBRANCH  29  31
ENDBRANCH  24  27
ENDBRANCH  20  21
ENDBRANCH   5  20
TORSDOF 7
ENDMDL
