MODEL 1
REMARK VINA RESULT:      -7.3      0.000      0.000
REMARK  Name = 
REMARK  15 active torsions:
REMARK  status: ('A' for Active; 'I' for Inactive)
REMARK    1  A    between atoms: C_1  and  O_2
REMARK    2  A    between atoms: O_2  and  C_3
REMARK    3  A    between atoms: C_6  and  C_7
REMARK    4  A    between atoms: C_9  and  C_10
REMARK    5  A    between atoms: N_14  and  C_15
REMARK    6  A    between atoms: C_15  and  C_16
REMARK    7  A    between atoms: C_16  and  C_17
REMARK    8  A    between atoms: C_17  and  O_18
REMARK    9  A    between atoms: C_17  and  C_19
REMARK   10  A    between atoms: C_19  and  C_20
REMARK   11  A    between atoms: C_20  and  O_21
REMARK   12  A    between atoms: C_20  and  C_22
REMARK   13  A    between atoms: C_22  and  C_23
REMARK   14  A    between atoms: C_23  and  O_25
REMARK   15  A    between atoms: C_26  and  C_27
REMARK                            x       y       z     vdW  Elec       q    Type
REMARK                         _______ _______ _______ _____ _____    ______ ____
ROOT
ATOM      1  C   UNL     1       3.301   7.420  18.163  0.00  0.00    +0.000 A 
ATOM      2  N   UNL     1       3.094   8.731  17.817  0.00  0.00    +0.000 NA
ATOM      3  C   UNL     1       2.098   9.169  18.568  0.00  0.00    +0.000 A 
ATOM      4  N   UNL     1       1.667   8.165  19.425  0.00  0.00    +0.000 N 
ATOM      5  C   UNL     1       2.388   7.002  19.143  0.00  0.00    +0.000 A 
ENDROOT
BRANCH   5   6
ATOM      6  C   UNL     1       2.131   5.648  19.688  0.00  0.00    +0.000 A 
ATOM      7  C   UNL     1       1.626   4.630  18.855  0.00  0.00    +0.000 A 
ATOM      8  C   UNL     1       1.451   3.322  19.319  0.00  0.00    +0.000 A 
ATOM      9  C   UNL     1       1.698   3.035  20.650  0.00  0.00    +0.000 A 
ATOM     10  F   UNL     1       1.496   1.795  21.113  0.00  0.00    +0.000 F 
ATOM     11  C   UNL     1       2.171   4.019  21.507  0.00  0.00    +0.000 A 
ATOM     12  C   UNL     1       2.429   5.303  21.014  0.00  0.00    +0.000 A 
ENDBRANCH   5   6
BRANCH   1  16
ATOM     13  C   UNL     1       6.448   5.293  16.201  0.00  0.00    +0.000 A 
ATOM     14  C   UNL     1       5.523   6.023  15.454  0.00  0.00    +0.000 A 
ATOM     15  C   UNL     1       4.436   6.647  16.076  0.00  0.00    +0.000 A 
ATOM     16  C   UNL     1       4.288   6.595  17.467  0.00  0.00    +0.000 A 
ATOM     17  C   UNL     1       5.169   5.787  18.199  0.00  0.00    +0.000 A 
ATOM     18  C   UNL     1       6.242   5.138  17.571  0.00  0.00    +0.000 A 
BRANCH  13  20
ATOM     19  C   UNL     1       7.382   4.873  14.062  0.00  0.00    +0.000 C 
ATOM     20  O   UNL     1       7.483   4.766  15.478  0.00  0.00    +0.000 OA
ENDBRANCH  13  20
ENDBRANCH   1  16
BRANCH   3  21
ATOM     21  C   UNL     1       1.469  10.532  18.521  0.00  0.00    +0.000 C 
ATOM     22  F   UNL     1       0.162  10.508  18.159  0.00  0.00    +0.000 F 
ATOM     23  F   UNL     1       1.525  11.160  19.726  0.00  0.00    +0.000 F 
ATOM     24  F   UNL     1       2.103  11.352  17.637  0.00  0.00    +0.000 F 
ENDBRANCH   3  21
BRANCH   4  25
ATOM     25  C   UNL     1       0.561   8.331  20.366  0.00  0.00    +0.000 C 
BRANCH  25  26
ATOM     26  C   UNL     1       1.039   8.842  21.717  0.00  0.00    +0.000 C 
BRANCH  26  27
ATOM     27  C   UNL     1      -0.095   9.374  22.599  0.00  0.00    +0.000 C 
BRANCH  27  28
ATOM     28  O   UNL     1       0.418   9.709  23.887  0.00  0.00    +0.000 OA
ATOM     29  H   UNL     1       0.623   8.887  24.369  0.00  0.00    +0.000 HD
ENDBRANCH  27  28
BRANCH  27  30
ATOM     30  C   UNL     1      -0.759  10.622  21.993  0.00  0.00    +0.000 C 
BRANCH  30  31
ATOM     31  C   UNL     1      -1.318  11.585  23.046  0.00  0.00    +0.000 C 
BRANCH  31  32
ATOM     32  O   UNL     1      -0.410  12.673  23.229  0.00  0.00    +0.000 OA
ATOM     33  H   UNL     1       0.098  12.520  24.047  0.00  0.00    +0.000 HD
ENDBRANCH  31  32
BRANCH  31  34
ATOM     34  C   UNL     1      -2.695  12.148  22.676  0.00  0.00    +0.000 C 
BRANCH  34  35
ATOM     35  C   UNL     1      -3.380  12.746  23.883  0.00  0.00    +0.000 C 
ATOM     36  O   UNL     1      -3.128  13.842  24.356  0.00  0.00    +0.000 OA
BRANCH  35  37
ATOM     37  O   UNL     1      -4.324  11.935  24.400  0.00  0.00    +0.000 OA
ATOM     38  H   UNL     1      -4.003  11.054  24.673  0.00  0.00    +0.000 HD
ENDBRANCH  35  37
ENDBRANCH  34  35
ENDBRANCH  31  34
ENDBRANCH  30  31
ENDBRANCH  27  30
ENDBRANCH  26  27
ENDBRANCH  25  26
ENDBRANCH   4  25
TORSDOF 14
ENDMDL
MODEL 2
REMARK VINA RESULT:      -7.2      3.299      9.748
REMARK  Name = 
REMARK  15 active torsions:
REMARK  status: ('A' for Active; 'I' for Inactive)
REMARK    1  A    between atoms: C_1  and  O_2
REMARK    2  A    between atoms: O_2  and  C_3
REMARK    3  A    between atoms: C_6  and  C_7
REMARK    4  A    between atoms: C_9  and  C_10
REMARK    5  A    between atoms: N_14  and  C_15
REMARK    6  A    between atoms: C_15  and  C_16
REMARK    7  A    between atoms: C_16  and  C_17
REMARK    8  A    between atoms: C_17  and  O_18
REMARK    9  A    between atoms: C_17  and  C_19
REMARK   10  A    between atoms: C_19  and  C_20
REMARK   11  A    between atoms: C_20  and  O_21
REMARK   12  A    between atoms: C_20  and  C_22
REMARK   13  A    between atoms: C_22  and  C_23
REMARK   14  A    between atoms: C_23  and  O_25
REMARK   15  A    between atoms: C_26  and  C_27
REMARK                            x       y       z     vdW  Elec       q    Type
REMARK                         _______ _______ _______ _____ _____    ______ ____
ROOT
ATOM      1  C   UNL     1       3.659   7.324  18.167  0.00  0.00    +0.000 A 
ATOM      2  N   UNL     1       4.831   7.984  17.894  0.00  0.00    +0.000 NA
ATOM      3  C   UNL     1       5.739   7.057  17.643  0.00  0.00    +0.000 A 
ATOM      4  N   UNL     1       5.167   5.793  17.720  0.00  0.00    +0.000 N 
ATOM      5  C   UNL     1       3.835   5.933  18.116  0.00  0.00    +0.000 A 
ENDROOT
BRANCH   5   6
ATOM      6  C   UNL     1       2.906   4.843  18.496  0.00  0.00    +0.000 A 
ATOM      7  C   UNL     1       2.016   4.303  17.546  0.00  0.00    +0.000 A 
ATOM      8  C   UNL     1       1.185   3.220  17.851  0.00  0.00    +0.000 A 
ATOM      9  C   UNL     1       1.172   2.717  19.140  0.00  0.00    +0.000 A 
ATOM     10  F   UNL     1       0.352   1.705  19.452  0.00  0.00    +0.000 F 
ATOM     11  C   UNL     1       2.015   3.240  20.109  0.00  0.00    +0.000 A 
ATOM     12  C   UNL     1       2.908   4.264  19.774  0.00  0.00    +0.000 A 
ENDBRANCH   5   6
BRANCH   1  16
ATOM     13  C   UNL     1       0.363   9.751  19.403  0.00  0.00    +0.000 A 
ATOM     14  C   UNL     1       0.944   8.849  20.295  0.00  0.00    +0.000 A 
ATOM     15  C   UNL     1       1.962   7.985  19.876  0.00  0.00    +0.000 A 
ATOM     16  C   UNL     1       2.453   8.048  18.567  0.00  0.00    +0.000 A 
ATOM     17  C   UNL     1       1.805   8.891  17.654  0.00  0.00    +0.000 A 
ATOM     18  C   UNL     1       0.765   9.737  18.067  0.00  0.00    +0.000 A 
BRANCH  13  20
ATOM     19  C   UNL     1      -1.413  11.275  19.026  0.00  0.00    +0.000 C 
ATOM     20  O   UNL     1      -0.592  10.564  19.947  0.00  0.00    +0.000 OA
ENDBRANCH  13  20
ENDBRANCH   1  16
BRANCH   3  21
ATOM     21  C   UNL     1       7.193   7.281  17.344  0.00  0.00    +0.000 C 
ATOM     22  F   UNL     1       7.552   8.588  17.369  0.00  0.00    +0.000 F 
ATOM     23  F   UNL     1       8.000   6.642  18.234  0.00  0.00    +0.000 F 
ATOM     24  F   UNL     1       7.535   6.806  16.114  0.00  0.00    +0.000 F 
ENDBRANCH   3  21
BRANCH   4  25
ATOM     25  C   UNL     1       5.919   4.557  17.516  0.00  0.00    +0.000 C 
BRANCH  25  26
ATOM     26  C   UNL     1       5.411   3.776  16.312  0.00  0.00    +0.000 C 
BRANCH  26  27
ATOM     27  C   UNL     1       6.069   4.198  14.995  0.00  0.00    +0.000 C 
BRANCH  27  28
ATOM     28  O   UNL     1       7.450   4.477  15.220  0.00  0.00    +0.000 OA
ATOM     29  H   UNL     1       7.815   4.919  14.431  0.00  0.00    +0.000 HD
ENDBRANCH  27  28
BRANCH  27  30
ATOM     30  C   UNL     1       5.956   3.104  13.920  0.00  0.00    +0.000 C 
BRANCH  30  31
ATOM     31  C   UNL     1       5.835   3.661  12.496  0.00  0.00    +0.000 C 
BRANCH  31  32
ATOM     32  O   UNL     1       7.093   4.199  12.086  0.00  0.00    +0.000 OA
ATOM     33  H   UNL     1       6.991   4.590  11.199  0.00  0.00    +0.000 HD
ENDBRANCH  31  32
BRANCH  31  34
ATOM     34  C   UNL     1       5.390   2.610  11.474  0.00  0.00    +0.000 C 
BRANCH  34  35
ATOM     35  C   UNL     1       6.460   1.562  11.272  0.00  0.00    +0.000 C 
ATOM     36  O   UNL     1       7.613   1.797  10.949  0.00  0.00    +0.000 OA
BRANCH  35  37
ATOM     37  O   UNL     1       6.011   0.310  11.490  0.00  0.00    +0.000 OA
ATOM     38  H   UNL     1       5.127   0.121  11.119  0.00  0.00    +0.000 HD
ENDBRANCH  35  37
ENDBRANCH  34  35
ENDBRANCH  31  34
ENDBRANCH  30  31
ENDBRANCH  27  30
ENDBRANCH  26  27
ENDBRANCH  25  26
ENDBRANCH   4  25
TORSDOF 14
ENDMDL
MODEL 3
REMARK VINA RESULT:      -7.2      0.984      1.653
REMARK  Name = 
REMARK  15 active torsions:
REMARK  status: ('A' for Active; 'I' for Inactive)
REMARK    1  A    between atoms: C_1  and  O_2
REMARK    2  A    between atoms: O_2  and  C_3
REMARK    3  A    between atoms: C_6  and  C_7
REMARK    4  A    between atoms: C_9  and  C_10
REMARK    5  A    between atoms: N_14  and  C_15
REMARK    6  A    between atoms: C_15  and  C_16
REMARK    7  A    between atoms: C_16  and  C_17
REMARK    8  A    between atoms: C_17  and  O_18
REMARK    9  A    between atoms: C_17  and  C_19
REMARK   10  A    between atoms: C_19  and  C_20
REMARK   11  A    between atoms: C_20  and  O_21
REMARK   12  A    between atoms: C_20  and  C_22
REMARK   13  A    between atoms: C_22  and  C_23
REMARK   14  A    between atoms: C_23  and  O_25
REMARK   15  A    between atoms: C_26  and  C_27
REMARK                            x       y       z     vdW  Elec       q    Type
REMARK                         _______ _______ _______ _____ _____    ______ ____
ROOT
ATOM      1  C   UNL     1       3.208   7.140  18.033  0.00  0.00    +0.000 A 
ATOM      2  N   UNL     1       3.019   8.443  17.645  0.00  0.00    +0.000 NA
ATOM      3  C   UNL     1       2.091   8.945  18.441  0.00  0.00    +0.000 A 
ATOM      4  N   UNL     1       1.688   7.992  19.368  0.00  0.00    +0.000 N 
ATOM      5  C   UNL     1       2.352   6.795  19.090  0.00  0.00    +0.000 A 
ENDROOT
BRANCH   5   6
ATOM      6  C   UNL     1       2.092   5.474  19.710  0.00  0.00    +0.000 A 
ATOM      7  C   UNL     1       2.623   5.168  20.979  0.00  0.00    +0.000 A 
ATOM      8  C   UNL     1       2.328   3.963  21.627  0.00  0.00    +0.000 A 
ATOM      9  C   UNL     1       1.566   3.011  20.973  0.00  0.00    +0.000 A 
ATOM     10  F   UNL     1       1.311   1.839  21.568  0.00  0.00    +0.000 F 
ATOM     11  C   UNL     1       1.048   3.267  19.712  0.00  0.00    +0.000 A 
ATOM     12  C   UNL     1       1.272   4.509  19.107  0.00  0.00    +0.000 A 
ENDBRANCH   5   6
BRANCH   1  16
ATOM     13  C   UNL     1       5.586   4.504  15.651  0.00  0.00    +0.000 A 
ATOM     14  C   UNL     1       4.921   4.023  16.780  0.00  0.00    +0.000 A 
ATOM     15  C   UNL     1       4.216   4.892  17.618  0.00  0.00    +0.000 A 
ATOM     16  C   UNL     1       4.119   6.254  17.309  0.00  0.00    +0.000 A 
ATOM     17  C   UNL     1       4.862   6.745  16.227  0.00  0.00    +0.000 A 
ATOM     18  C   UNL     1       5.593   5.876  15.402  0.00  0.00    +0.000 A 
BRANCH  13  20
ATOM     19  C   UNL     1       6.195   3.751  13.487  0.00  0.00    +0.000 C 
ATOM     20  O   UNL     1       6.204   3.546  14.896  0.00  0.00    +0.000 OA
ENDBRANCH  13  20
ENDBRANCH   1  16
BRANCH   3  21
ATOM     21  C   UNL     1       1.502  10.325  18.376  0.00  0.00    +0.000 C 
ATOM     22  F   UNL     1       2.135  11.139  17.496  0.00  0.00    +0.000 F 
ATOM     23  F   UNL     1       0.192  10.303  18.007  0.00  0.00    +0.000 F 
ATOM     24  F   UNL     1       1.544  10.950  19.585  0.00  0.00    +0.000 F 
ENDBRANCH   3  21
BRANCH   4  25
ATOM     25  C   UNL     1       0.655   8.234  20.373  0.00  0.00    +0.000 C 
BRANCH  25  26
ATOM     26  C   UNL     1       1.253   8.601  21.724  0.00  0.00    +0.000 C 
BRANCH  26  27
ATOM     27  C   UNL     1       0.214   9.111  22.727  0.00  0.00    +0.000 C 
BRANCH  27  28
ATOM     28  O   UNL     1       0.877   9.749  23.817  0.00  0.00    +0.000 OA
ATOM     29  H   UNL     1       0.311  10.468  24.154  0.00  0.00    +0.000 HD
ENDBRANCH  27  28
BRANCH  27  30
ATOM     30  C   UNL     1      -0.761  10.113  22.087  0.00  0.00    +0.000 C 
BRANCH  30  31
ATOM     31  C   UNL     1      -0.906  11.414  22.886  0.00  0.00    +0.000 C 
BRANCH  31  32
ATOM     32  O   UNL     1      -0.066  12.420  22.317  0.00  0.00    +0.000 OA
ATOM     33  H   UNL     1      -0.572  13.250  22.256  0.00  0.00    +0.000 HD
ENDBRANCH  31  32
BRANCH  31  34
ATOM     34  C   UNL     1      -2.346  11.938  22.926  0.00  0.00    +0.000 C 
BRANCH  34  35
ATOM     35  C   UNL     1      -2.427  13.347  22.387  0.00  0.00    +0.000 C 
ATOM     36  O   UNL     1      -2.656  13.636  21.224  0.00  0.00    +0.000 OA
BRANCH  35  37
ATOM     37  O   UNL     1      -2.219  14.281  23.336  0.00  0.00    +0.000 OA
ATOM     38  H   UNL     1      -2.822  15.049  23.294  0.00  0.00    +0.000 HD
ENDBRANCH  35  37
ENDBRANCH  34  35
ENDBRANCH  31  34
ENDBRANCH  30  31
ENDBRANCH  27  30
ENDBRANCH  26  27
ENDBRANCH  25  26
ENDBRANCH   4  25
TORSDOF 14
ENDMDL
MODEL 4
REMARK VINA RESULT:      -7.1      1.109      1.190
REMARK  Name = 
REMARK  15 active torsions:
REMARK  status: ('A' for Active; 'I' for Inactive)
REMARK    1  A    between atoms: C_1  and  O_2
REMARK    2  A    between atoms: O_2  and  C_3
REMARK    3  A    between atoms: C_6  and  C_7
REMARK    4  A    between atoms: C_9  and  C_10
REMARK    5  A    between atoms: N_14  and  C_15
REMARK    6  A    between atoms: C_15  and  C_16
REMARK    7  A    between atoms: C_16  and  C_17
REMARK    8  A    between atoms: C_17  and  O_18
REMARK    9  A    between atoms: C_17  and  C_19
REMARK   10  A    between atoms: C_19  and  C_20
REMARK   11  A    between atoms: C_20  and  O_21
REMARK   12  A    between atoms: C_20  and  C_22
REMARK   13  A    between atoms: C_22  and  C_23
REMARK   14  A    between atoms: C_23  and  O_25
REMARK   15  A    between atoms: C_26  and  C_27
REMARK                            x       y       z     vdW  Elec       q    Type
REMARK                         _______ _______ _______ _____ _____    ______ ____
ROOT
ATOM      1  C   UNL     1       3.262   7.092  18.225  0.00  0.00    +0.000 A 
ATOM      2  N   UNL     1       3.067   8.380  17.796  0.00  0.00    +0.000 NA
ATOM      3  C   UNL     1       2.086   8.879  18.528  0.00  0.00    +0.000 A 
ATOM      4  N   UNL     1       1.654   7.940  19.454  0.00  0.00    +0.000 N 
ATOM      5  C   UNL     1       2.357   6.751  19.242  0.00  0.00    +0.000 A 
ENDROOT
BRANCH   5   6
ATOM      6  C   UNL     1       2.092   5.440  19.879  0.00  0.00    +0.000 A 
ATOM      7  C   UNL     1       1.318   4.469  19.211  0.00  0.00    +0.000 A 
ATOM      8  C   UNL     1       1.118   3.193  19.749  0.00  0.00    +0.000 A 
ATOM      9  C   UNL     1       1.620   2.901  21.006  0.00  0.00    +0.000 A 
ATOM     10  F   UNL     1       1.401   1.696  21.546  0.00  0.00    +0.000 F 
ATOM     11  C   UNL     1       2.364   3.841  21.704  0.00  0.00    +0.000 A 
ATOM     12  C   UNL     1       2.636   5.084  21.121  0.00  0.00    +0.000 A 
ENDBRANCH   5   6
BRANCH   1  16
ATOM     13  C   UNL     1       6.006   4.700  15.983  0.00  0.00    +0.000 A 
ATOM     14  C   UNL     1       4.739   4.206  16.297  0.00  0.00    +0.000 A 
ATOM     15  C   UNL     1       3.868   4.941  17.107  0.00  0.00    +0.000 A 
ATOM     16  C   UNL     1       4.230   6.210  17.573  0.00  0.00    +0.000 A 
ATOM     17  C   UNL     1       5.535   6.660  17.329  0.00  0.00    +0.000 A 
ATOM     18  C   UNL     1       6.420   5.909  16.540  0.00  0.00    +0.000 A 
BRANCH  13  20
ATOM     19  C   UNL     1       6.294   3.806  13.806  0.00  0.00    +0.000 C 
ATOM     20  O   UNL     1       6.745   3.902  15.152  0.00  0.00    +0.000 OA
ENDBRANCH  13  20
ENDBRANCH   1  16
BRANCH   3  21
ATOM     21  C   UNL     1       1.472  10.244  18.398  0.00  0.00    +0.000 C 
ATOM     22  F   UNL     1       0.180  10.215  17.989  0.00  0.00    +0.000 F 
ATOM     23  F   UNL     1       1.490  10.924  19.577  0.00  0.00    +0.000 F 
ATOM     24  F   UNL     1       2.147  11.019  17.505  0.00  0.00    +0.000 F 
ENDBRANCH   3  21
BRANCH   4  25
ATOM     25  C   UNL     1       0.563   8.181  20.396  0.00  0.00    +0.000 C 
BRANCH  25  26
ATOM     26  C   UNL     1       1.074   8.672  21.743  0.00  0.00    +0.000 C 
BRANCH  26  27
ATOM     27  C   UNL     1      -0.029   9.243  22.638  0.00  0.00    +0.000 C 
BRANCH  27  28
ATOM     28  O   UNL     1       0.538   9.689  23.869  0.00  0.00    +0.000 OA
ATOM     29  H   UNL     1       0.205   9.127  24.592  0.00  0.00    +0.000 HD
ENDBRANCH  27  28
BRANCH  27  30
ATOM     30  C   UNL     1      -0.755  10.425  21.973  0.00  0.00    +0.000 C 
BRANCH  30  31
ATOM     31  C   UNL     1      -0.531  11.760  22.694  0.00  0.00    +0.000 C 
BRANCH  31  32
ATOM     32  O   UNL     1       0.243  12.627  21.864  0.00  0.00    +0.000 OA
ATOM     33  H   UNL     1       0.188  12.308  20.944  0.00  0.00    +0.000 HD
ENDBRANCH  31  32
BRANCH  31  34
ATOM     34  C   UNL     1      -1.838  12.469  23.067  0.00  0.00    +0.000 C 
BRANCH  34  35
ATOM     35  C   UNL     1      -1.613  13.948  23.276  0.00  0.00    +0.000 C 
ATOM     36  O   UNL     1      -0.989  14.433  24.206  0.00  0.00    +0.000 OA
BRANCH  35  37
ATOM     37  O   UNL     1      -2.178  14.703  22.314  0.00  0.00    +0.000 OA
ATOM     38  H   UNL     1      -1.545  15.158  21.725  0.00  0.00    +0.000 HD
ENDBRANCH  35  37
ENDBRANCH  34  35
ENDBRANCH  31  34
ENDBRANCH  30  31
ENDBRANCH  27  30
ENDBRANCH  26  27
ENDBRANCH  25  26
ENDBRANCH   4  25
TORSDOF 14
ENDMDL
MODEL 5
REMARK VINA RESULT:      -7.0      3.666      9.747
REMARK  Name = 
REMARK  15 active torsions:
REMARK  status: ('A' for Active; 'I' for Inactive)
REMARK    1  A    between atoms: C_1  and  O_2
REMARK    2  A    between atoms: O_2  and  C_3
REMARK    3  A    between atoms: C_6  and  C_7
REMARK    4  A    between atoms: C_9  and  C_10
REMARK    5  A    between atoms: N_14  and  C_15
REMARK    6  A    between atoms: C_15  and  C_16
REMARK    7  A    between atoms: C_16  and  C_17
REMARK    8  A    between atoms: C_17  and  O_18
REMARK    9  A    between atoms: C_17  and  C_19
REMARK   10  A    between atoms: C_19  and  C_20
REMARK   11  A    between atoms: C_20  and  O_21
REMARK   12  A    between atoms: C_20  and  C_22
REMARK   13  A    between atoms: C_22  and  C_23
REMARK   14  A    between atoms: C_23  and  O_25
REMARK   15  A    between atoms: C_26  and  C_27
REMARK                            x       y       z     vdW  Elec       q    Type
REMARK                         _______ _______ _______ _____ _____    ______ ____
ROOT
ATOM      1  C   UNL     1       2.446   5.886  19.179  0.00  0.00    +0.000 A 
ATOM      2  N   UNL     1       1.511   4.887  19.282  0.00  0.00    +0.000 NA
ATOM      3  C   UNL     1       2.118   3.763  18.943  0.00  0.00    +0.000 A 
ATOM      4  N   UNL     1       3.452   4.010  18.646  0.00  0.00    +0.000 N 
ATOM      5  C   UNL     1       3.679   5.386  18.732  0.00  0.00    +0.000 A 
ENDROOT
BRANCH   5   6
ATOM      6  C   UNL     1       4.906   6.107  18.323  0.00  0.00    +0.000 A 
ATOM      7  C   UNL     1       6.111   5.917  19.029  0.00  0.00    +0.000 A 
ATOM      8  C   UNL     1       7.305   6.519  18.619  0.00  0.00    +0.000 A 
ATOM      9  C   UNL     1       7.290   7.393  17.545  0.00  0.00    +0.000 A 
ATOM     10  F   UNL     1       8.420   8.004  17.169  0.00  0.00    +0.000 F 
ATOM     11  C   UNL     1       6.117   7.625  16.843  0.00  0.00    +0.000 A 
ATOM     12  C   UNL     1       4.945   6.950  17.203  0.00  0.00    +0.000 A 
ENDBRANCH   5   6
BRANCH   1  16
ATOM     13  C   UNL     1       1.038   9.873  19.811  0.00  0.00    +0.000 A 
ATOM     14  C   UNL     1       1.511   9.487  18.557  0.00  0.00    +0.000 A 
ATOM     15  C   UNL     1       2.059   8.215  18.361  0.00  0.00    +0.000 A 
ATOM     16  C   UNL     1       2.093   7.287  19.409  0.00  0.00    +0.000 A 
ATOM     17  C   UNL     1       1.700   7.711  20.685  0.00  0.00    +0.000 A 
ATOM     18  C   UNL     1       1.176   8.997  20.887  0.00  0.00    +0.000 A 
BRANCH  13  20
ATOM     19  C   UNL     1       1.195  12.147  19.159  0.00  0.00    +0.000 C 
ATOM     20  O   UNL     1       0.493  11.126  19.860  0.00  0.00    +0.000 OA
ENDBRANCH  13  20
ENDBRANCH   1  16
BRANCH   3  21
ATOM     21  C   UNL     1       1.496   2.399  18.848  0.00  0.00    +0.000 C 
ATOM     22  F   UNL     1       1.740   1.778  17.668  0.00  0.00    +0.000 F 
ATOM     23  F   UNL     1       1.947   1.565  19.824  0.00  0.00    +0.000 F 
ATOM     24  F   UNL     1       0.143   2.450  18.989  0.00  0.00    +0.000 F 
ENDBRANCH   3  21
BRANCH   4  25
ATOM     25  C   UNL     1       4.385   2.971  18.213  0.00  0.00    +0.000 C 
BRANCH  25  26
ATOM     26  C   UNL     1       4.438   2.853  16.697  0.00  0.00    +0.000 C 
BRANCH  26  27
ATOM     27  C   UNL     1       5.526   3.724  16.060  0.00  0.00    +0.000 C 
BRANCH  27  28
ATOM     28  O   UNL     1       6.686   3.722  16.890  0.00  0.00    +0.000 OA
ATOM     29  H   UNL     1       6.970   4.642  17.038  0.00  0.00    +0.000 HD
ENDBRANCH  27  28
BRANCH  27  30
ATOM     30  C   UNL     1       5.920   3.220  14.661  0.00  0.00    +0.000 C 
BRANCH  30  31
ATOM     31  C   UNL     1       6.196   4.351  13.664  0.00  0.00    +0.000 C 
BRANCH  31  32
ATOM     32  O   UNL     1       7.249   5.178  14.160  0.00  0.00    +0.000 OA
ATOM     33  H   UNL     1       8.060   4.987  13.654  0.00  0.00    +0.000 HD
ENDBRANCH  31  32
BRANCH  31  34
ATOM     34  C   UNL     1       6.581   3.844  12.270  0.00  0.00    +0.000 C 
BRANCH  34  35
ATOM     35  C   UNL     1       5.548   2.877  11.739  0.00  0.00    +0.000 C 
ATOM     36  O   UNL     1       5.765   1.708  11.464  0.00  0.00    +0.000 OA
BRANCH  35  37
ATOM     37  O   UNL     1       4.332   3.439  11.597  0.00  0.00    +0.000 OA
ATOM     38  H   UNL     1       3.931   3.764  12.427  0.00  0.00    +0.000 HD
ENDBRANCH  35  37
ENDBRANCH  34  35
ENDBRANCH  31  34
ENDBRANCH  30  31
ENDBRANCH  27  30
ENDBRANCH  26  27
ENDBRANCH  25  26
ENDBRANCH   4  25
TORSDOF 14
ENDMDL
MODEL 6
REMARK VINA RESULT:      -7.0      3.632      9.696
REMARK  Name = 
REMARK  15 active torsions:
REMARK  status: ('A' for Active; 'I' for Inactive)
REMARK    1  A    between atoms: C_1  and  O_2
REMARK    2  A    between atoms: O_2  and  C_3
REMARK    3  A    between atoms: C_6  and  C_7
REMARK    4  A    between atoms: C_9  and  C_10
REMARK    5  A    between atoms: N_14  and  C_15
REMARK    6  A    between atoms: C_15  and  C_16
REMARK    7  A    between atoms: C_16  and  C_17
REMARK    8  A    between atoms: C_17  and  O_18
REMARK    9  A    between atoms: C_17  and  C_19
REMARK   10  A    between atoms: C_19  and  C_20
REMARK   11  A    between atoms: C_20  and  O_21
REMARK   12  A    between atoms: C_20  and  C_22
REMARK   13  A    between atoms: C_22  and  C_23
REMARK   14  A    between atoms: C_23  and  O_25
REMARK   15  A    between atoms: C_26  and  C_27
REMARK                            x       y       z     vdW  Elec       q    Type
REMARK                         _______ _______ _______ _____ _____    ______ ____
ROOT
ATOM      1  C   UNL     1       2.451   5.903  19.189  0.00  0.00    +0.000 A 
ATOM      2  N   UNL     1       1.502   4.918  19.297  0.00  0.00    +0.000 NA
ATOM      3  C   UNL     1       2.098   3.781  18.983  0.00  0.00    +0.000 A 
ATOM      4  N   UNL     1       3.438   4.005  18.697  0.00  0.00    +0.000 N 
ATOM      5  C   UNL     1       3.682   5.379  18.763  0.00  0.00    +0.000 A 
ENDROOT
BRANCH   5   6
ATOM      6  C   UNL     1       4.924   6.078  18.357  0.00  0.00    +0.000 A 
ATOM      7  C   UNL     1       4.925   6.930  17.234  0.00  0.00    +0.000 A 
ATOM      8  C   UNL     1       6.058   7.667  16.874  0.00  0.00    +0.000 A 
ATOM      9  C   UNL     1       7.234   7.494  17.583  0.00  0.00    +0.000 A 
ATOM     10  F   UNL     1       8.334   8.166  17.221  0.00  0.00    +0.000 F 
ATOM     11  C   UNL     1       7.277   6.643  18.677  0.00  0.00    +0.000 A 
ATOM     12  C   UNL     1       6.116   5.978  19.087  0.00  0.00    +0.000 A 
ENDBRANCH   5   6
BRANCH   1  16
ATOM     13  C   UNL     1       1.089   9.918  19.738  0.00  0.00    +0.000 A 
ATOM     14  C   UNL     1       1.580   9.507  18.498  0.00  0.00    +0.000 A 
ATOM     15  C   UNL     1       2.113   8.225  18.331  0.00  0.00    +0.000 A 
ATOM     16  C   UNL     1       2.115   7.311  19.392  0.00  0.00    +0.000 A 
ATOM     17  C   UNL     1       1.704   7.760  20.655  0.00  0.00    +0.000 A 
ATOM     18  C   UNL     1       1.195   9.056  20.829  0.00  0.00    +0.000 A 
BRANCH  13  20
ATOM     19  C   UNL     1       1.486  12.247  19.933  0.00  0.00    +0.000 C 
ATOM     20  O   UNL     1       0.561  11.179  19.758  0.00  0.00    +0.000 OA
ENDBRANCH  13  20
ENDBRANCH   1  16
BRANCH   3  21
ATOM     21  C   UNL     1       1.459   2.423  18.903  0.00  0.00    +0.000 C 
ATOM     22  F   UNL     1       0.106   2.461  18.982  0.00  0.00    +0.000 F 
ATOM     23  F   UNL     1       1.761   1.787  17.739  0.00  0.00    +0.000 F 
ATOM     24  F   UNL     1       1.885   1.605  19.904  0.00  0.00    +0.000 F 
ENDBRANCH   3  21
BRANCH   4  25
ATOM     25  C   UNL     1       4.362   2.947  18.292  0.00  0.00    +0.000 C 
BRANCH  25  26
ATOM     26  C   UNL     1       4.474   2.841  16.778  0.00  0.00    +0.000 C 
BRANCH  26  27
ATOM     27  C   UNL     1       5.548   3.758  16.184  0.00  0.00    +0.000 C 
BRANCH  27  28
ATOM     28  O   UNL     1       6.695   3.761  17.032  0.00  0.00    +0.000 OA
ATOM     29  H   UNL     1       6.588   4.457  17.706  0.00  0.00    +0.000 HD
ENDBRANCH  27  28
BRANCH  27  30
ATOM     30  C   UNL     1       5.976   3.306  14.777  0.00  0.00    +0.000 C 
BRANCH  30  31
ATOM     31  C   UNL     1       6.348   4.471  13.852  0.00  0.00    +0.000 C 
BRANCH  31  32
ATOM     32  O   UNL     1       7.466   5.174  14.396  0.00  0.00    +0.000 OA
ATOM     33  H   UNL     1       8.198   5.139  13.753  0.00  0.00    +0.000 HD
ENDBRANCH  31  32
BRANCH  31  34
ATOM     34  C   UNL     1       6.691   4.022  12.428  0.00  0.00    +0.000 C 
BRANCH  34  35
ATOM     35  C   UNL     1       5.646   3.071  11.891  0.00  0.00    +0.000 C 
ATOM     36  O   UNL     1       4.478   3.360  11.694  0.00  0.00    +0.000 OA
BRANCH  35  37
ATOM     37  O   UNL     1       6.139   1.842  11.640  0.00  0.00    +0.000 OA
ATOM     38  H   UNL     1       7.084   1.823  11.391  0.00  0.00    +0.000 HD
ENDBRANCH  35  37
ENDBRANCH  34  35
ENDBRANCH  31  34
ENDBRANCH  30  31
ENDBRANCH  27  30
ENDBRANCH  26  27
ENDBRANCH  25  26
ENDBRANCH   4  25
TORSDOF 14
ENDMDL
MODEL 7
REMARK VINA RESULT:      -7.0      1.203      2.045
REMARK  Name = 
REMARK  15 active torsions:
REMARK  status: ('A' for Active; 'I' for Inactive)
REMARK    1  A    between atoms: C_1  and  O_2
REMARK    2  A    between atoms: O_2  and  C_3
REMARK    3  A    between atoms: C_6  and  C_7
REMARK    4  A    between atoms: C_9  and  C_10
REMARK    5  A    between atoms: N_14  and  C_15
REMARK    6  A    between atoms: C_15  and  C_16
REMARK    7  A    between atoms: C_16  and  C_17
REMARK    8  A    between atoms: C_17  and  O_18
REMARK    9  A    between atoms: C_17  and  C_19
REMARK   10  A    between atoms: C_19  and  C_20
REMARK   11  A    between atoms: C_20  and  O_21
REMARK   12  A    between atoms: C_20  and  C_22
REMARK   13  A    between atoms: C_22  and  C_23
REMARK   14  A    between atoms: C_23  and  O_25
REMARK   15  A    between atoms: C_26  and  C_27
REMARK                            x       y       z     vdW  Elec       q    Type
REMARK                         _______ _______ _______ _____ _____    ______ ____
ROOT
ATOM      1  C   UNL     1       3.234   7.072  18.158  0.00  0.00    +0.000 A 
ATOM      2  N   UNL     1       3.049   8.361  17.726  0.00  0.00    +0.000 NA
ATOM      3  C   UNL     1       2.086   8.876  18.469  0.00  0.00    +0.000 A 
ATOM      4  N   UNL     1       1.655   7.947  19.407  0.00  0.00    +0.000 N 
ATOM      5  C   UNL     1       2.340   6.748  19.190  0.00  0.00    +0.000 A 
ENDROOT
BRANCH   5   6
ATOM      6  C   UNL     1       2.067   5.443  19.837  0.00  0.00    +0.000 A 
ATOM      7  C   UNL     1       2.702   5.104  21.048  0.00  0.00    +0.000 A 
ATOM      8  C   UNL     1       2.404   3.917  21.726  0.00  0.00    +0.000 A 
ATOM      9  C   UNL     1       1.528   3.011  21.153  0.00  0.00    +0.000 A 
ATOM     10  F   UNL     1       1.267   1.854  21.775  0.00  0.00    +0.000 F 
ATOM     11  C   UNL     1       0.904   3.299  19.949  0.00  0.00    +0.000 A 
ATOM     12  C   UNL     1       1.138   4.528  19.321  0.00  0.00    +0.000 A 
ENDBRANCH   5   6
BRANCH   1  16
ATOM     13  C   UNL     1       5.871   4.592  15.883  0.00  0.00    +0.000 A 
ATOM     14  C   UNL     1       4.677   4.073  16.384  0.00  0.00    +0.000 A 
ATOM     15  C   UNL     1       3.851   4.846  17.206  0.00  0.00    +0.000 A 
ATOM     16  C   UNL     1       4.181   6.175  17.497  0.00  0.00    +0.000 A 
ATOM     17  C   UNL     1       5.423   6.661  17.065  0.00  0.00    +0.000 A 
ATOM     18  C   UNL     1       6.265   5.874  16.264  0.00  0.00    +0.000 A 
BRANCH  13  20
ATOM     19  C   UNL     1       6.319   3.881  13.666  0.00  0.00    +0.000 C 
ATOM     20  O   UNL     1       6.566   3.748  15.062  0.00  0.00    +0.000 OA
ENDBRANCH  13  20
ENDBRANCH   1  16
BRANCH   3  21
ATOM     21  C   UNL     1       1.488  10.248  18.342  0.00  0.00    +0.000 C 
ATOM     22  F   UNL     1       1.549  10.970  19.488  0.00  0.00    +0.000 F 
ATOM     23  F   UNL     1       2.112  10.988  17.385  0.00  0.00    +0.000 F 
ATOM     24  F   UNL     1       0.175  10.197  17.984  0.00  0.00    +0.000 F 
ENDBRANCH   3  21
BRANCH   4  25
ATOM     25  C   UNL     1       0.581   8.207  20.363  0.00  0.00    +0.000 C 
BRANCH  25  26
ATOM     26  C   UNL     1       1.122   8.605  21.729  0.00  0.00    +0.000 C 
BRANCH  26  27
ATOM     27  C   UNL     1       0.165   9.502  22.520  0.00  0.00    +0.000 C 
BRANCH  27  28
ATOM     28  O   UNL     1       0.627   9.623  23.865  0.00  0.00    +0.000 OA
ATOM     29  H   UNL     1       1.601   9.650  23.864  0.00  0.00    +0.000 HD
ENDBRANCH  27  28
BRANCH  27  30
ATOM     30  C   UNL     1       0.057  10.909  21.908  0.00  0.00    +0.000 C 
BRANCH  30  31
ATOM     31  C   UNL     1      -1.208  11.663  22.337  0.00  0.00    +0.000 C 
BRANCH  31  32
ATOM     32  O   UNL     1      -1.855  10.948  23.390  0.00  0.00    +0.000 OA
ATOM     33  H   UNL     1      -1.173  10.537  23.953  0.00  0.00    +0.000 HD
ENDBRANCH  31  32
BRANCH  31  34
ATOM     34  C   UNL     1      -0.925  13.092  22.811  0.00  0.00    +0.000 C 
BRANCH  34  35
ATOM     35  C   UNL     1      -0.096  13.847  21.798  0.00  0.00    +0.000 C 
ATOM     36  O   UNL     1      -0.444  14.086  20.653  0.00  0.00    +0.000 OA
BRANCH  35  37
ATOM     37  O   UNL     1       1.093  14.245  22.289  0.00  0.00    +0.000 OA
ATOM     38  H   UNL     1       1.470  13.660  22.975  0.00  0.00    +0.000 HD
ENDBRANCH  35  37
ENDBRANCH  34  35
ENDBRANCH  31  34
ENDBRANCH  30  31
ENDBRANCH  27  30
ENDBRANCH  26  27
ENDBRANCH  25  26
ENDBRANCH   4  25
TORSDOF 14
ENDMDL
MODEL 8
REMARK VINA RESULT:      -7.0      1.410      1.769
REMARK  Name = 
REMARK  15 active torsions:
REMARK  status: ('A' for Active; 'I' for Inactive)
REMARK    1  A    between atoms: C_1  and  O_2
REMARK    2  A    between atoms: O_2  and  C_3
REMARK    3  A    between atoms: C_6  and  C_7
REMARK    4  A    between atoms: C_9  and  C_10
REMARK    5  A    between atoms: N_14  and  C_15
REMARK    6  A    between atoms: C_15  and  C_16
REMARK    7  A    between atoms: C_16  and  C_17
REMARK    8  A    between atoms: C_17  and  O_18
REMARK    9  A    between atoms: C_17  and  C_19
REMARK   10  A    between atoms: C_19  and  C_20
REMARK   11  A    between atoms: C_20  and  O_21
REMARK   12  A    between atoms: C_20  and  C_22
REMARK   13  A    between atoms: C_22  and  C_23
REMARK   14  A    between atoms: C_23  and  O_25
REMARK   15  A    between atoms: C_26  and  C_27
REMARK                            x       y       z     vdW  Elec       q    Type
REMARK                         _______ _______ _______ _____ _____    ______ ____
ROOT
ATOM      1  C   UNL     1       3.178   7.064  18.323  0.00  0.00    +0.000 A 
ATOM      2  N   UNL     1       2.990   8.349  17.878  0.00  0.00    +0.000 NA
ATOM      3  C   UNL     1       2.033   8.872  18.624  0.00  0.00    +0.000 A 
ATOM      4  N   UNL     1       1.610   7.953  19.575  0.00  0.00    +0.000 N 
ATOM      5  C   UNL     1       2.292   6.752  19.366  0.00  0.00    +0.000 A 
ENDROOT
BRANCH   5   6
ATOM      6  C   UNL     1       2.024   5.455  20.029  0.00  0.00    +0.000 A 
ATOM      7  C   UNL     1       1.123   4.535  19.455  0.00  0.00    +0.000 A 
ATOM      8  C   UNL     1       0.911   3.270  20.013  0.00  0.00    +0.000 A 
ATOM      9  C   UNL     1       1.534   2.941  21.204  0.00  0.00    +0.000 A 
ATOM     10  F   UNL     1       1.307   1.747  21.767  0.00  0.00    +0.000 F 
ATOM     11  C   UNL     1       2.406   3.831  21.812  0.00  0.00    +0.000 A 
ATOM     12  C   UNL     1       2.683   5.060  21.202  0.00  0.00    +0.000 A 
ENDBRANCH   5   6
BRANCH   1  16
ATOM     13  C   UNL     1       5.842   4.604  16.059  0.00  0.00    +0.000 A 
ATOM     14  C   UNL     1       4.570   4.138  16.393  0.00  0.00    +0.000 A 
ATOM     15  C   UNL     1       3.724   4.895  17.210  0.00  0.00    +0.000 A 
ATOM     16  C   UNL     1       4.119   6.160  17.664  0.00  0.00    +0.000 A 
ATOM     17  C   UNL     1       5.429   6.581  17.399  0.00  0.00    +0.000 A 
ATOM     18  C   UNL     1       6.288   5.808  16.603  0.00  0.00    +0.000 A 
BRANCH  13  20
ATOM     19  C   UNL     1       6.190   3.824  13.847  0.00  0.00    +0.000 C 
ATOM     20  O   UNL     1       6.553   3.787  15.224  0.00  0.00    +0.000 OA
ENDBRANCH  13  20
ENDBRANCH   1  16
BRANCH   3  21
ATOM     21  C   UNL     1       1.434  10.243  18.487  0.00  0.00    +0.000 C 
ATOM     22  F   UNL     1       1.482  10.967  19.632  0.00  0.00    +0.000 F 
ATOM     23  F   UNL     1       2.069  10.982  17.536  0.00  0.00    +0.000 F 
ATOM     24  F   UNL     1       0.127  10.189  18.113  0.00  0.00    +0.000 F 
ENDBRANCH   3  21
BRANCH   4  25
ATOM     25  C   UNL     1       0.544   8.224  20.538  0.00  0.00    +0.000 C 
BRANCH  25  26
ATOM     26  C   UNL     1       1.083   8.826  21.827  0.00  0.00    +0.000 C 
BRANCH  26  27
ATOM     27  C   UNL     1       0.018   9.564  22.644  0.00  0.00    +0.000 C 
BRANCH  27  28
ATOM     28  O   UNL     1       0.332   9.472  24.032  0.00  0.00    +0.000 OA
ATOM     29  H   UNL     1      -0.384   9.887  24.546  0.00  0.00    +0.000 HD
ENDBRANCH  27  28
BRANCH  27  30
ATOM     30  C   UNL     1      -0.077  11.049  22.257  0.00  0.00    +0.000 C 
BRANCH  30  31
ATOM     31  C   UNL     1      -1.494  11.486  21.865  0.00  0.00    +0.000 C 
BRANCH  31  32
ATOM     32  O   UNL     1      -1.902  12.577  22.692  0.00  0.00    +0.000 OA
ATOM     33  H   UNL     1      -2.644  12.283  23.252  0.00  0.00    +0.000 HD
ENDBRANCH  31  32
BRANCH  31  34
ATOM     34  C   UNL     1      -1.609  11.909  20.397  0.00  0.00    +0.000 C 
BRANCH  34  35
ATOM     35  C   UNL     1      -2.704  12.933  20.210  0.00  0.00    +0.000 C 
ATOM     36  O   UNL     1      -3.899  12.689  20.241  0.00  0.00    +0.000 OA
BRANCH  35  37
ATOM     37  O   UNL     1      -2.225  14.176  20.004  0.00  0.00    +0.000 OA
ATOM     38  H   UNL     1      -1.392  14.377  20.473  0.00  0.00    +0.000 HD
ENDBRANCH  35  37
ENDBRANCH  34  35
ENDBRANCH  31  34
ENDBRANCH  30  31
ENDBRANCH  27  30
ENDBRANCH  26  27
ENDBRANCH  25  26
ENDBRANCH   4  25
TORSDOF 14
ENDMDL
MODEL 9
REMARK VINA RESULT:      -7.0      1.413      1.717
REMARK  Name = 
REMARK  15 active torsions:
REMARK  status: ('A' for Active; 'I' for Inactive)
REMARK    1  A    between atoms: C_1  and  O_2
REMARK    2  A    between atoms: O_2  and  C_3
REMARK    3  A    between atoms: C_6  and  C_7
REMARK    4  A    between atoms: C_9  and  C_10
REMARK    5  A    between atoms: N_14  and  C_15
REMARK    6  A    between atoms: C_15  and  C_16
REMARK    7  A    between atoms: C_16  and  C_17
REMARK    8  A    between atoms: C_17  and  O_18
REMARK    9  A    between atoms: C_17  and  C_19
REMARK   10  A    between atoms: C_19  and  C_20
REMARK   11  A    between atoms: C_20  and  O_21
REMARK   12  A    between atoms: C_20  and  C_22
REMARK   13  A    between atoms: C_22  and  C_23
REMARK   14  A    between atoms: C_23  and  O_25
REMARK   15  A    between atoms: C_26  and  C_27
REMARK                            x       y       z     vdW  Elec       q    Type
REMARK                         _______ _______ _______ _____ _____    ______ ____
ROOT
ATOM      1  C   UNL     1       3.267   7.223  17.969  0.00  0.00    +0.000 A 
ATOM      2  N   UNL     1       3.094   8.536  17.611  0.00  0.00    +0.000 NA
ATOM      3  C   UNL     1       2.130   9.014  18.378  0.00  0.00    +0.000 A 
ATOM      4  N   UNL     1       1.687   8.035  19.257  0.00  0.00    +0.000 N 
ATOM      5  C   UNL     1       2.364   6.846  18.974  0.00  0.00    +0.000 A 
ENDROOT
BRANCH   5   6
ATOM      6  C   UNL     1       2.078   5.508  19.543  0.00  0.00    +0.000 A 
ATOM      7  C   UNL     1       1.450   4.521  18.757  0.00  0.00    +0.000 A 
ATOM      8  C   UNL     1       1.240   3.223  19.237  0.00  0.00    +0.000 A 
ATOM      9  C   UNL     1       1.579   2.922  20.545  0.00  0.00    +0.000 A 
ATOM     10  F   UNL     1       1.347   1.694  21.026  0.00  0.00    +0.000 F 
ATOM     11  C   UNL     1       2.175   3.875  21.356  0.00  0.00    +0.000 A 
ATOM     12  C   UNL     1       2.464   5.144  20.841  0.00  0.00    +0.000 A 
ENDBRANCH   5   6
BRANCH   1  16
ATOM     13  C   UNL     1       5.731   4.591  15.669  0.00  0.00    +0.000 A 
ATOM     14  C   UNL     1       5.213   4.175  16.896  0.00  0.00    +0.000 A 
ATOM     15  C   UNL     1       4.483   5.056  17.699  0.00  0.00    +0.000 A 
ATOM     16  C   UNL     1       4.212   6.358  17.262  0.00  0.00    +0.000 A 
ATOM     17  C   UNL     1       4.811   6.798  16.073  0.00  0.00    +0.000 A 
ATOM     18  C   UNL     1       5.567   5.921  15.281  0.00  0.00    +0.000 A 
BRANCH  13  20
ATOM     19  C   UNL     1       6.328   3.723  13.546  0.00  0.00    +0.000 C 
ATOM     20  O   UNL     1       6.391   3.623  14.965  0.00  0.00    +0.000 OA
ENDBRANCH  13  20
ENDBRANCH   1  16
BRANCH   3  21
ATOM     21  C   UNL     1       1.542  10.395  18.326  0.00  0.00    +0.000 C 
ATOM     22  F   UNL     1       0.236  10.411  17.964  0.00  0.00    +0.000 F 
ATOM     23  F   UNL     1       1.617  11.025  19.531  0.00  0.00    +0.000 F 
ATOM     24  F   UNL     1       2.202  11.193  17.442  0.00  0.00    +0.000 F 
ENDBRANCH   3  21
BRANCH   4  25
ATOM     25  C   UNL     1       0.608   8.247  20.220  0.00  0.00    +0.000 C 
BRANCH  25  26
ATOM     26  C   UNL     1       1.143   8.597  21.601  0.00  0.00    +0.000 C 
BRANCH  26  27
ATOM     27  C   UNL     1       0.098   9.260  22.505  0.00  0.00    +0.000 C 
BRANCH  27  28
ATOM     28  O   UNL     1       0.753   9.932  23.579  0.00  0.00    +0.000 OA
ATOM     29  H   UNL     1       1.242   9.278  24.110  0.00  0.00    +0.000 HD
ENDBRANCH  27  28
BRANCH  27  30
ATOM     30  C   UNL     1      -0.763  10.277  21.737  0.00  0.00    +0.000 C 
BRANCH  30  31
ATOM     31  C   UNL     1      -0.705  11.691  22.329  0.00  0.00    +0.000 C 
BRANCH  31  32
ATOM     32  O   UNL     1       0.543  12.298  21.992  0.00  0.00    +0.000 OA
ATOM     33  H   UNL     1       0.422  12.830  21.184  0.00  0.00    +0.000 HD
ENDBRANCH  31  32
BRANCH  31  34
ATOM     34  C   UNL     1      -1.843  12.594  21.841  0.00  0.00    +0.000 C 
BRANCH  34  35
ATOM     35  C   UNL     1      -1.738  12.845  20.354  0.00  0.00    +0.000 C 
ATOM     36  O   UNL     1      -0.717  13.176  19.774  0.00  0.00    +0.000 OA
BRANCH  35  37
ATOM     37  O   UNL     1      -2.907  12.660  19.711  0.00  0.00    +0.000 OA
ATOM     38  H   UNL     1      -3.507  13.431  19.721  0.00  0.00    +0.000 HD
ENDBRANCH  35  37
ENDBRANCH  34  35
ENDBRANCH  31  34
ENDBRANCH  30  31
ENDBRANCH  27  30
ENDBRANCH  26  27
ENDBRANCH  25  26
ENDBRANCH   4  25
TORSDOF 14
ENDMDL
