MODEL 1
REMARK VINA RESULT:      -7.7      0.000      0.000
REMARK  Name = 
REMARK  3 active torsions:
REMARK  status: ('A' for Active; 'I' for Inactive)
REMARK    1  A    between atoms: C_1  and  C_2
REMARK    2  A    between atoms: N_4  and  C_5
REMARK    3  A    between atoms: C_8  and  C_9
REMARK                            x       y       z     vdW  Elec       q    Type
REMARK                         _______ _______ _______ _____ _____    ______ ____
ROOT
ATOM      1  C   UNL     1       6.051   4.022  14.440  0.00  0.00    +0.000 A 
ATOM      2  C   UNL     1       5.939   5.391  14.483  0.00  0.00    +0.000 A 
ATOM      3  C   UNL     1       5.593   5.721  15.818  0.00  0.00    +0.000 A 
ATOM      4  C   UNL     1       5.503   4.528  16.516  0.00  0.00    +0.000 A 
ATOM      5  O   UNL     1       5.811   3.504  15.667  0.00  0.00    +0.000 OA
ENDROOT
BRANCH   4   6
ATOM      6  C   UNL     1       5.245   4.280  17.927  0.00  0.00    +0.000 C 
ATOM      7  O   UNL     1       6.193   4.207  18.715  0.00  0.00    +0.000 OA
ATOM      8  N   UNL     1       3.915   4.177  18.394  0.00  0.00    +0.000 N 
ATOM      9  C   UNL     1       3.708   4.036  19.835  0.00  0.00    +0.000 C 
ATOM     10  C   UNL     1       3.264   2.627  20.221  0.00  0.00    +0.000 C 
ATOM     11  C   UNL     1       1.792   2.329  19.940  0.00  0.00    +0.000 C 
ATOM     12  C   UNL     1       1.366   2.531  18.489  0.00  0.00    +0.000 C 
ATOM     13  C   UNL     1       1.387   4.001  18.076  0.00  0.00    +0.000 C 
ATOM     14  C   UNL     1       2.747   4.456  17.553  0.00  0.00    +0.000 C 
ENDBRANCH   4   6
BRANCH   1  18
ATOM     15  C   UNL     1       6.086   1.906  11.398  0.00  0.00    +0.000 C 
ATOM     16  C   UNL     1       5.575   2.998  12.304  0.00  0.00    +0.000 C 
ATOM     17  O   UNL     1       4.549   3.607  12.024  0.00  0.00    +0.000 OA
ATOM     18  N   UNL     1       6.386   3.181  13.410  0.00  0.00    +0.000 N 
ATOM     19  H   UNL     1       7.287   2.728  13.452  0.00  0.00    +0.000 HD
ENDBRANCH   1  18
TORSDOF 2
ENDMDL
MODEL 2
REMARK VINA RESULT:      -7.6      2.600      4.273
REMARK  Name = 
REMARK  3 active torsions:
REMARK  status: ('A' for Active; 'I' for Inactive)
REMARK    1  A    between atoms: C_1  and  C_2
REMARK    2  A    between atoms: N_4  and  C_5
REMARK    3  A    between atoms: C_8  and  C_9
REMARK                            x       y       z     vdW  Elec       q    Type
REMARK                         _______ _______ _______ _____ _____    ______ ____
ROOT
ATOM      1  C   UNL     1       6.002   5.567  16.563  0.00  0.00    +0.000 A 
ATOM      2  C   UNL     1       6.471   4.434  15.943  0.00  0.00    +0.000 A 
ATOM      3  C   UNL     1       5.459   3.452  16.091  0.00  0.00    +0.000 A 
ATOM      4  C   UNL     1       4.428   4.040  16.806  0.00  0.00    +0.000 A 
ATOM      5  O   UNL     1       4.765   5.338  17.062  0.00  0.00    +0.000 OA
ENDROOT
BRANCH   4   6
ATOM      6  C   UNL     1       3.125   3.516  17.183  0.00  0.00    +0.000 C 
ATOM      7  O   UNL     1       2.196   3.551  16.370  0.00  0.00    +0.000 OA
ATOM      8  N   UNL     1       2.942   2.924  18.454  0.00  0.00    +0.000 N 
ATOM      9  C   UNL     1       1.643   2.315  18.742  0.00  0.00    +0.000 C 
ATOM     10  C   UNL     1       0.824   3.142  19.730  0.00  0.00    +0.000 C 
ATOM     11  C   UNL     1       1.259   2.998  21.187  0.00  0.00    +0.000 C 
ATOM     12  C   UNL     1       2.722   3.340  21.452  0.00  0.00    +0.000 C 
ATOM     13  C   UNL     1       3.678   2.328  20.825  0.00  0.00    +0.000 C 
ATOM     14  C   UNL     1       4.046   2.667  19.383  0.00  0.00    +0.000 C 
ENDBRANCH   4   6
BRANCH   1  18
ATOM     15  C   UNL     1       7.790   8.594  17.735  0.00  0.00    +0.000 C 
ATOM     16  C   UNL     1       7.449   7.125  17.710  0.00  0.00    +0.000 C 
ATOM     17  O   UNL     1       7.944   6.360  18.529  0.00  0.00    +0.000 OA
ATOM     18  N   UNL     1       6.560   6.812  16.697  0.00  0.00    +0.000 N 
ATOM     19  H   UNL     1       6.345   7.499  15.988  0.00  0.00    +0.000 HD
ENDBRANCH   1  18
TORSDOF 2
ENDMDL
MODEL 3
REMARK VINA RESULT:      -7.4      1.809      2.240
REMARK  Name = 
REMARK  3 active torsions:
REMARK  status: ('A' for Active; 'I' for Inactive)
REMARK    1  A    between atoms: C_1  and  C_2
REMARK    2  A    between atoms: N_4  and  C_5
REMARK    3  A    between atoms: C_8  and  C_9
REMARK                            x       y       z     vdW  Elec       q    Type
REMARK                         _______ _______ _______ _____ _____    ______ ____
ROOT
ATOM      1  C   UNL     1       6.213   4.181  15.588  0.00  0.00    +0.000 A 
ATOM      2  C   UNL     1       7.148   4.390  16.574  0.00  0.00    +0.000 A 
ATOM      3  C   UNL     1       6.447   4.945  17.675  0.00  0.00    +0.000 A 
ATOM      4  C   UNL     1       5.120   5.054  17.294  0.00  0.00    +0.000 A 
ATOM      5  O   UNL     1       4.991   4.559  16.028  0.00  0.00    +0.000 OA
ENDROOT
BRANCH   4   6
ATOM      6  C   UNL     1       3.957   5.493  18.049  0.00  0.00    +0.000 C 
ATOM      7  O   UNL     1       3.671   6.694  18.083  0.00  0.00    +0.000 OA
ATOM      8  N   UNL     1       3.133   4.542  18.693  0.00  0.00    +0.000 N 
ATOM      9  C   UNL     1       1.917   5.026  19.348  0.00  0.00    +0.000 C 
ATOM     10  C   UNL     1       2.028   4.998  20.870  0.00  0.00    +0.000 C 
ATOM     11  C   UNL     1       1.859   3.613  21.490  0.00  0.00    +0.000 C 
ATOM     12  C   UNL     1       2.830   2.557  20.970  0.00  0.00    +0.000 C 
ATOM     13  C   UNL     1       2.563   2.191  19.511  0.00  0.00    +0.000 C 
ATOM     14  C   UNL     1       3.297   3.096  18.524  0.00  0.00    +0.000 C 
ENDBRANCH   4   6
BRANCH   1  18
ATOM     15  C   UNL     1       6.814   3.593  11.979  0.00  0.00    +0.000 C 
ATOM     16  C   UNL     1       6.947   4.325  13.290  0.00  0.00    +0.000 C 
ATOM     17  O   UNL     1       7.540   5.396  13.345  0.00  0.00    +0.000 OA
ATOM     18  N   UNL     1       6.340   3.646  14.332  0.00  0.00    +0.000 N 
ATOM     19  H   UNL     1       6.020   2.698  14.194  0.00  0.00    +0.000 HD
ENDBRANCH   1  18
TORSDOF 2
ENDMDL
MODEL 4
REMARK VINA RESULT:      -7.4      1.993      2.440
REMARK  Name = 
REMARK  3 active torsions:
REMARK  status: ('A' for Active; 'I' for Inactive)
REMARK    1  A    between atoms: C_1  and  C_2
REMARK    2  A    between atoms: N_4  and  C_5
REMARK    3  A    between atoms: C_8  and  C_9
REMARK                            x       y       z     vdW  Elec       q    Type
REMARK                         _______ _______ _______ _____ _____    ______ ____
ROOT
ATOM      1  C   UNL     1       6.869   5.304  16.209  0.00  0.00    +0.000 A 
ATOM      2  C   UNL     1       7.404   4.690  17.316  0.00  0.00    +0.000 A 
ATOM      3  C   UNL     1       6.397   4.717  18.313  0.00  0.00    +0.000 A 
ATOM      4  C   UNL     1       5.301   5.359  17.760  0.00  0.00    +0.000 A 
ATOM      5  O   UNL     1       5.597   5.686  16.468  0.00  0.00    +0.000 OA
ENDROOT
BRANCH   4   6
ATOM      6  C   UNL     1       3.976   5.603  18.310  0.00  0.00    +0.000 C 
ATOM      7  O   UNL     1       3.699   6.720  18.757  0.00  0.00    +0.000 OA
ATOM      8  N   UNL     1       3.001   4.580  18.283  0.00  0.00    +0.000 N 
ATOM      9  C   UNL     1       1.654   4.910  18.750  0.00  0.00    +0.000 C 
ATOM     10  C   UNL     1       1.339   4.279  20.104  0.00  0.00    +0.000 C 
ATOM     11  C   UNL     1       0.997   2.792  20.044  0.00  0.00    +0.000 C 
ATOM     12  C   UNL     1       2.068   1.916  19.401  0.00  0.00    +0.000 C 
ATOM     13  C   UNL     1       2.214   2.180  17.904  0.00  0.00    +0.000 C 
ATOM     14  C   UNL     1       3.197   3.305  17.588  0.00  0.00    +0.000 C 
ENDBRANCH   4   6
BRANCH   1  18
ATOM     15  C   UNL     1       7.890   5.107  12.653  0.00  0.00    +0.000 C 
ATOM     16  C   UNL     1       7.053   4.769  13.860  0.00  0.00    +0.000 C 
ATOM     17  O   UNL     1       6.185   3.907  13.792  0.00  0.00    +0.000 OA
ATOM     18  N   UNL     1       7.398   5.528  14.965  0.00  0.00    +0.000 N 
ATOM     19  H   UNL     1       8.022   6.316  14.857  0.00  0.00    +0.000 HD
ENDBRANCH   1  18
TORSDOF 2
ENDMDL
MODEL 5
REMARK VINA RESULT:      -7.1      1.192      1.218
REMARK  Name = 
REMARK  3 active torsions:
REMARK  status: ('A' for Active; 'I' for Inactive)
REMARK    1  A    between atoms: C_1  and  C_2
REMARK    2  A    between atoms: N_4  and  C_5
REMARK    3  A    between atoms: C_8  and  C_9
REMARK                            x       y       z     vdW  Elec       q    Type
REMARK                         _______ _______ _______ _____ _____    ______ ____
ROOT
ATOM      1  C   UNL     1       6.261   4.130  15.374  0.00  0.00    +0.000 A 
ATOM      2  C   UNL     1       7.100   5.179  15.666  0.00  0.00    +0.000 A 
ATOM      3  C   UNL     1       6.822   5.551  17.005  0.00  0.00    +0.000 A 
ATOM      4  C   UNL     1       5.816   4.711  17.455  0.00  0.00    +0.000 A 
ATOM      5  O   UNL     1       5.505   3.834  16.457  0.00  0.00    +0.000 OA
ENDROOT
BRANCH   4   6
ATOM      6  C   UNL     1       5.195   4.604  18.767  0.00  0.00    +0.000 C 
ATOM      7  O   UNL     1       5.902   4.634  19.779  0.00  0.00    +0.000 OA
ATOM      8  N   UNL     1       3.789   4.520  18.877  0.00  0.00    +0.000 N 
ATOM      9  C   UNL     1       3.209   4.525  20.221  0.00  0.00    +0.000 C 
ATOM     10  C   UNL     1       2.671   3.154  20.623  0.00  0.00    +0.000 C 
ATOM     11  C   UNL     1       1.324   2.796  20.000  0.00  0.00    +0.000 C 
ATOM     12  C   UNL     1       1.295   2.837  18.474  0.00  0.00    +0.000 C 
ATOM     13  C   UNL     1       1.432   4.256  17.929  0.00  0.00    +0.000 C 
ATOM     14  C   UNL     1       2.885   4.685  17.735  0.00  0.00    +0.000 C 
ENDBRANCH   4   6
BRANCH   1  18
ATOM     15  C   UNL     1       6.177   2.877  11.888  0.00  0.00    +0.000 C 
ATOM     16  C   UNL     1       6.590   3.805  13.003  0.00  0.00    +0.000 C 
ATOM     17  O   UNL     1       7.258   4.803  12.763  0.00  0.00    +0.000 OA
ATOM     18  N   UNL     1       6.127   3.379  14.235  0.00  0.00    +0.000 N 
ATOM     19  H   UNL     1       5.720   2.459  14.328  0.00  0.00    +0.000 HD
ENDBRANCH   1  18
TORSDOF 2
ENDMDL
MODEL 6
REMARK VINA RESULT:      -7.1      1.601      1.747
REMARK  Name = 
REMARK  3 active torsions:
REMARK  status: ('A' for Active; 'I' for Inactive)
REMARK    1  A    between atoms: C_1  and  C_2
REMARK    2  A    between atoms: N_4  and  C_5
REMARK    3  A    between atoms: C_8  and  C_9
REMARK                            x       y       z     vdW  Elec       q    Type
REMARK                         _______ _______ _______ _____ _____    ______ ____
ROOT
ATOM      1  C   UNL     1       5.352   5.194  15.336  0.00  0.00    +0.000 A 
ATOM      2  C   UNL     1       5.271   6.558  15.486  0.00  0.00    +0.000 A 
ATOM      3  C   UNL     1       4.881   6.788  16.830  0.00  0.00    +0.000 A 
ATOM      4  C   UNL     1       4.734   5.545  17.425  0.00  0.00    +0.000 A 
ATOM      5  O   UNL     1       5.052   4.586  16.508  0.00  0.00    +0.000 OA
ENDROOT
BRANCH   4   6
ATOM      6  C   UNL     1       4.415   5.192  18.800  0.00  0.00    +0.000 C 
ATOM      7  O   UNL     1       5.240   5.412  19.692  0.00  0.00    +0.000 OA
ATOM      8  N   UNL     1       3.149   4.648  19.113  0.00  0.00    +0.000 N 
ATOM      9  C   UNL     1       2.839   4.411  20.524  0.00  0.00    +0.000 C 
ATOM     10  C   UNL     1       2.840   2.926  20.874  0.00  0.00    +0.000 C 
ATOM     11  C   UNL     1       1.589   2.171  20.431  0.00  0.00    +0.000 C 
ATOM     12  C   UNL     1       1.285   2.258  18.938  0.00  0.00    +0.000 C 
ATOM     13  C   UNL     1       0.870   3.664  18.511  0.00  0.00    +0.000 C 
ATOM     14  C   UNL     1       2.056   4.551  18.141  0.00  0.00    +0.000 C 
ENDBRANCH   4   6
BRANCH   1  18
ATOM     15  C   UNL     1       6.969   3.770  12.321  0.00  0.00    +0.000 C 
ATOM     16  C   UNL     1       6.890   4.623  13.562  0.00  0.00    +0.000 C 
ATOM     17  O   UNL     1       7.809   5.378  13.855  0.00  0.00    +0.000 OA
ATOM     18  N   UNL     1       5.707   4.430  14.255  0.00  0.00    +0.000 N 
ATOM     19  H   UNL     1       5.096   3.668  14.000  0.00  0.00    +0.000 HD
ENDBRANCH   1  18
TORSDOF 2
ENDMDL
MODEL 7
REMARK VINA RESULT:      -7.0      3.017      4.484
REMARK  Name = 
REMARK  3 active torsions:
REMARK  status: ('A' for Active; 'I' for Inactive)
REMARK    1  A    between atoms: C_1  and  C_2
REMARK    2  A    between atoms: N_4  and  C_5
REMARK    3  A    between atoms: C_8  and  C_9
REMARK                            x       y       z     vdW  Elec       q    Type
REMARK                         _______ _______ _______ _____ _____    ______ ____
ROOT
ATOM      1  C   UNL     1       5.911   6.449  16.829  0.00  0.00    +0.000 A 
ATOM      2  C   UNL     1       5.974   5.346  16.010  0.00  0.00    +0.000 A 
ATOM      3  C   UNL     1       4.798   4.596  16.263  0.00  0.00    +0.000 A 
ATOM      4  C   UNL     1       4.085   5.280  17.233  0.00  0.00    +0.000 A 
ATOM      5  O   UNL     1       4.765   6.421  17.547  0.00  0.00    +0.000 OA
ENDROOT
BRANCH   4   6
ATOM      6  C   UNL     1       2.781   5.000  17.816  0.00  0.00    +0.000 C 
ATOM      7  O   UNL     1       1.826   5.736  17.553  0.00  0.00    +0.000 OA
ATOM      8  N   UNL     1       2.604   3.862  18.636  0.00  0.00    +0.000 N 
ATOM      9  C   UNL     1       1.251   3.566  19.108  0.00  0.00    +0.000 C 
ATOM     10  C   UNL     1       1.081   3.860  20.597  0.00  0.00    +0.000 C 
ATOM     11  C   UNL     1       1.678   2.802  21.522  0.00  0.00    +0.000 C 
ATOM     12  C   UNL     1       3.165   2.531  21.306  0.00  0.00    +0.000 C 
ATOM     13  C   UNL     1       3.443   1.851  19.967  0.00  0.00    +0.000 C 
ATOM     14  C   UNL     1       3.639   2.841  18.822  0.00  0.00    +0.000 C 
ENDBRANCH   4   6
BRANCH   1  18
ATOM     15  C   UNL     1       8.436   8.892  18.008  0.00  0.00    +0.000 C 
ATOM     16  C   UNL     1       7.736   7.557  17.961  0.00  0.00    +0.000 C 
ATOM     17  O   UNL     1       8.045   6.667  18.743  0.00  0.00    +0.000 OA
ATOM     18  N   UNL     1       6.769   7.509  16.972  0.00  0.00    +0.000 N 
ATOM     19  H   UNL     1       6.713   8.250  16.288  0.00  0.00    +0.000 HD
ENDBRANCH   1  18
TORSDOF 2
ENDMDL
MODEL 8
REMARK VINA RESULT:      -7.0      4.564      7.339
REMARK  Name = 
REMARK  3 active torsions:
REMARK  status: ('A' for Active; 'I' for Inactive)
REMARK    1  A    between atoms: C_1  and  C_2
REMARK    2  A    between atoms: N_4  and  C_5
REMARK    3  A    between atoms: C_8  and  C_9
REMARK                            x       y       z     vdW  Elec       q    Type
REMARK                         _______ _______ _______ _____ _____    ______ ____
ROOT
ATOM      1  C   UNL     1       1.340   9.022  20.087  0.00  0.00    +0.000 A 
ATOM      2  C   UNL     1       1.139   9.356  18.769  0.00  0.00    +0.000 A 
ATOM      3  C   UNL     1       1.829   8.384  18.003  0.00  0.00    +0.000 A 
ATOM      4  C   UNL     1       2.424   7.512  18.900  0.00  0.00    +0.000 A 
ATOM      5  O   UNL     1       2.093   7.901  20.166  0.00  0.00    +0.000 OA
ENDROOT
BRANCH   4   6
ATOM      6  C   UNL     1       3.193   6.300  18.666  0.00  0.00    +0.000 C 
ATOM      7  O   UNL     1       4.228   6.355  17.993  0.00  0.00    +0.000 OA
ATOM      8  N   UNL     1       2.783   5.079  19.249  0.00  0.00    +0.000 N 
ATOM      9  C   UNL     1       3.650   3.914  19.072  0.00  0.00    +0.000 C 
ATOM     10  C   UNL     1       3.059   2.896  18.100  0.00  0.00    +0.000 C 
ATOM     11  C   UNL     1       1.948   2.030  18.688  0.00  0.00    +0.000 C 
ATOM     12  C   UNL     1       0.768   2.809  19.263  0.00  0.00    +0.000 C 
ATOM     13  C   UNL     1       1.143   3.590  20.520  0.00  0.00    +0.000 C 
ATOM     14  C   UNL     1       1.688   4.984  20.219  0.00  0.00    +0.000 C 
ENDBRANCH   4   6
BRANCH   1  18
ATOM     15  C   UNL     1      -0.600  10.013  23.086  0.00  0.00    +0.000 C 
ATOM     16  C   UNL     1      -0.192   9.103  21.955  0.00  0.00    +0.000 C 
ATOM     17  O   UNL     1      -0.792   8.054  21.755  0.00  0.00    +0.000 OA
ATOM     18  N   UNL     1       0.881   9.606  21.240  0.00  0.00    +0.000 N 
ATOM     19  H   UNL     1       1.391  10.403  21.594  0.00  0.00    +0.000 HD
ENDBRANCH   1  18
TORSDOF 2
ENDMDL
MODEL 9
REMARK VINA RESULT:      -6.7      1.854      2.446
REMARK  Name = 
REMARK  3 active torsions:
REMARK  status: ('A' for Active; 'I' for Inactive)
REMARK    1  A    between atoms: C_1  and  C_2
REMARK    2  A    between atoms: N_4  and  C_5
REMARK    3  A    between atoms: C_8  and  C_9
REMARK                            x       y       z     vdW  Elec       q    Type
REMARK                         _______ _______ _______ _____ _____    ______ ____
ROOT
ATOM      1  C   UNL     1       7.128   5.315  16.868  0.00  0.00    +0.000 A 
ATOM      2  C   UNL     1       7.535   6.077  17.938  0.00  0.00    +0.000 A 
ATOM      3  C   UNL     1       6.792   5.622  19.056  0.00  0.00    +0.000 A 
ATOM      4  C   UNL     1       5.961   4.610  18.603  0.00  0.00    +0.000 A 
ATOM      5  O   UNL     1       6.198   4.419  17.272  0.00  0.00    +0.000 OA
ENDROOT
BRANCH   4   6
ATOM      6  C   UNL     1       5.038   3.753  19.331  0.00  0.00    +0.000 C 
ATOM      7  O   UNL     1       5.482   2.839  20.034  0.00  0.00    +0.000 OA
ATOM      8  N   UNL     1       3.648   4.001  19.271  0.00  0.00    +0.000 N 
ATOM      9  C   UNL     1       2.772   3.178  20.106  0.00  0.00    +0.000 C 
ATOM     10  C   UNL     1       1.969   2.171  19.286  0.00  0.00    +0.000 C 
ATOM     11  C   UNL     1       0.772   2.768  18.550  0.00  0.00    +0.000 C 
ATOM     12  C   UNL     1       1.112   3.917  17.605  0.00  0.00    +0.000 C 
ATOM     13  C   UNL     1       1.571   5.168  18.352  0.00  0.00    +0.000 C 
ATOM     14  C   UNL     1       3.073   5.184  18.625  0.00  0.00    +0.000 C 
ENDBRANCH   4   6
BRANCH   1  18
ATOM     15  C   UNL     1       7.430   4.885  13.200  0.00  0.00    +0.000 C 
ATOM     16  C   UNL     1       6.700   4.957  14.517  0.00  0.00    +0.000 C 
ATOM     17  O   UNL     1       5.502   4.709  14.576  0.00  0.00    +0.000 OA
ATOM     18  N   UNL     1       7.536   5.317  15.559  0.00  0.00    +0.000 N 
ATOM     19  H   UNL     1       8.469   5.649  15.362  0.00  0.00    +0.000 HD
ENDBRANCH   1  18
TORSDOF 2
ENDMDL
