MODEL 1
REMARK VINA RESULT:      -6.1      0.000      0.000
REMARK  Name = 
REMARK  4 active torsions:
REMARK  status: ('A' for Active; 'I' for Inactive)
REMARK    1  A    between atoms: N_1  and  C_2
REMARK    2  A    between atoms: C_3  and  N_4
REMARK    3  A    between atoms: C_9  and  N_10
REMARK    4  A    between atoms: C_11  and  N_12
REMARK                            x       y       z     vdW  Elec       q    Type
REMARK                         _______ _______ _______ _____ _____    ______ ____
ROOT
ATOM      1  C   UNL     1       3.558   6.106  18.632  0.00  0.00    +0.000 C 
ATOM      2  C   UNL     1       4.786   5.746  18.200  0.00  0.00    +0.000 C 
ATOM      3  C   UNL     1       5.415   4.536  18.823  0.00  0.00    +0.000 C 
ATOM      4  O   UNL     1       6.610   4.263  18.713  0.00  0.00    +0.000 OA
ATOM      5  C   UNL     1       4.521   3.559  19.536  0.00  0.00    +0.000 C 
ATOM      6  C   UNL     1       3.245   3.865  19.855  0.00  0.00    +0.000 C 
ATOM      7  C   UNL     1       2.800   5.280  19.636  0.00  0.00    +0.000 C 
ATOM      8  O   UNL     1       1.851   5.797  20.227  0.00  0.00    +0.000 OA
ENDROOT
BRANCH   1   9
ATOM      9  N   UNL     1       2.918   7.277  18.199  0.00  0.00    +0.000 N 
ATOM     10  H   UNL     1       2.837   7.952  18.962  0.00  0.00    +0.000 HD
ATOM     11  H   UNL     1       2.024   7.055  17.757  0.00  0.00    +0.000 HD
ENDBRANCH   1   9
BRANCH   2  12
ATOM     12  N   UNL     1       5.448   6.550  17.256  0.00  0.00    +0.000 N 
ATOM     13  C   UNL     1       6.636   6.163  16.511  0.00  0.00    +0.000 C 
ATOM     14  C   UNL     1       5.290   6.146  15.851  0.00  0.00    +0.000 C 
ENDBRANCH   2  12
BRANCH   5  15
ATOM     15  N   UNL     1       5.084   2.309  19.808  0.00  0.00    +0.000 N 
ATOM     16  H   UNL     1       4.379   1.579  19.910  0.00  0.00    +0.000 HD
ATOM     17  H   UNL     1       5.784   2.352  20.545  0.00  0.00    +0.000 HD
ENDBRANCH   5  15
BRANCH   6  18
ATOM     18  N   UNL     1       2.382   2.857  20.297  0.00  0.00    +0.000 N 
ATOM     19  C   UNL     1       1.944   2.871  21.689  0.00  0.00    +0.000 C 
ATOM     20  C   UNL     1       0.965   3.024  20.552  0.00  0.00    +0.000 C 
ENDBRANCH   6  18
TORSDOF 4
ENDMDL
MODEL 2
REMARK VINA RESULT:      -6.0      0.424      5.263
REMARK  Name = 
REMARK  4 active torsions:
REMARK  status: ('A' for Active; 'I' for Inactive)
REMARK    1  A    between atoms: N_1  and  C_2
REMARK    2  A    between atoms: C_3  and  N_4
REMARK    3  A    between atoms: C_9  and  N_10
REMARK    4  A    between atoms: C_11  and  N_12
REMARK                            x       y       z     vdW  Elec       q    Type
REMARK                         _______ _______ _______ _____ _____    ______ ____
ROOT
ATOM      1  C   UNL     1       4.600   3.570  19.468  0.00  0.00    +0.000 C 
ATOM      2  C   UNL     1       3.335   3.913  19.794  0.00  0.00    +0.000 C 
ATOM      3  C   UNL     1       2.910   5.327  19.537  0.00  0.00    +0.000 C 
ATOM      4  O   UNL     1       1.895   5.827  20.023  0.00  0.00    +0.000 OA
ATOM      5  C   UNL     1       3.712   6.143  18.562  0.00  0.00    +0.000 C 
ATOM      6  C   UNL     1       4.926   5.741  18.127  0.00  0.00    +0.000 C 
ATOM      7  C   UNL     1       5.530   4.537  18.787  0.00  0.00    +0.000 C 
ATOM      8  O   UNL     1       6.738   4.299  18.797  0.00  0.00    +0.000 OA
ENDROOT
BRANCH   1   9
ATOM      9  N   UNL     1       5.139   2.308  19.758  0.00  0.00    +0.000 N 
ATOM     10  H   UNL     1       4.479   1.744  20.296  0.00  0.00    +0.000 HD
ATOM     11  H   UNL     1       6.052   2.402  20.207  0.00  0.00    +0.000 HD
ENDBRANCH   1   9
BRANCH   2  12
ATOM     12  N   UNL     1       2.505   2.968  20.422  0.00  0.00    +0.000 N 
ATOM     13  C   UNL     1       1.063   3.086  20.570  0.00  0.00    +0.000 C 
ATOM     14  C   UNL     1       1.645   2.179  19.529  0.00  0.00    +0.000 C 
ENDBRANCH   2  12
BRANCH   5  15
ATOM     15  N   UNL     1       3.105   7.318  18.110  0.00  0.00    +0.000 N 
ATOM     16  H   UNL     1       2.483   7.727  18.807  0.00  0.00    +0.000 HD
ATOM     17  H   UNL     1       2.714   7.217  17.176  0.00  0.00    +0.000 HD
ENDBRANCH   5  15
BRANCH   6  18
ATOM     18  N   UNL     1       5.528   6.400  17.050  0.00  0.00    +0.000 N 
ATOM     19  C   UNL     1       6.576   5.710  16.305  0.00  0.00    +0.000 C 
ATOM     20  C   UNL     1       5.278   6.113  15.652  0.00  0.00    +0.000 C 
ENDBRANCH   6  18
TORSDOF 4
ENDMDL
MODEL 3
REMARK VINA RESULT:      -5.6      1.976      4.692
REMARK  Name = 
REMARK  4 active torsions:
REMARK  status: ('A' for Active; 'I' for Inactive)
REMARK    1  A    between atoms: N_1  and  C_2
REMARK    2  A    between atoms: C_3  and  N_4
REMARK    3  A    between atoms: C_9  and  N_10
REMARK    4  A    between atoms: C_11  and  N_12
REMARK                            x       y       z     vdW  Elec       q    Type
REMARK                         _______ _______ _______ _____ _____    ______ ____
ROOT
ATOM      1  C   UNL     1       2.789   5.906  19.294  0.00  0.00    +0.000 C 
ATOM      2  C   UNL     1       2.489   4.610  19.526  0.00  0.00    +0.000 C 
ATOM      3  C   UNL     1       3.019   3.590  18.563  0.00  0.00    +0.000 C 
ATOM      4  O   UNL     1       2.607   2.432  18.511  0.00  0.00    +0.000 OA
ATOM      5  C   UNL     1       4.176   3.978  17.685  0.00  0.00    +0.000 C 
ATOM      6  C   UNL     1       4.567   5.264  17.550  0.00  0.00    +0.000 C 
ATOM      7  C   UNL     1       3.696   6.317  18.165  0.00  0.00    +0.000 C 
ATOM      8  O   UNL     1       3.686   7.494  17.801  0.00  0.00    +0.000 OA
ENDROOT
BRANCH   1   9
ATOM      9  N   UNL     1       2.263   6.953  20.065  0.00  0.00    +0.000 N 
ATOM     10  H   UNL     1       2.883   7.179  20.845  0.00  0.00    +0.000 HD
ATOM     11  H   UNL     1       1.307   6.741  20.355  0.00  0.00    +0.000 HD
ENDBRANCH   1   9
BRANCH   2  12
ATOM     12  N   UNL     1       1.642   4.280  20.599  0.00  0.00    +0.000 N 
ATOM     13  C   UNL     1       1.203   2.936  20.938  0.00  0.00    +0.000 C 
ATOM     14  C   UNL     1       2.284   3.602  21.734  0.00  0.00    +0.000 C 
ENDBRANCH   2  12
BRANCH   5  15
ATOM     15  N   UNL     1       4.839   2.922  17.054  0.00  0.00    +0.000 N 
ATOM     16  H   UNL     1       4.740   2.042  17.561  0.00  0.00    +0.000 HD
ATOM     17  H   UNL     1       5.787   3.168  16.780  0.00  0.00    +0.000 HD
ENDBRANCH   5  15
BRANCH   6  18
ATOM     18  N   UNL     1       5.783   5.554  16.921  0.00  0.00    +0.000 N 
ATOM     19  C   UNL     1       6.658   6.555  17.521  0.00  0.00    +0.000 C 
ATOM     20  C   UNL     1       7.085   5.116  17.382  0.00  0.00    +0.000 C 
ENDBRANCH   6  18
TORSDOF 4
ENDMDL
MODEL 4
REMARK VINA RESULT:      -5.6      1.827      2.813
REMARK  Name = 
REMARK  4 active torsions:
REMARK  status: ('A' for Active; 'I' for Inactive)
REMARK    1  A    between atoms: N_1  and  C_2
REMARK    2  A    between atoms: C_3  and  N_4
REMARK    3  A    between atoms: C_9  and  N_10
REMARK    4  A    between atoms: C_11  and  N_12
REMARK                            x       y       z     vdW  Elec       q    Type
REMARK                         _______ _______ _______ _____ _____    ______ ____
ROOT
ATOM      1  C   UNL     1       4.266   4.118  17.810  0.00  0.00    +0.000 C 
ATOM      2  C   UNL     1       4.392   5.453  17.640  0.00  0.00    +0.000 C 
ATOM      3  C   UNL     1       3.443   6.341  18.386  0.00  0.00    +0.000 C 
ATOM      4  O   UNL     1       3.281   7.532  18.119  0.00  0.00    +0.000 OA
ATOM      5  C   UNL     1       2.725   5.771  19.578  0.00  0.00    +0.000 C 
ATOM      6  C   UNL     1       2.705   4.444  19.829  0.00  0.00    +0.000 C 
ATOM      7  C   UNL     1       3.273   3.536  18.779  0.00  0.00    +0.000 C 
ATOM      8  O   UNL     1       2.973   2.346  18.672  0.00  0.00    +0.000 OA
ENDROOT
BRANCH   1   9
ATOM      9  N   UNL     1       5.027   3.189  17.086  0.00  0.00    +0.000 N 
ATOM     10  H   UNL     1       4.797   3.225  16.091  0.00  0.00    +0.000 HD
ATOM     11  H   UNL     1       4.933   2.255  17.490  0.00  0.00    +0.000 HD
ENDBRANCH   1   9
BRANCH   2  12
ATOM     12  N   UNL     1       5.341   5.944  16.727  0.00  0.00    +0.000 N 
ATOM     13  C   UNL     1       6.215   7.083  16.958  0.00  0.00    +0.000 C 
ATOM     14  C   UNL     1       6.748   5.686  17.067  0.00  0.00    +0.000 C 
ENDBRANCH   2  12
BRANCH   5  15
ATOM     15  N   UNL     1       2.118   6.704  20.423  0.00  0.00    +0.000 N 
ATOM     16  H   UNL     1       2.072   7.634  20.007  0.00  0.00    +0.000 HD
ATOM     17  H   UNL     1       2.485   6.664  21.371  0.00  0.00    +0.000 HD
ENDBRANCH   5  15
BRANCH   6  18
ATOM     18  N   UNL     1       2.237   3.981  21.063  0.00  0.00    +0.000 N 
ATOM     19  C   UNL     1       1.144   3.015  21.078  0.00  0.00    +0.000 C 
ATOM     20  C   UNL     1       2.508   2.670  21.619  0.00  0.00    +0.000 C 
ENDBRANCH   6  18
TORSDOF 4
ENDMDL
MODEL 5
REMARK VINA RESULT:      -5.4      1.765      3.037
REMARK  Name = 
REMARK  4 active torsions:
REMARK  status: ('A' for Active; 'I' for Inactive)
REMARK    1  A    between atoms: N_1  and  C_2
REMARK    2  A    between atoms: C_3  and  N_4
REMARK    3  A    between atoms: C_9  and  N_10
REMARK    4  A    between atoms: C_11  and  N_12
REMARK                            x       y       z     vdW  Elec       q    Type
REMARK                         _______ _______ _______ _____ _____    ______ ____
ROOT
ATOM      1  C   UNL     1       5.447   4.711  18.519  0.00  0.00    +0.000 C 
ATOM      2  C   UNL     1       5.404   5.946  17.974  0.00  0.00    +0.000 C 
ATOM      3  C   UNL     1       4.106   6.693  18.044  0.00  0.00    +0.000 C 
ATOM      4  O   UNL     1       3.864   7.692  17.367  0.00  0.00    +0.000 OA
ATOM      5  C   UNL     1       3.089   6.253  19.060  0.00  0.00    +0.000 C 
ATOM      6  C   UNL     1       3.195   5.073  19.709  0.00  0.00    +0.000 C 
ATOM      7  C   UNL     1       4.268   4.130  19.253  0.00  0.00    +0.000 C 
ATOM      8  O   UNL     1       4.237   2.915  19.449  0.00  0.00    +0.000 OA
ENDROOT
BRANCH   1   9
ATOM      9  N   UNL     1       6.573   3.880  18.422  0.00  0.00    +0.000 N 
ATOM     10  H   UNL     1       7.014   3.755  19.334  0.00  0.00    +0.000 HD
ATOM     11  H   UNL     1       7.214   4.226  17.705  0.00  0.00    +0.000 HD
ENDBRANCH   1   9
BRANCH   2  12
ATOM     12  N   UNL     1       6.537   6.443  17.306  0.00  0.00    +0.000 N 
ATOM     13  C   UNL     1       7.039   7.805  17.407  0.00  0.00    +0.000 C 
ATOM     14  C   UNL     1       7.717   6.692  18.147  0.00  0.00    +0.000 C 
ENDBRANCH   2  12
BRANCH   5  15
ATOM     15  N   UNL     1       2.055   7.159  19.313  0.00  0.00    +0.000 N 
ATOM     16  H   UNL     1       2.333   8.124  19.141  0.00  0.00    +0.000 HD
ATOM     17  H   UNL     1       1.598   6.985  20.206  0.00  0.00    +0.000 HD
ENDBRANCH   5  15
BRANCH   6  18
ATOM     18  N   UNL     1       2.369   4.812  20.807  0.00  0.00    +0.000 N 
ATOM     19  C   UNL     1       1.131   4.072  20.590  0.00  0.00    +0.000 C 
ATOM     20  C   UNL     1       2.234   3.525  21.461  0.00  0.00    +0.000 C 
ENDBRANCH   6  18
TORSDOF 4
ENDMDL
MODEL 6
REMARK VINA RESULT:      -5.4      1.821      4.750
REMARK  Name = 
REMARK  4 active torsions:
REMARK  status: ('A' for Active; 'I' for Inactive)
REMARK    1  A    between atoms: N_1  and  C_2
REMARK    2  A    between atoms: C_3  and  N_4
REMARK    3  A    between atoms: C_9  and  N_10
REMARK    4  A    between atoms: C_11  and  N_12
REMARK                            x       y       z     vdW  Elec       q    Type
REMARK                         _______ _______ _______ _____ _____    ______ ____
ROOT
ATOM      1  C   UNL     1       3.174   5.324  19.276  0.00  0.00    +0.000 C 
ATOM      2  C   UNL     1       3.225   3.975  19.316  0.00  0.00    +0.000 C 
ATOM      3  C   UNL     1       3.846   3.268  18.149  0.00  0.00    +0.000 C 
ATOM      4  O   UNL     1       3.717   2.061  17.944  0.00  0.00    +0.000 OA
ATOM      5  C   UNL     1       4.747   4.056  17.239  0.00  0.00    +0.000 C 
ATOM      6  C   UNL     1       4.800   5.404  17.283  0.00  0.00    +0.000 C 
ATOM      7  C   UNL     1       3.795   6.105  18.149  0.00  0.00    +0.000 C 
ATOM      8  O   UNL     1       3.457   7.278  17.989  0.00  0.00    +0.000 OA
ENDROOT
BRANCH   1   9
ATOM      9  N   UNL     1       2.525   6.086  20.258  0.00  0.00    +0.000 N 
ATOM     10  H   UNL     1       2.831   5.811  21.194  0.00  0.00    +0.000 HD
ATOM     11  H   UNL     1       1.512   6.044  20.134  0.00  0.00    +0.000 HD
ENDBRANCH   1   9
BRANCH   2  12
ATOM     12  N   UNL     1       2.635   3.295  20.396  0.00  0.00    +0.000 N 
ATOM     13  C   UNL     1       1.276   3.499  20.873  0.00  0.00    +0.000 C 
ATOM     14  C   UNL     1       1.615   2.298  20.042  0.00  0.00    +0.000 C 
ENDBRANCH   2  12
BRANCH   5  15
ATOM     15  N   UNL     1       5.549   3.301  16.378  0.00  0.00    +0.000 N 
ATOM     16  H   UNL     1       5.914   3.853  15.602  0.00  0.00    +0.000 HD
ATOM     17  H   UNL     1       5.118   2.415  16.124  0.00  0.00    +0.000 HD
ENDBRANCH   5  15
BRANCH   6  18
ATOM     18  N   UNL     1       5.814   6.080  16.597  0.00  0.00    +0.000 N 
ATOM     19  C   UNL     1       6.483   7.196  17.257  0.00  0.00    +0.000 C 
ATOM     20  C   UNL     1       7.232   5.948  16.864  0.00  0.00    +0.000 C 
ENDBRANCH   6  18
TORSDOF 4
ENDMDL
MODEL 7
REMARK VINA RESULT:      -5.3      1.343      5.233
REMARK  Name = 
REMARK  4 active torsions:
REMARK  status: ('A' for Active; 'I' for Inactive)
REMARK    1  A    between atoms: N_1  and  C_2
REMARK    2  A    between atoms: C_3  and  N_4
REMARK    3  A    between atoms: C_9  and  N_10
REMARK    4  A    between atoms: C_11  and  N_12
REMARK                            x       y       z     vdW  Elec       q    Type
REMARK                         _______ _______ _______ _____ _____    ______ ____
ROOT
ATOM      1  C   UNL     1       4.670   3.664  19.139  0.00  0.00    +0.000 C 
ATOM      2  C   UNL     1       3.414   3.762  18.651  0.00  0.00    +0.000 C 
ATOM      3  C   UNL     1       2.964   5.102  18.153  0.00  0.00    +0.000 C 
ATOM      4  O   UNL     1       1.785   5.381  17.938  0.00  0.00    +0.000 OA
ATOM      5  C   UNL     1       4.015   6.121  17.811  0.00  0.00    +0.000 C 
ATOM      6  C   UNL     1       5.304   5.966  18.182  0.00  0.00    +0.000 C 
ATOM      7  C   UNL     1       5.624   4.828  19.104  0.00  0.00    +0.000 C 
ATOM      8  O   UNL     1       6.620   4.795  19.828  0.00  0.00    +0.000 OA
ENDROOT
BRANCH   1   9
ATOM      9  N   UNL     1       5.164   2.490  19.726  0.00  0.00    +0.000 N 
ATOM     10  H   UNL     1       4.455   1.755  19.725  0.00  0.00    +0.000 HD
ATOM     11  H   UNL     1       5.544   2.685  20.655  0.00  0.00    +0.000 HD
ENDBRANCH   1   9
BRANCH   2  12
ATOM     12  N   UNL     1       2.567   2.640  18.701  0.00  0.00    +0.000 N 
ATOM     13  C   UNL     1       1.692   2.299  19.811  0.00  0.00    +0.000 C 
ATOM     14  C   UNL     1       1.130   2.920  18.568  0.00  0.00    +0.000 C 
ENDBRANCH   2  12
BRANCH   5  15
ATOM     15  N   UNL     1       3.577   7.212  17.055  0.00  0.00    +0.000 N 
ATOM     16  H   UNL     1       3.405   8.038  17.627  0.00  0.00    +0.000 HD
ATOM     17  H   UNL     1       2.832   6.962  16.408  0.00  0.00    +0.000 HD
ENDBRANCH   5  15
BRANCH   6  18
ATOM     18  N   UNL     1       6.284   6.807  17.644  0.00  0.00    +0.000 N 
ATOM     19  C   UNL     1       7.637   6.742  18.187  0.00  0.00    +0.000 C 
ATOM     20  C   UNL     1       7.345   6.386  16.751  0.00  0.00    +0.000 C 
ENDBRANCH   6  18
TORSDOF 4
ENDMDL
MODEL 8
REMARK VINA RESULT:      -5.1      2.199      2.960
REMARK  Name = 
REMARK  4 active torsions:
REMARK  status: ('A' for Active; 'I' for Inactive)
REMARK    1  A    between atoms: N_1  and  C_2
REMARK    2  A    between atoms: C_3  and  N_4
REMARK    3  A    between atoms: C_9  and  N_10
REMARK    4  A    between atoms: C_11  and  N_12
REMARK                            x       y       z     vdW  Elec       q    Type
REMARK                         _______ _______ _______ _____ _____    ______ ____
ROOT
ATOM      1  C   UNL     1       4.972   3.688  18.576  0.00  0.00    +0.000 C 
ATOM      2  C   UNL     1       4.252   4.048  17.491  0.00  0.00    +0.000 C 
ATOM      3  C   UNL     1       2.888   3.448  17.332  0.00  0.00    +0.000 C 
ATOM      4  O   UNL     1       2.253   3.485  16.278  0.00  0.00    +0.000 OA
ATOM      5  C   UNL     1       2.227   2.855  18.545  0.00  0.00    +0.000 C 
ATOM      6  C   UNL     1       2.913   2.613  19.683  0.00  0.00    +0.000 C 
ATOM      7  C   UNL     1       4.402   2.788  19.639  0.00  0.00    +0.000 C 
ATOM      8  O   UNL     1       5.177   2.240  20.424  0.00  0.00    +0.000 OA
ENDROOT
BRANCH   1   9
ATOM      9  N   UNL     1       6.297   4.102  18.776  0.00  0.00    +0.000 N 
ATOM     10  H   UNL     1       6.531   4.109  19.770  0.00  0.00    +0.000 HD
ATOM     11  H   UNL     1       6.467   4.998  18.314  0.00  0.00    +0.000 HD
ENDBRANCH   1   9
BRANCH   2  12
ATOM     12  N   UNL     1       4.830   4.897  16.532  0.00  0.00    +0.000 N 
ATOM     13  C   UNL     1       6.252   4.984  16.237  0.00  0.00    +0.000 C 
ATOM     14  C   UNL     1       5.333   4.240  15.317  0.00  0.00    +0.000 C 
ENDBRANCH   2  12
BRANCH   5  15
ATOM     15  N   UNL     1       0.855   2.611  18.430  0.00  0.00    +0.000 N 
ATOM     16  H   UNL     1       0.295   3.443  18.610  0.00  0.00    +0.000 HD
ATOM     17  H   UNL     1       0.569   1.771  18.927  0.00  0.00    +0.000 HD
ENDBRANCH   5  15
BRANCH   6  18
ATOM     18  N   UNL     1       2.220   2.290  20.853  0.00  0.00    +0.000 N 
ATOM     19  C   UNL     1       2.306   3.199  21.991  0.00  0.00    +0.000 C 
ATOM     20  C   UNL     1       0.995   2.925  21.299  0.00  0.00    +0.000 C 
ENDBRANCH   6  18
TORSDOF 4
ENDMDL
MODEL 9
REMARK VINA RESULT:      -5.1      2.116      4.843
REMARK  Name = 
REMARK  4 active torsions:
REMARK  status: ('A' for Active; 'I' for Inactive)
REMARK    1  A    between atoms: N_1  and  C_2
REMARK    2  A    between atoms: C_3  and  N_4
REMARK    3  A    between atoms: C_9  and  N_10
REMARK    4  A    between atoms: C_11  and  N_12
REMARK                            x       y       z     vdW  Elec       q    Type
REMARK                         _______ _______ _______ _____ _____    ______ ____
ROOT
ATOM      1  C   UNL     1       2.934   5.800  18.607  0.00  0.00    +0.000 C 
ATOM      2  C   UNL     1       2.342   4.586  18.615  0.00  0.00    +0.000 C 
ATOM      3  C   UNL     1       2.887   3.540  17.689  0.00  0.00    +0.000 C 
ATOM      4  O   UNL     1       2.285   2.504  17.411  0.00  0.00    +0.000 OA
ATOM      5  C   UNL     1       4.278   3.726  17.149  0.00  0.00    +0.000 C 
ATOM      6  C   UNL     1       4.931   4.904  17.254  0.00  0.00    +0.000 C 
ATOM      7  C   UNL     1       4.154   6.078  17.771  0.00  0.00    +0.000 C 
ATOM      8  O   UNL     1       4.462   7.250  17.551  0.00  0.00    +0.000 OA
ENDROOT
BRANCH   1   9
ATOM      9  N   UNL     1       2.447   6.883  19.352  0.00  0.00    +0.000 N 
ATOM     10  H   UNL     1       1.459   6.755  19.578  0.00  0.00    +0.000 HD
ATOM     11  H   UNL     1       2.642   7.765  18.874  0.00  0.00    +0.000 HD
ENDBRANCH   1   9
BRANCH   2  12
ATOM     12  N   UNL     1       1.209   4.377  19.420  0.00  0.00    +0.000 N 
ATOM     13  C   UNL     1       0.763   3.087  19.922  0.00  0.00    +0.000 C 
ATOM     14  C   UNL     1       1.478   4.045  20.827  0.00  0.00    +0.000 C 
ENDBRANCH   2  12
BRANCH   5  15
ATOM     15  N   UNL     1       4.859   2.595  16.569  0.00  0.00    +0.000 N 
ATOM     16  H   UNL     1       4.298   1.755  16.708  0.00  0.00    +0.000 HD
ATOM     17  H   UNL     1       5.847   2.507  16.797  0.00  0.00    +0.000 HD
ENDBRANCH   5  15
BRANCH   6  18
ATOM     18  N   UNL     1       6.296   4.966  16.958  0.00  0.00    +0.000 N 
ATOM     19  C   UNL     1       6.704   5.423  15.634  0.00  0.00    +0.000 C 
ATOM     20  C   UNL     1       7.078   6.184  16.881  0.00  0.00    +0.000 C 
ENDBRANCH   6  18
TORSDOF 4
ENDMDL
