MODEL 1
REMARK VINA RESULT:      -7.7      0.000      0.000
REMARK  Name = 
REMARK  6 active torsions:
REMARK  status: ('A' for Active; 'I' for Inactive)
REMARK    1  A    between atoms: N_2  and  C_4
REMARK    2  A    between atoms: C_7  and  C_8
REMARK    3  A    between atoms: C_8  and  O_9
REMARK    4  A    between atoms: O_9  and  C_10
REMARK    5  A    between atoms: C_16  and  C_17
REMARK    6  A    between atoms: C_17  and  N_18
REMARK                            x       y       z     vdW  Elec       q    Type
REMARK                         _______ _______ _______ _____ _____    ______ ____
ROOT
ATOM      1  C   UNL     1       4.168   6.630  17.504  0.00  0.00    +0.000 A 
ATOM      2  C   UNL     1       4.567   7.132  16.255  0.00  0.00    +0.000 A 
ATOM      3  C   UNL     1       5.226   6.284  15.321  0.00  0.00    +0.000 A 
ATOM      4  C   UNL     1       5.491   4.951  15.634  0.00  0.00    +0.000 A 
ATOM      5 BR   UNL     1       6.313   3.787  14.389  0.00  0.00    +0.000 Br
ATOM      6  C   UNL     1       5.128   4.457  16.875  0.00  0.00    +0.000 A 
ATOM      7  C   UNL     1       4.460   5.276  17.806  0.00  0.00    +0.000 A 
ENDROOT
BRANCH   1   8
ATOM      8  O   UNL     1       3.360   7.281  18.399  0.00  0.00    +0.000 OA
BRANCH   8   9
ATOM      9  C   UNL     1       2.270   8.144  18.023  0.00  0.00    +0.000 C 
BRANCH   9  13
ATOM     10  C   UNL     1       0.495   9.848  21.674  0.00  0.00    +0.000 A 
ATOM     11  C   UNL     1       1.127   8.601  21.716  0.00  0.00    +0.000 A 
ATOM     12  C   UNL     1       1.647   8.066  20.516  0.00  0.00    +0.000 A 
ATOM     13  C   UNL     1       1.584   8.733  19.281  0.00  0.00    +0.000 A 
ATOM     14  C   UNL     1       0.928   9.982  19.275  0.00  0.00    +0.000 A 
ATOM     15  C   UNL     1       0.381  10.533  20.455  0.00  0.00    +0.000 A 
BRANCH  10  17
ATOM     16  O   UNL     1      -0.548  11.556  22.853  0.00  0.00    +0.000 OA
ATOM     17  N   UNL     1      -0.051  10.422  22.914  0.00  0.00    +0.000 N 
ATOM     18  O   UNL     1       0.011   9.736  23.947  0.00  0.00    +0.000 OA
ENDBRANCH  10  17
ENDBRANCH   9  13
ENDBRANCH   8   9
ENDBRANCH   1   8
BRANCH   7  19
ATOM     19  C   UNL     1       4.082   4.650  19.133  0.00  0.00    +0.000 C 
BRANCH  19  20
ATOM     20  N   UNL     1       3.130   3.543  19.020  0.00  0.00    +0.000 NA
ATOM     21  C   UNL     1       1.738   4.022  18.953  0.00  0.00    +0.000 C 
ATOM     22  C   UNL     1       1.044   4.257  20.300  0.00  0.00    +0.000 C 
ATOM     23  O   UNL     1       1.144   3.121  21.158  0.00  0.00    +0.000 OA
ATOM     24  C   UNL     1       2.509   2.756  21.372  0.00  0.00    +0.000 C 
ATOM     25  C   UNL     1       3.249   2.491  20.050  0.00  0.00    +0.000 C 
ENDBRANCH  19  20
ENDBRANCH   7  19
TORSDOF 6
ENDMDL
MODEL 2
REMARK VINA RESULT:      -7.6      0.801      1.082
REMARK  Name = 
REMARK  6 active torsions:
REMARK  status: ('A' for Active; 'I' for Inactive)
REMARK    1  A    between atoms: N_2  and  C_4
REMARK    2  A    between atoms: C_7  and  C_8
REMARK    3  A    between atoms: C_8  and  O_9
REMARK    4  A    between atoms: O_9  and  C_10
REMARK    5  A    between atoms: C_16  and  C_17
REMARK    6  A    between atoms: C_17  and  N_18
REMARK                            x       y       z     vdW  Elec       q    Type
REMARK                         _______ _______ _______ _____ _____    ______ ____
ROOT
ATOM      1  C   UNL     1       3.777   6.308  17.520  0.00  0.00    +0.000 A 
ATOM      2  C   UNL     1       4.815   6.974  16.849  0.00  0.00    +0.000 A 
ATOM      3  C   UNL     1       5.621   6.275  15.906  0.00  0.00    +0.000 A 
ATOM      4  C   UNL     1       5.398   4.924  15.642  0.00  0.00    +0.000 A 
ATOM      5 BR   UNL     1       6.417   3.987  14.352  0.00  0.00    +0.000 Br
ATOM      6  C   UNL     1       4.397   4.253  16.323  0.00  0.00    +0.000 A 
ATOM      7  C   UNL     1       3.578   4.932  17.247  0.00  0.00    +0.000 A 
ENDROOT
BRANCH   1   8
ATOM      8  O   UNL     1       2.817   6.909  18.291  0.00  0.00    +0.000 OA
BRANCH   8   9
ATOM      9  C   UNL     1       2.294   8.228  18.045  0.00  0.00    +0.000 C 
BRANCH   9  13
ATOM     10  C   UNL     1       0.292   9.759  21.655  0.00  0.00    +0.000 A 
ATOM     11  C   UNL     1       1.041   8.580  21.714  0.00  0.00    +0.000 A 
ATOM     12  C   UNL     1       1.633   8.096  20.527  0.00  0.00    +0.000 A 
ATOM     13  C   UNL     1       1.529   8.750  19.287  0.00  0.00    +0.000 A 
ATOM     14  C   UNL     1       0.756   9.930  19.264  0.00  0.00    +0.000 A 
ATOM     15  C   UNL     1       0.135  10.428  20.432  0.00  0.00    +0.000 A 
BRANCH  10  17
ATOM     16  O   UNL     1       0.061   9.825  23.966  0.00  0.00    +0.000 OA
ATOM     17  N   UNL     1      -0.331  10.281  22.882  0.00  0.00    +0.000 N 
ATOM     18  O   UNL     1      -1.207  11.153  22.762  0.00  0.00    +0.000 OA
ENDBRANCH  10  17
ENDBRANCH   9  13
ENDBRANCH   8   9
ENDBRANCH   1   8
BRANCH   7  19
ATOM     19  C   UNL     1       2.493   4.125  17.932  0.00  0.00    +0.000 C 
BRANCH  19  20
ATOM     20  N   UNL     1       2.978   3.281  19.026  0.00  0.00    +0.000 NA
ATOM     21  C   UNL     1       2.013   2.222  19.369  0.00  0.00    +0.000 C 
ATOM     22  C   UNL     1       0.924   2.608  20.377  0.00  0.00    +0.000 C 
ATOM     23  O   UNL     1       1.472   3.192  21.559  0.00  0.00    +0.000 OA
ATOM     24  C   UNL     1       2.271   4.334  21.246  0.00  0.00    +0.000 C 
ATOM     25  C   UNL     1       3.393   3.997  20.249  0.00  0.00    +0.000 C 
ENDBRANCH  19  20
ENDBRANCH   7  19
TORSDOF 6
ENDMDL
MODEL 3
REMARK VINA RESULT:      -7.5      0.407      1.043
REMARK  Name = 
REMARK  6 active torsions:
REMARK  status: ('A' for Active; 'I' for Inactive)
REMARK    1  A    between atoms: N_2  and  C_4
REMARK    2  A    between atoms: C_7  and  C_8
REMARK    3  A    between atoms: C_8  and  O_9
REMARK    4  A    between atoms: O_9  and  C_10
REMARK    5  A    between atoms: C_16  and  C_17
REMARK    6  A    between atoms: C_17  and  N_18
REMARK                            x       y       z     vdW  Elec       q    Type
REMARK                         _______ _______ _______ _____ _____    ______ ____
ROOT
ATOM      1  C   UNL     1       3.974   6.668  17.670  0.00  0.00    +0.000 A 
ATOM      2  C   UNL     1       4.374   7.191  16.430  0.00  0.00    +0.000 A 
ATOM      3  C   UNL     1       5.134   6.392  15.529  0.00  0.00    +0.000 A 
ATOM      4  C   UNL     1       5.497   5.089  15.867  0.00  0.00    +0.000 A 
ATOM      5 BR   UNL     1       6.457   3.986  14.665  0.00  0.00    +0.000 Br
ATOM      6  C   UNL     1       5.133   4.577  17.101  0.00  0.00    +0.000 A 
ATOM      7  C   UNL     1       4.367   5.347  17.998  0.00  0.00    +0.000 A 
ENDROOT
BRANCH   1   8
ATOM      8  O   UNL     1       3.084   7.258  18.529  0.00  0.00    +0.000 OA
BRANCH   8   9
ATOM      9  C   UNL     1       2.091   8.220  18.126  0.00  0.00    +0.000 C 
BRANCH   9  13
ATOM     10  C   UNL     1       0.255  10.272  21.562  0.00  0.00    +0.000 A 
ATOM     11  C   UNL     1       0.302  10.898  20.313  0.00  0.00    +0.000 A 
ATOM     12  C   UNL     1       0.937  10.228  19.244  0.00  0.00    +0.000 A 
ATOM     13  C   UNL     1       1.507   8.949  19.362  0.00  0.00    +0.000 A 
ATOM     14  C   UNL     1       1.452   8.354  20.640  0.00  0.00    +0.000 A 
ATOM     15  C   UNL     1       0.841   9.009  21.733  0.00  0.00    +0.000 A 
BRANCH  10  17
ATOM     16  O   UNL     1      -0.361  12.192  22.715  0.00  0.00    +0.000 OA
ATOM     17  N   UNL     1      -0.404  10.954  22.687  0.00  0.00    +0.000 N 
ATOM     18  O   UNL     1      -0.973  10.251  23.538  0.00  0.00    +0.000 OA
ENDBRANCH  10  17
ENDBRANCH   9  13
ENDBRANCH   8   9
ENDBRANCH   1   8
BRANCH   7  19
ATOM     19  C   UNL     1       3.995   4.702  19.319  0.00  0.00    +0.000 C 
BRANCH  19  20
ATOM     20  N   UNL     1       3.137   3.524  19.187  0.00  0.00    +0.000 NA
ATOM     21  C   UNL     1       1.717   3.893  19.050  0.00  0.00    +0.000 C 
ATOM     22  C   UNL     1       0.948   4.096  20.361  0.00  0.00    +0.000 C 
ATOM     23  O   UNL     1       1.095   2.986  21.245  0.00  0.00    +0.000 OA
ATOM     24  C   UNL     1       2.473   2.730  21.524  0.00  0.00    +0.000 C 
ATOM     25  C   UNL     1       3.290   2.501  20.241  0.00  0.00    +0.000 C 
ENDBRANCH  19  20
ENDBRANCH   7  19
TORSDOF 6
ENDMDL
MODEL 4
REMARK VINA RESULT:      -7.4      0.841      1.427
REMARK  Name = 
REMARK  6 active torsions:
REMARK  status: ('A' for Active; 'I' for Inactive)
REMARK    1  A    between atoms: N_2  and  C_4
REMARK    2  A    between atoms: C_7  and  C_8
REMARK    3  A    between atoms: C_8  and  O_9
REMARK    4  A    between atoms: O_9  and  C_10
REMARK    5  A    between atoms: C_16  and  C_17
REMARK    6  A    between atoms: C_17  and  N_18
REMARK                            x       y       z     vdW  Elec       q    Type
REMARK                         _______ _______ _______ _____ _____    ______ ____
ROOT
ATOM      1  C   UNL     1       4.056   6.401  17.723  0.00  0.00    +0.000 A 
ATOM      2  C   UNL     1       5.193   6.945  17.103  0.00  0.00    +0.000 A 
ATOM      3  C   UNL     1       5.865   6.219  16.080  0.00  0.00    +0.000 A 
ATOM      4  C   UNL     1       5.412   4.960  15.686  0.00  0.00    +0.000 A 
ATOM      5 BR   UNL     1       6.253   3.999  14.289  0.00  0.00    +0.000 Br
ATOM      6  C   UNL     1       4.311   4.404  16.314  0.00  0.00    +0.000 A 
ATOM      7  C   UNL     1       3.622   5.115  17.317  0.00  0.00    +0.000 A 
ENDROOT
BRANCH   1   8
ATOM      8  O   UNL     1       3.215   7.076  18.569  0.00  0.00    +0.000 OA
BRANCH   8   9
ATOM      9  C   UNL     1       2.220   8.022  18.133  0.00  0.00    +0.000 C 
BRANCH   9  13
ATOM     10  C   UNL     1       0.264  10.072  21.502  0.00  0.00    +0.000 A 
ATOM     11  C   UNL     1       0.344  10.694  20.252  0.00  0.00    +0.000 A 
ATOM     12  C   UNL     1       1.017  10.025  19.206  0.00  0.00    +0.000 A 
ATOM     13  C   UNL     1       1.594   8.751  19.348  0.00  0.00    +0.000 A 
ATOM     14  C   UNL     1       1.504   8.160  20.626  0.00  0.00    +0.000 A 
ATOM     15  C   UNL     1       0.855   8.815  21.697  0.00  0.00    +0.000 A 
BRANCH  10  17
ATOM     16  O   UNL     1      -1.099  10.055  23.384  0.00  0.00    +0.000 OA
ATOM     17  N   UNL     1      -0.434  10.753  22.604  0.00  0.00    +0.000 N 
ATOM     18  O   UNL     1      -0.312  11.986  22.694  0.00  0.00    +0.000 OA
ENDBRANCH  10  17
ENDBRANCH   9  13
ENDBRANCH   8   9
ENDBRANCH   1   8
BRANCH   7  19
ATOM     19  C   UNL     1       2.415   4.441  17.938  0.00  0.00    +0.000 C 
BRANCH  19  20
ATOM     20  N   UNL     1       2.743   3.290  18.782  0.00  0.00    +0.000 NA
ATOM     21  C   UNL     1       1.627   2.331  18.858  0.00  0.00    +0.000 C 
ATOM     22  C   UNL     1       0.576   2.610  19.940  0.00  0.00    +0.000 C 
ATOM     23  O   UNL     1       1.168   2.796  21.225  0.00  0.00    +0.000 OA
ATOM     24  C   UNL     1       2.131   3.851  21.200  0.00  0.00    +0.000 C 
ATOM     25  C   UNL     1       3.222   3.613  20.141  0.00  0.00    +0.000 C 
ENDBRANCH  19  20
ENDBRANCH   7  19
TORSDOF 6
ENDMDL
MODEL 5
REMARK VINA RESULT:      -7.4      3.799      7.367
REMARK  Name = 
REMARK  6 active torsions:
REMARK  status: ('A' for Active; 'I' for Inactive)
REMARK    1  A    between atoms: N_2  and  C_4
REMARK    2  A    between atoms: C_7  and  C_8
REMARK    3  A    between atoms: C_8  and  O_9
REMARK    4  A    between atoms: O_9  and  C_10
REMARK    5  A    between atoms: C_16  and  C_17
REMARK    6  A    between atoms: C_17  and  N_18
REMARK                            x       y       z     vdW  Elec       q    Type
REMARK                         _______ _______ _______ _____ _____    ______ ____
ROOT
ATOM      1  C   UNL     1       3.837   6.085  18.535  0.00  0.00    +0.000 A 
ATOM      2  C   UNL     1       3.970   7.060  17.534  0.00  0.00    +0.000 A 
ATOM      3  C   UNL     1       3.108   8.193  17.520  0.00  0.00    +0.000 A 
ATOM      4  C   UNL     1       2.119   8.345  18.491  0.00  0.00    +0.000 A 
ATOM      5 BR   UNL     1       0.997   9.870  18.529  0.00  0.00    +0.000 Br
ATOM      6  C   UNL     1       1.961   7.373  19.462  0.00  0.00    +0.000 A 
ATOM      7  C   UNL     1       2.815   6.253  19.503  0.00  0.00    +0.000 A 
ENDROOT
BRANCH   1   8
ATOM      8  O   UNL     1       4.721   5.065  18.771  0.00  0.00    +0.000 OA
BRANCH   8   9
ATOM      9  C   UNL     1       4.823   3.881  17.958  0.00  0.00    +0.000 C 
BRANCH   9  13
ATOM     10  C   UNL     1       7.082   4.821  14.298  0.00  0.00    +0.000 A 
ATOM     11  C   UNL     1       5.851   4.164  14.214  0.00  0.00    +0.000 A 
ATOM     12  C   UNL     1       5.174   3.840  15.411  0.00  0.00    +0.000 A 
ATOM     13  C   UNL     1       5.664   4.164  16.688  0.00  0.00    +0.000 A 
ATOM     14  C   UNL     1       6.914   4.815  16.734  0.00  0.00    +0.000 A 
ATOM     15  C   UNL     1       7.623   5.134  15.554  0.00  0.00    +0.000 A 
BRANCH  10  17
ATOM     16  O   UNL     1       7.411   4.651  12.004  0.00  0.00    +0.000 OA
ATOM     17  N   UNL     1       7.800   5.168  13.062  0.00  0.00    +0.000 N 
ATOM     18  O   UNL     1       8.749   5.966  13.147  0.00  0.00    +0.000 OA
ENDBRANCH  10  17
ENDBRANCH   9  13
ENDBRANCH   8   9
ENDBRANCH   1   8
BRANCH   7  19
ATOM     19  C   UNL     1       2.585   5.246  20.612  0.00  0.00    +0.000 C 
BRANCH  19  20
ATOM     20  N   UNL     1       1.376   4.439  20.443  0.00  0.00    +0.000 NA
ATOM     21  C   UNL     1       1.371   3.266  21.336  0.00  0.00    +0.000 C 
ATOM     22  C   UNL     1       2.078   2.014  20.802  0.00  0.00    +0.000 C 
ATOM     23  O   UNL     1       1.619   1.656  19.499  0.00  0.00    +0.000 OA
ATOM     24  C   UNL     1       1.785   2.737  18.580  0.00  0.00    +0.000 C 
ATOM     25  C   UNL     1       1.079   4.017  19.059  0.00  0.00    +0.000 C 
ENDBRANCH  19  20
ENDBRANCH   7  19
TORSDOF 6
ENDMDL
MODEL 6
REMARK VINA RESULT:      -7.3      0.685      1.461
REMARK  Name = 
REMARK  6 active torsions:
REMARK  status: ('A' for Active; 'I' for Inactive)
REMARK    1  A    between atoms: N_2  and  C_4
REMARK    2  A    between atoms: C_7  and  C_8
REMARK    3  A    between atoms: C_8  and  O_9
REMARK    4  A    between atoms: O_9  and  C_10
REMARK    5  A    between atoms: C_16  and  C_17
REMARK    6  A    between atoms: C_17  and  N_18
REMARK                            x       y       z     vdW  Elec       q    Type
REMARK                         _______ _______ _______ _____ _____    ______ ____
ROOT
ATOM      1  C   UNL     1       4.146   6.655  17.486  0.00  0.00    +0.000 A 
ATOM      2  C   UNL     1       4.655   7.195  16.294  0.00  0.00    +0.000 A 
ATOM      3  C   UNL     1       5.289   6.350  15.340  0.00  0.00    +0.000 A 
ATOM      4  C   UNL     1       5.422   4.982  15.578  0.00  0.00    +0.000 A 
ATOM      5 BR   UNL     1       6.209   3.828  14.301  0.00  0.00    +0.000 Br
ATOM      6  C   UNL     1       4.951   4.448  16.764  0.00  0.00    +0.000 A 
ATOM      7  C   UNL     1       4.305   5.265  17.713  0.00  0.00    +0.000 A 
ENDROOT
BRANCH   1   8
ATOM      8  O   UNL     1       3.349   7.319  18.381  0.00  0.00    +0.000 OA
BRANCH   8   9
ATOM      9  C   UNL     1       2.148   8.027  18.021  0.00  0.00    +0.000 C 
BRANCH   9  13
ATOM     10  C   UNL     1       0.449  10.320  21.373  0.00  0.00    +0.000 A 
ATOM     11  C   UNL     1       0.507  10.883  20.095  0.00  0.00    +0.000 A 
ATOM     12  C   UNL     1       1.098  10.135  19.053  0.00  0.00    +0.000 A 
ATOM     13  C   UNL     1       1.613   8.839  19.227  0.00  0.00    +0.000 A 
ATOM     14  C   UNL     1       1.548   8.308  20.532  0.00  0.00    +0.000 A 
ATOM     15  C   UNL     1       0.980   9.041  21.599  0.00  0.00    +0.000 A 
BRANCH  10  17
ATOM     16  O   UNL     1      -0.489  10.463  23.494  0.00  0.00    +0.000 OA
ATOM     17  N   UNL     1      -0.165  11.083  22.471  0.00  0.00    +0.000 N 
ATOM     18  O   UNL     1      -0.315  12.306  22.314  0.00  0.00    +0.000 OA
ENDBRANCH  10  17
ENDBRANCH   9  13
ENDBRANCH   8   9
ENDBRANCH   1   8
BRANCH   7  19
ATOM     19  C   UNL     1       3.803   4.594  18.976  0.00  0.00    +0.000 C 
BRANCH  19  20
ATOM     20  N   UNL     1       2.344   4.523  19.073  0.00  0.00    +0.000 NA
ATOM     21  C   UNL     1       1.876   4.731  20.455  0.00  0.00    +0.000 C 
ATOM     22  C   UNL     1       1.826   3.481  21.341  0.00  0.00    +0.000 C 
ATOM     23  O   UNL     1       1.107   2.415  20.723  0.00  0.00    +0.000 OA
ATOM     24  C   UNL     1       1.668   2.086  19.451  0.00  0.00    +0.000 C 
ATOM     25  C   UNL     1       1.726   3.304  18.513  0.00  0.00    +0.000 C 
ENDBRANCH  19  20
ENDBRANCH   7  19
TORSDOF 6
ENDMDL
MODEL 7
REMARK VINA RESULT:      -7.2      2.224      4.062
REMARK  Name = 
REMARK  6 active torsions:
REMARK  status: ('A' for Active; 'I' for Inactive)
REMARK    1  A    between atoms: N_2  and  C_4
REMARK    2  A    between atoms: C_7  and  C_8
REMARK    3  A    between atoms: C_8  and  O_9
REMARK    4  A    between atoms: O_9  and  C_10
REMARK    5  A    between atoms: C_16  and  C_17
REMARK    6  A    between atoms: C_17  and  N_18
REMARK                            x       y       z     vdW  Elec       q    Type
REMARK                         _______ _______ _______ _____ _____    ______ ____
ROOT
ATOM      1  C   UNL     1       3.032   5.856  18.150  0.00  0.00    +0.000 A 
ATOM      2  C   UNL     1       1.831   5.291  17.693  0.00  0.00    +0.000 A 
ATOM      3  C   UNL     1       1.521   3.933  17.988  0.00  0.00    +0.000 A 
ATOM      4  C   UNL     1       2.407   3.146  18.725  0.00  0.00    +0.000 A 
ATOM      5 BR   UNL     1       1.994   1.356  19.180  0.00  0.00    +0.000 Br
ATOM      6  C   UNL     1       3.607   3.687  19.152  0.00  0.00    +0.000 A 
ATOM      7  C   UNL     1       3.923   5.033  18.884  0.00  0.00    +0.000 A 
ENDROOT
BRANCH   1   8
ATOM      8  O   UNL     1       3.351   7.188  18.103  0.00  0.00    +0.000 OA
BRANCH   8   9
ATOM      9  C   UNL     1       2.402   8.235  17.821  0.00  0.00    +0.000 C 
BRANCH   9  13
ATOM     10  C   UNL     1       0.440   9.721  21.471  0.00  0.00    +0.000 A 
ATOM     11  C   UNL     1       0.408  10.480  20.297  0.00  0.00    +0.000 A 
ATOM     12  C   UNL     1       1.085   9.993  19.158  0.00  0.00    +0.000 A 
ATOM     13  C   UNL     1       1.774   8.768  19.133  0.00  0.00    +0.000 A 
ATOM     14  C   UNL     1       1.794   8.035  20.338  0.00  0.00    +0.000 A 
ATOM     15  C   UNL     1       1.143   8.507  21.500  0.00  0.00    +0.000 A 
BRANCH  10  17
ATOM     16  O   UNL     1       0.136   9.815  23.772  0.00  0.00    +0.000 OA
ATOM     17  N   UNL     1      -0.261  10.212  22.668  0.00  0.00    +0.000 N 
ATOM     18  O   UNL     1      -1.205  11.003  22.503  0.00  0.00    +0.000 OA
ENDBRANCH  10  17
ENDBRANCH   9  13
ENDBRANCH   8   9
ENDBRANCH   1   8
BRANCH   7  19
ATOM     19  C   UNL     1       5.249   5.550  19.405  0.00  0.00    +0.000 C 
BRANCH  19  20
ATOM     20  N   UNL     1       6.416   5.005  18.710  0.00  0.00    +0.000 NA
ATOM     21  C   UNL     1       7.596   5.876  18.854  0.00  0.00    +0.000 C 
ATOM     22  C   UNL     1       7.724   7.007  17.826  0.00  0.00    +0.000 C 
ATOM     23  O   UNL     1       7.614   6.528  16.487  0.00  0.00    +0.000 OA
ATOM     24  C   UNL     1       6.384   5.829  16.290  0.00  0.00    +0.000 C 
ATOM     25  C   UNL     1       6.212   4.670  17.286  0.00  0.00    +0.000 C 
ENDBRANCH  19  20
ENDBRANCH   7  19
TORSDOF 6
ENDMDL
MODEL 8
REMARK VINA RESULT:      -7.2      0.856      1.269
REMARK  Name = 
REMARK  6 active torsions:
REMARK  status: ('A' for Active; 'I' for Inactive)
REMARK    1  A    between atoms: N_2  and  C_4
REMARK    2  A    between atoms: C_7  and  C_8
REMARK    3  A    between atoms: C_8  and  O_9
REMARK    4  A    between atoms: O_9  and  C_10
REMARK    5  A    between atoms: C_16  and  C_17
REMARK    6  A    between atoms: C_17  and  N_18
REMARK                            x       y       z     vdW  Elec       q    Type
REMARK                         _______ _______ _______ _____ _____    ______ ____
ROOT
ATOM      1  C   UNL     1       3.848   6.554  17.703  0.00  0.00    +0.000 A 
ATOM      2  C   UNL     1       4.918   7.087  16.965  0.00  0.00    +0.000 A 
ATOM      3  C   UNL     1       5.622   6.271  16.035  0.00  0.00    +0.000 A 
ATOM      4  C   UNL     1       5.267   4.935  15.850  0.00  0.00    +0.000 A 
ATOM      5 BR   UNL     1       6.148   3.844  14.579  0.00  0.00    +0.000 Br
ATOM      6  C   UNL     1       4.234   4.394  16.596  0.00  0.00    +0.000 A 
ATOM      7  C   UNL     1       3.515   5.191  17.509  0.00  0.00    +0.000 A 
ENDROOT
BRANCH   1   8
ATOM      8  O   UNL     1       2.976   7.279  18.472  0.00  0.00    +0.000 OA
BRANCH   8   9
ATOM      9  C   UNL     1       2.173   8.366  17.974  0.00  0.00    +0.000 C 
BRANCH   9  13
ATOM     10  C   UNL     1       0.234  10.401  21.363  0.00  0.00    +0.000 A 
ATOM     11  C   UNL     1       0.828   9.148  21.542  0.00  0.00    +0.000 A 
ATOM     12  C   UNL     1       1.402   8.505  20.423  0.00  0.00    +0.000 A 
ATOM     13  C   UNL     1       1.430   9.071  19.137  0.00  0.00    +0.000 A 
ATOM     14  C   UNL     1       0.812  10.330  18.991  0.00  0.00    +0.000 A 
ATOM     15  C   UNL     1       0.212  10.988  20.089  0.00  0.00    +0.000 A 
BRANCH  10  17
ATOM     16  O   UNL     1      -0.407  12.326  22.495  0.00  0.00    +0.000 OA
ATOM     17  N   UNL     1      -0.367  11.087  22.517  0.00  0.00    +0.000 N 
ATOM     18  O   UNL     1      -0.808  10.386  23.443  0.00  0.00    +0.000 OA
ENDBRANCH  10  17
ENDBRANCH   9  13
ENDBRANCH   8   9
ENDBRANCH   1   8
BRANCH   7  19
ATOM     19  C   UNL     1       2.387   4.523  18.271  0.00  0.00    +0.000 C 
BRANCH  19  20
ATOM     20  N   UNL     1       2.444   4.726  19.719  0.00  0.00    +0.000 NA
ATOM     21  C   UNL     1       3.594   4.031  20.325  0.00  0.00    +0.000 C 
ATOM     22  C   UNL     1       3.364   2.565  20.710  0.00  0.00    +0.000 C 
ATOM     23  O   UNL     1       2.197   2.400  21.514  0.00  0.00    +0.000 OA
ATOM     24  C   UNL     1       1.040   2.915  20.854  0.00  0.00    +0.000 C 
ATOM     25  C   UNL     1       1.210   4.392  20.460  0.00  0.00    +0.000 C 
ENDBRANCH  19  20
ENDBRANCH   7  19
TORSDOF 6
ENDMDL
MODEL 9
REMARK VINA RESULT:      -7.2      3.772      7.485
REMARK  Name = 
REMARK  6 active torsions:
REMARK  status: ('A' for Active; 'I' for Inactive)
REMARK    1  A    between atoms: N_2  and  C_4
REMARK    2  A    between atoms: C_7  and  C_8
REMARK    3  A    between atoms: C_8  and  O_9
REMARK    4  A    between atoms: O_9  and  C_10
REMARK    5  A    between atoms: C_16  and  C_17
REMARK    6  A    between atoms: C_17  and  N_18
REMARK                            x       y       z     vdW  Elec       q    Type
REMARK                         _______ _______ _______ _____ _____    ______ ____
ROOT
ATOM      1  C   UNL     1       3.559   6.256  18.517  0.00  0.00    +0.000 A 
ATOM      2  C   UNL     1       3.635   7.302  17.583  0.00  0.00    +0.000 A 
ATOM      3  C   UNL     1       2.804   8.449  17.725  0.00  0.00    +0.000 A 
ATOM      4  C   UNL     1       1.901   8.546  18.784  0.00  0.00    +0.000 A 
ATOM      5 BR   UNL     1       0.826  10.085  19.029  0.00  0.00    +0.000 Br
ATOM      6  C   UNL     1       1.798   7.506  19.690  0.00  0.00    +0.000 A 
ATOM      7  C   UNL     1       2.624   6.370  19.576  0.00  0.00    +0.000 A 
ENDROOT
BRANCH   1   8
ATOM      8  O   UNL     1       4.433   5.204  18.602  0.00  0.00    +0.000 OA
BRANCH   8   9
ATOM      9  C   UNL     1       5.808   5.261  18.177  0.00  0.00    +0.000 C 
BRANCH   9  13
ATOM     10  C   UNL     1       6.295   4.143  13.947  0.00  0.00    +0.000 A 
ATOM     11  C   UNL     1       7.265   4.924  14.583  0.00  0.00    +0.000 A 
ATOM     12  C   UNL     1       7.055   5.300  15.929  0.00  0.00    +0.000 A 
ATOM     13  C   UNL     1       5.928   4.910  16.673  0.00  0.00    +0.000 A 
ATOM     14  C   UNL     1       4.966   4.133  15.995  0.00  0.00    +0.000 A 
ATOM     15  C   UNL     1       5.140   3.759  14.643  0.00  0.00    +0.000 A 
BRANCH  10  17
ATOM     16  O   UNL     1       5.790   2.825  12.102  0.00  0.00    +0.000 OA
ATOM     17  N   UNL     1       6.498   3.740  12.547  0.00  0.00    +0.000 N 
ATOM     18  O   UNL     1       7.360   4.344  11.888  0.00  0.00    +0.000 OA
ENDBRANCH  10  17
ENDBRANCH   9  13
ENDBRANCH   8   9
ENDBRANCH   1   8
BRANCH   7  19
ATOM     19  C   UNL     1       2.460   5.286  20.623  0.00  0.00    +0.000 C 
BRANCH  19  20
ATOM     20  N   UNL     1       1.328   4.390  20.381  0.00  0.00    +0.000 NA
ATOM     21  C   UNL     1       1.367   3.208  21.260  0.00  0.00    +0.000 C 
ATOM     22  C   UNL     1       2.196   2.022  20.752  0.00  0.00    +0.000 C 
ATOM     23  O   UNL     1       1.836   1.648  19.423  0.00  0.00    +0.000 OA
ATOM     24  C   UNL     1       1.966   2.751  18.525  0.00  0.00    +0.000 C 
ATOM     25  C   UNL     1       1.138   3.966  18.979  0.00  0.00    +0.000 C 
ENDBRANCH  19  20
ENDBRANCH   7  19
TORSDOF 6
ENDMDL
