MODEL 1
REMARK VINA RESULT:      -8.4      0.000      0.000
REMARK  Name = 
REMARK  11 active torsions:
REMARK  status: ('A' for Active; 'I' for Inactive)
REMARK    1  A    between atoms: C_2  and  C_3
REMARK    2  A    between atoms: C_3  and  C_4
REMARK    3  A    between atoms: C_4  and  C_5
REMARK    4  A    between atoms: C_5  and  C_6
REMARK    5  A    between atoms: C_6  and  C_7
REMARK    6  A    between atoms: C_7  and  C_8
REMARK    7  A    between atoms: C_8  and  N_9
REMARK    8  A    between atoms: C_8  and  C_19
REMARK    9  A    between atoms: C_10  and  C_12
REMARK   10  A    between atoms: N_21  and  C_22
REMARK   11  A    between atoms: N_28  and  O_29
REMARK                            x       y       z     vdW  Elec       q    Type
REMARK                         _______ _______ _______ _____ _____    ______ ____
ROOT
ATOM      1  C   UNL     1       6.570   6.533  17.525  0.00  0.00    +0.000 C 
ENDROOT
BRANCH   1   2
ATOM      2  N   UNL     1       5.741   5.864  18.540  0.00  0.00    +0.000 N 
ATOM      3  C   UNL     1       4.401   5.580  18.391  0.00  0.00    +0.000 C 
ATOM      4  O   UNL     1       3.760   5.901  17.394  0.00  0.00    +0.000 OA
ATOM      5  H   UNL     1       6.265   5.339  19.241  0.00  0.00    +0.000 HD
BRANCH   3   6
ATOM      6  C   UNL     1       3.777   4.867  19.592  0.00  0.00    +0.000 C 
ATOM      7  C   UNL     1       2.265   5.141  19.704  0.00  0.00    +0.000 C 
ATOM      8  C   UNL     1       1.386   3.996  19.213  0.00  0.00    +0.000 C 
ATOM      9  C   UNL     1       1.812   2.708  19.887  0.00  0.00    +0.000 C 
ATOM     10  N   UNL     1       3.208   2.445  19.639  0.00  0.00    +0.000 N 
ATOM     11  C   UNL     1       4.176   3.398  19.609  0.00  0.00    +0.000 C 
ATOM     12  O   UNL     1       5.358   3.053  19.592  0.00  0.00    +0.000 OA
ATOM     13  H   UNL     1       3.553   1.495  19.705  0.00  0.00    +0.000 HD
ENDBRANCH   3   6
ENDBRANCH   1   2
BRANCH   1  14
ATOM     14  C   UNL     1       6.862   5.483  16.412  0.00  0.00    +0.000 C 
ATOM     15  O   UNL     1       7.672   4.581  16.635  0.00  0.00    +0.000 OA
ATOM     16  N   UNL     1       6.200   5.671  15.203  0.00  0.00    +0.000 N 
ATOM     17  H   UNL     1       5.635   6.503  15.097  0.00  0.00    +0.000 HD
BRANCH  16  18
ATOM     18  C   UNL     1       6.374   4.896  14.024  0.00  0.00    +0.000 A 
ATOM     19  C   UNL     1       7.453   5.056  13.150  0.00  0.00    +0.000 A 
ATOM     20  C   UNL     1       7.581   4.256  12.009  0.00  0.00    +0.000 A 
ATOM     21  C   UNL     1       6.626   3.288  11.722  0.00  0.00    +0.000 A 
ATOM     22  C   UNL     1       5.540   3.119  12.577  0.00  0.00    +0.000 A 
ATOM     23  C   UNL     1       5.417   3.915  13.726  0.00  0.00    +0.000 A 
ENDBRANCH  16  18
ENDBRANCH   1  14
BRANCH   1  24
ATOM     24  C   UNL     1       7.820   7.178  18.158  0.00  0.00    +0.000 C 
BRANCH  24  25
ATOM     25  C   UNL     1       8.054   8.661  17.827  0.00  0.00    +0.000 C 
BRANCH  25  26
ATOM     26  C   UNL     1       8.948   9.382  18.831  0.00  0.00    +0.000 C 
BRANCH  26  27
ATOM     27  C   UNL     1       9.258  10.814  18.420  0.00  0.00    +0.000 C 
BRANCH  27  28
ATOM     28  C   UNL     1      10.140  11.475  19.475  0.00  0.00    +0.000 C 
BRANCH  28  30
ATOM     29  O   UNL     1       8.702  13.025  20.669  0.00  0.00    +0.000 OA
ATOM     30  C   UNL     1       9.331  11.970  20.650  0.00  0.00    +0.000 C 
ATOM     31  N   UNL     1       9.368  11.124  21.730  0.00  0.00    +0.000 N 
ATOM     32  H   UNL     1       9.997  10.334  21.826  0.00  0.00    +0.000 HD
BRANCH  31  33
ATOM     33  O   UNL     1       8.727  11.589  22.900  0.00  0.00    +0.000 OA
ATOM     34  H   UNL     1       9.421  11.452  23.584  0.00  0.00    +0.000 HD
ENDBRANCH  31  33
ENDBRANCH  28  30
ENDBRANCH  27  28
ENDBRANCH  26  27
ENDBRANCH  25  26
ENDBRANCH  24  25
ENDBRANCH   1  24
TORSDOF 11
ENDMDL
MODEL 2
REMARK VINA RESULT:      -8.3      1.541      2.039
REMARK  Name = 
REMARK  11 active torsions:
REMARK  status: ('A' for Active; 'I' for Inactive)
REMARK    1  A    between atoms: C_2  and  C_3
REMARK    2  A    between atoms: C_3  and  C_4
REMARK    3  A    between atoms: C_4  and  C_5
REMARK    4  A    between atoms: C_5  and  C_6
REMARK    5  A    between atoms: C_6  and  C_7
REMARK    6  A    between atoms: C_7  and  C_8
REMARK    7  A    between atoms: C_8  and  N_9
REMARK    8  A    between atoms: C_8  and  C_19
REMARK    9  A    between atoms: C_10  and  C_12
REMARK   10  A    between atoms: N_21  and  C_22
REMARK   11  A    between atoms: N_28  and  O_29
REMARK                            x       y       z     vdW  Elec       q    Type
REMARK                         _______ _______ _______ _____ _____    ______ ____
ROOT
ATOM      1  C   UNL     1       6.196   6.187  17.967  0.00  0.00    +0.000 C 
ENDROOT
BRANCH   1   2
ATOM      2  N   UNL     1       5.416   5.149  18.660  0.00  0.00    +0.000 N 
ATOM      3  C   UNL     1       4.111   5.300  19.076  0.00  0.00    +0.000 C 
ATOM      4  O   UNL     1       3.486   6.347  18.938  0.00  0.00    +0.000 OA
ATOM      5  H   UNL     1       5.775   4.200  18.549  0.00  0.00    +0.000 HD
BRANCH   3   6
ATOM      6  C   UNL     1       3.528   4.062  19.760  0.00  0.00    +0.000 C 
ATOM      7  C   UNL     1       2.429   4.429  20.777  0.00  0.00    +0.000 C 
ATOM      8  C   UNL     1       1.010   4.193  20.272  0.00  0.00    +0.000 C 
ATOM      9  C   UNL     1       0.890   2.777  19.746  0.00  0.00    +0.000 C 
ATOM     10  N   UNL     1       1.865   2.538  18.711  0.00  0.00    +0.000 N 
ATOM     11  C   UNL     1       3.138   3.014  18.729  0.00  0.00    +0.000 C 
ATOM     12  O   UNL     1       3.950   2.590  17.905  0.00  0.00    +0.000 OA
ATOM     13  H   UNL     1       1.699   1.803  18.033  0.00  0.00    +0.000 HD
ENDBRANCH   3   6
ENDBRANCH   1   2
BRANCH   1  14
ATOM     14  C   UNL     1       5.989   5.967  16.439  0.00  0.00    +0.000 C 
ATOM     15  O   UNL     1       5.010   6.471  15.886  0.00  0.00    +0.000 OA
ATOM     16  N   UNL     1       6.930   5.162  15.804  0.00  0.00    +0.000 N 
ATOM     17  H   UNL     1       7.636   4.718  16.375  0.00  0.00    +0.000 HD
BRANCH  16  18
ATOM     18  C   UNL     1       6.898   4.753  14.441  0.00  0.00    +0.000 A 
ATOM     19  C   UNL     1       6.048   3.756  13.957  0.00  0.00    +0.000 A 
ATOM     20  C   UNL     1       6.051   3.401  12.603  0.00  0.00    +0.000 A 
ATOM     21  C   UNL     1       6.910   4.036  11.716  0.00  0.00    +0.000 A 
ATOM     22  C   UNL     1       7.770   5.028  12.182  0.00  0.00    +0.000 A 
ATOM     23  C   UNL     1       7.760   5.389  13.537  0.00  0.00    +0.000 A 
ENDBRANCH  16  18
ENDBRANCH   1  14
BRANCH   1  24
ATOM     24  C   UNL     1       7.667   6.188  18.434  0.00  0.00    +0.000 C 
BRANCH  24  25
ATOM     25  C   UNL     1       8.295   7.570  18.678  0.00  0.00    +0.000 C 
BRANCH  25  26
ATOM     26  C   UNL     1       7.942   8.602  17.612  0.00  0.00    +0.000 C 
BRANCH  26  27
ATOM     27  C   UNL     1       8.482   9.987  17.935  0.00  0.00    +0.000 C 
BRANCH  27  28
ATOM     28  C   UNL     1       9.256   9.947  19.250  0.00  0.00    +0.000 C 
BRANCH  28  30
ATOM     29  O   UNL     1      10.606  11.558  20.464  0.00  0.00    +0.000 OA
ATOM     30  C   UNL     1      10.175  11.135  19.395  0.00  0.00    +0.000 C 
ATOM     31  N   UNL     1      10.490  11.728  18.197  0.00  0.00    +0.000 N 
ATOM     32  H   UNL     1      10.035  11.525  17.314  0.00  0.00    +0.000 HD
BRANCH  31  33
ATOM     33  O   UNL     1      11.251  12.915  18.278  0.00  0.00    +0.000 OA
ATOM     34  H   UNL     1      10.687  13.557  17.791  0.00  0.00    +0.000 HD
ENDBRANCH  31  33
ENDBRANCH  28  30
ENDBRANCH  27  28
ENDBRANCH  26  27
ENDBRANCH  25  26
ENDBRANCH  24  25
ENDBRANCH   1  24
TORSDOF 11
ENDMDL
MODEL 3
REMARK VINA RESULT:      -8.3      1.556      1.974
REMARK  Name = 
REMARK  11 active torsions:
REMARK  status: ('A' for Active; 'I' for Inactive)
REMARK    1  A    between atoms: C_2  and  C_3
REMARK    2  A    between atoms: C_3  and  C_4
REMARK    3  A    between atoms: C_4  and  C_5
REMARK    4  A    between atoms: C_5  and  C_6
REMARK    5  A    between atoms: C_6  and  C_7
REMARK    6  A    between atoms: C_7  and  C_8
REMARK    7  A    between atoms: C_8  and  N_9
REMARK    8  A    between atoms: C_8  and  C_19
REMARK    9  A    between atoms: C_10  and  C_12
REMARK   10  A    between atoms: N_21  and  C_22
REMARK   11  A    between atoms: N_28  and  O_29
REMARK                            x       y       z     vdW  Elec       q    Type
REMARK                         _______ _______ _______ _____ _____    ______ ____
ROOT
ATOM      1  C   UNL     1       6.196   6.291  17.754  0.00  0.00    +0.000 C 
ENDROOT
BRANCH   1   2
ATOM      2  N   UNL     1       5.446   5.625  18.831  0.00  0.00    +0.000 N 
ATOM      3  C   UNL     1       4.078   5.460  18.844  0.00  0.00    +0.000 C 
ATOM      4  O   UNL     1       3.347   5.897  17.960  0.00  0.00    +0.000 OA
ATOM      5  H   UNL     1       6.006   5.014  19.426  0.00  0.00    +0.000 HD
BRANCH   3   6
ATOM      6  C   UNL     1       3.551   4.721  20.075  0.00  0.00    +0.000 C 
ATOM      7  C   UNL     1       2.102   5.124  20.413  0.00  0.00    +0.000 C 
ATOM      8  C   UNL     1       1.054   4.104  19.981  0.00  0.00    +0.000 C 
ATOM      9  C   UNL     1       1.434   2.736  20.511  0.00  0.00    +0.000 C 
ATOM     10  N   UNL     1       2.751   2.366  20.056  0.00  0.00    +0.000 N 
ATOM     11  C   UNL     1       3.798   3.225  19.949  0.00  0.00    +0.000 C 
ATOM     12  O   UNL     1       4.927   2.776  19.747  0.00  0.00    +0.000 OA
ATOM     13  H   UNL     1       3.005   1.385  20.017  0.00  0.00    +0.000 HD
ENDBRANCH   3   6
ENDBRANCH   1   2
BRANCH   1  14
ATOM     14  C   UNL     1       6.398   5.239  16.623  0.00  0.00    +0.000 C 
ATOM     15  O   UNL     1       6.855   4.130  16.909  0.00  0.00    +0.000 OA
ATOM     16  N   UNL     1       6.079   5.655  15.335  0.00  0.00    +0.000 N 
ATOM     17  H   UNL     1       5.808   6.621  15.202  0.00  0.00    +0.000 HD
BRANCH  16  18
ATOM     18  C   UNL     1       6.263   4.903  14.142  0.00  0.00    +0.000 A 
ATOM     19  C   UNL     1       5.370   3.920  13.707  0.00  0.00    +0.000 A 
ATOM     20  C   UNL     1       5.595   3.218  12.518  0.00  0.00    +0.000 A 
ATOM     21  C   UNL     1       6.722   3.484  11.750  0.00  0.00    +0.000 A 
ATOM     22  C   UNL     1       7.627   4.455  12.171  0.00  0.00    +0.000 A 
ATOM     23  C   UNL     1       7.396   5.165  13.358  0.00  0.00    +0.000 A 
ENDBRANCH  16  18
ENDBRANCH   1  14
BRANCH   1  24
ATOM     24  C   UNL     1       7.493   6.933  18.288  0.00  0.00    +0.000 C 
BRANCH  24  25
ATOM     25  C   UNL     1       8.106   8.040  17.415  0.00  0.00    +0.000 C 
BRANCH  25  26
ATOM     26  C   UNL     1       8.075   9.421  18.061  0.00  0.00    +0.000 C 
BRANCH  26  27
ATOM     27  C   UNL     1       9.236   9.648  19.018  0.00  0.00    +0.000 C 
BRANCH  27  28
ATOM     28  C   UNL     1       9.360  11.136  19.337  0.00  0.00    +0.000 C 
BRANCH  28  30
ATOM     29  O   UNL     1       9.603  12.685  17.484  0.00  0.00    +0.000 OA
ATOM     30  C   UNL     1      10.111  11.878  18.258  0.00  0.00    +0.000 C 
ATOM     31  N   UNL     1      11.445  11.560  18.207  0.00  0.00    +0.000 N 
ATOM     32  H   UNL     1      11.876  10.790  18.706  0.00  0.00    +0.000 HD
BRANCH  31  33
ATOM     33  O   UNL     1      12.176  12.135  17.143  0.00  0.00    +0.000 OA
ATOM     34  H   UNL     1      11.482  12.252  16.456  0.00  0.00    +0.000 HD
ENDBRANCH  31  33
ENDBRANCH  28  30
ENDBRANCH  27  28
ENDBRANCH  26  27
ENDBRANCH  25  26
ENDBRANCH  24  25
ENDBRANCH   1  24
TORSDOF 11
ENDMDL
MODEL 4
REMARK VINA RESULT:      -8.3      4.081      7.960
REMARK  Name = 
REMARK  11 active torsions:
REMARK  status: ('A' for Active; 'I' for Inactive)
REMARK    1  A    between atoms: C_2  and  C_3
REMARK    2  A    between atoms: C_3  and  C_4
REMARK    3  A    between atoms: C_4  and  C_5
REMARK    4  A    between atoms: C_5  and  C_6
REMARK    5  A    between atoms: C_6  and  C_7
REMARK    6  A    between atoms: C_7  and  C_8
REMARK    7  A    between atoms: C_8  and  N_9
REMARK    8  A    between atoms: C_8  and  C_19
REMARK    9  A    between atoms: C_10  and  C_12
REMARK   10  A    between atoms: N_21  and  C_22
REMARK   11  A    between atoms: N_28  and  O_29
REMARK                            x       y       z     vdW  Elec       q    Type
REMARK                         _______ _______ _______ _____ _____    ______ ____
ROOT
ATOM      1  C   UNL     1       5.040   5.109  17.515  0.00  0.00    +0.000 C 
ENDROOT
BRANCH   1   2
ATOM      2  N   UNL     1       4.090   4.114  18.037  0.00  0.00    +0.000 N 
ATOM      3  C   UNL     1       4.339   3.286  19.110  0.00  0.00    +0.000 C 
ATOM      4  O   UNL     1       5.409   3.278  19.711  0.00  0.00    +0.000 OA
ATOM      5  H   UNL     1       3.118   4.270  17.770  0.00  0.00    +0.000 HD
BRANCH   3   6
ATOM      6  C   UNL     1       3.178   2.352  19.458  0.00  0.00    +0.000 C 
ATOM      7  C   UNL     1       2.600   2.647  20.856  0.00  0.00    +0.000 C 
ATOM      8  C   UNL     1       1.294   3.433  20.838  0.00  0.00    +0.000 C 
ATOM      9  C   UNL     1       0.307   2.749  19.914  0.00  0.00    +0.000 C 
ATOM     10  N   UNL     1       0.862   2.616  18.590  0.00  0.00    +0.000 N 
ATOM     11  C   UNL     1       2.161   2.316  18.327  0.00  0.00    +0.000 C 
ATOM     12  O   UNL     1       2.490   2.026  17.176  0.00  0.00    +0.000 OA
ATOM     13  H   UNL     1       0.238   2.516  17.798  0.00  0.00    +0.000 HD
ENDBRANCH   3   6
ENDBRANCH   1   2
BRANCH   1  14
ATOM     14  C   UNL     1       4.402   6.511  17.744  0.00  0.00    +0.000 C 
ATOM     15  O   UNL     1       5.068   7.520  17.506  0.00  0.00    +0.000 OA
ATOM     16  N   UNL     1       3.108   6.519  18.254  0.00  0.00    +0.000 N 
ATOM     17  H   UNL     1       2.693   5.632  18.507  0.00  0.00    +0.000 HD
BRANCH  16  18
ATOM     18  C   UNL     1       2.360   7.672  18.622  0.00  0.00    +0.000 A 
ATOM     19  C   UNL     1       2.027   8.691  17.727  0.00  0.00    +0.000 A 
ATOM     20  C   UNL     1       1.278   9.798  18.142  0.00  0.00    +0.000 A 
ATOM     21  C   UNL     1       0.859   9.904  19.462  0.00  0.00    +0.000 A 
ATOM     22  C   UNL     1       1.188   8.902  20.371  0.00  0.00    +0.000 A 
ATOM     23  C   UNL     1       1.931   7.788  19.952  0.00  0.00    +0.000 A 
ENDBRANCH  16  18
ENDBRANCH   1  14
BRANCH   1  24
ATOM     24  C   UNL     1       5.428   4.799  16.053  0.00  0.00    +0.000 C 
BRANCH  24  25
ATOM     25  C   UNL     1       6.834   5.247  15.621  0.00  0.00    +0.000 C 
BRANCH  25  26
ATOM     26  C   UNL     1       7.246   4.733  14.245  0.00  0.00    +0.000 C 
BRANCH  26  27
ATOM     27  C   UNL     1       6.151   3.922  13.569  0.00  0.00    +0.000 C 
BRANCH  27  28
ATOM     28  C   UNL     1       6.541   3.633  12.121  0.00  0.00    +0.000 C 
BRANCH  28  30
ATOM     29  O   UNL     1       4.680   2.251  11.400  0.00  0.00    +0.000 OA
ATOM     30  C   UNL     1       5.885   2.376  11.605  0.00  0.00    +0.000 C 
ATOM     31  N   UNL     1       6.771   1.350  11.388  0.00  0.00    +0.000 N 
ATOM     32  H   UNL     1       7.737   1.346  11.694  0.00  0.00    +0.000 HD
BRANCH  31  33
ATOM     33  O   UNL     1       6.201   0.112  11.017  0.00  0.00    +0.000 OA
ATOM     34  H   UNL     1       6.934  -0.311  10.515  0.00  0.00    +0.000 HD
ENDBRANCH  31  33
ENDBRANCH  28  30
ENDBRANCH  27  28
ENDBRANCH  26  27
ENDBRANCH  25  26
ENDBRANCH  24  25
ENDBRANCH   1  24
TORSDOF 11
ENDMDL
MODEL 5
REMARK VINA RESULT:      -8.2      1.911      2.340
REMARK  Name = 
REMARK  11 active torsions:
REMARK  status: ('A' for Active; 'I' for Inactive)
REMARK    1  A    between atoms: C_2  and  C_3
REMARK    2  A    between atoms: C_3  and  C_4
REMARK    3  A    between atoms: C_4  and  C_5
REMARK    4  A    between atoms: C_5  and  C_6
REMARK    5  A    between atoms: C_6  and  C_7
REMARK    6  A    between atoms: C_7  and  C_8
REMARK    7  A    between atoms: C_8  and  N_9
REMARK    8  A    between atoms: C_8  and  C_19
REMARK    9  A    between atoms: C_10  and  C_12
REMARK   10  A    between atoms: N_21  and  C_22
REMARK   11  A    between atoms: N_28  and  O_29
REMARK                            x       y       z     vdW  Elec       q    Type
REMARK                         _______ _______ _______ _____ _____    ______ ____
ROOT
ATOM      1  C   UNL     1       5.217   6.558  17.426  0.00  0.00    +0.000 C 
ENDROOT
BRANCH   1   2
ATOM      2  N   UNL     1       4.150   5.646  17.868  0.00  0.00    +0.000 N 
ATOM      3  C   UNL     1       2.907   6.052  18.302  0.00  0.00    +0.000 C 
ATOM      4  O   UNL     1       2.588   7.233  18.397  0.00  0.00    +0.000 OA
ATOM      5  H   UNL     1       4.253   4.682  17.550  0.00  0.00    +0.000 HD
BRANCH   3   6
ATOM      6  C   UNL     1       1.977   4.901  18.692  0.00  0.00    +0.000 C 
ATOM      7  C   UNL     1       1.808   3.883  17.547  0.00  0.00    +0.000 C 
ATOM      8  C   UNL     1       2.625   2.608  17.721  0.00  0.00    +0.000 C 
ATOM      9  C   UNL     1       2.355   2.019  19.091  0.00  0.00    +0.000 C 
ATOM     10  N   UNL     1       2.652   2.982  20.123  0.00  0.00    +0.000 N 
ATOM     11  C   UNL     1       2.387   4.311  20.033  0.00  0.00    +0.000 C 
ATOM     12  O   UNL     1       2.491   5.014  21.039  0.00  0.00    +0.000 OA
ATOM     13  H   UNL     1       2.864   2.656  21.059  0.00  0.00    +0.000 HD
ENDBRANCH   3   6
ENDBRANCH   1   2
BRANCH   1  14
ATOM     14  C   UNL     1       5.431   6.304  15.904  0.00  0.00    +0.000 C 
ATOM     15  O   UNL     1       4.970   7.108  15.090  0.00  0.00    +0.000 OA
ATOM     16  N   UNL     1       6.108   5.136  15.567  0.00  0.00    +0.000 N 
ATOM     17  H   UNL     1       6.353   4.499  16.313  0.00  0.00    +0.000 HD
BRANCH  16  18
ATOM     18  C   UNL     1       6.342   4.655  14.249  0.00  0.00    +0.000 A 
ATOM     19  C   UNL     1       7.455   5.015  13.485  0.00  0.00    +0.000 A 
ATOM     20  C   UNL     1       7.642   4.502  12.197  0.00  0.00    +0.000 A 
ATOM     21  C   UNL     1       6.712   3.625  11.652  0.00  0.00    +0.000 A 
ATOM     22  C   UNL     1       5.593   3.261  12.395  0.00  0.00    +0.000 A 
ATOM     23  C   UNL     1       5.411   3.768  13.690  0.00  0.00    +0.000 A 
ENDBRANCH  16  18
ENDBRANCH   1  14
BRANCH   1  24
ATOM     24  C   UNL     1       6.482   6.405  18.297  0.00  0.00    +0.000 C 
BRANCH  24  25
ATOM     25  C   UNL     1       7.749   7.100  17.773  0.00  0.00    +0.000 C 
BRANCH  25  26
ATOM     26  C   UNL     1       7.670   8.623  17.802  0.00  0.00    +0.000 C 
BRANCH  26  27
ATOM     27  C   UNL     1       8.798   9.254  18.606  0.00  0.00    +0.000 C 
BRANCH  27  28
ATOM     28  C   UNL     1       8.846  10.756  18.338  0.00  0.00    +0.000 C 
BRANCH  28  30
ATOM     29  O   UNL     1      10.675  11.743  19.591  0.00  0.00    +0.000 OA
ATOM     30  C   UNL     1      10.235  11.314  18.528  0.00  0.00    +0.000 C 
ATOM     31  N   UNL     1      10.983  11.312  17.377  0.00  0.00    +0.000 N 
ATOM     32  H   UNL     1      10.618  11.128  16.450  0.00  0.00    +0.000 HD
BRANCH  31  33
ATOM     33  O   UNL     1      12.250  11.931  17.465  0.00  0.00    +0.000 OA
ATOM     34  H   UNL     1      12.405  11.948  18.437  0.00  0.00    +0.000 HD
ENDBRANCH  31  33
ENDBRANCH  28  30
ENDBRANCH  27  28
ENDBRANCH  26  27
ENDBRANCH  25  26
ENDBRANCH  24  25
ENDBRANCH   1  24
TORSDOF 11
ENDMDL
MODEL 6
REMARK VINA RESULT:      -8.1      1.725      1.964
REMARK  Name = 
REMARK  11 active torsions:
REMARK  status: ('A' for Active; 'I' for Inactive)
REMARK    1  A    between atoms: C_2  and  C_3
REMARK    2  A    between atoms: C_3  and  C_4
REMARK    3  A    between atoms: C_4  and  C_5
REMARK    4  A    between atoms: C_5  and  C_6
REMARK    5  A    between atoms: C_6  and  C_7
REMARK    6  A    between atoms: C_7  and  C_8
REMARK    7  A    between atoms: C_8  and  N_9
REMARK    8  A    between atoms: C_8  and  C_19
REMARK    9  A    between atoms: C_10  and  C_12
REMARK   10  A    between atoms: N_21  and  C_22
REMARK   11  A    between atoms: N_28  and  O_29
REMARK                            x       y       z     vdW  Elec       q    Type
REMARK                         _______ _______ _______ _____ _____    ______ ____
ROOT
ATOM      1  C   UNL     1       6.316   6.526  17.549  0.00  0.00    +0.000 C 
ENDROOT
BRANCH   1   2
ATOM      2  N   UNL     1       5.584   5.510  18.320  0.00  0.00    +0.000 N 
ATOM      3  C   UNL     1       4.255   5.605  18.674  0.00  0.00    +0.000 C 
ATOM      4  O   UNL     1       3.563   6.583  18.405  0.00  0.00    +0.000 OA
ATOM      5  H   UNL     1       6.013   4.584  18.323  0.00  0.00    +0.000 HD
BRANCH   3   6
ATOM      6  C   UNL     1       3.733   4.405  19.465  0.00  0.00    +0.000 C 
ATOM      7  C   UNL     1       2.694   4.820  20.524  0.00  0.00    +0.000 C 
ATOM      8  C   UNL     1       1.249   4.540  20.124  0.00  0.00    +0.000 C 
ATOM      9  C   UNL     1       1.117   3.094  19.692  0.00  0.00    +0.000 C 
ATOM     10  N   UNL     1       2.030   2.804  18.613  0.00  0.00    +0.000 N 
ATOM     11  C   UNL     1       3.294   3.293  18.523  0.00  0.00    +0.000 C 
ATOM     12  O   UNL     1       4.059   2.829  17.677  0.00  0.00    +0.000 OA
ATOM     13  H   UNL     1       1.832   2.028  17.991  0.00  0.00    +0.000 HD
ENDBRANCH   3   6
ENDBRANCH   1   2
BRANCH   1  14
ATOM     14  C   UNL     1       6.084   6.208  16.042  0.00  0.00    +0.000 C 
ATOM     15  O   UNL     1       5.126   6.719  15.460  0.00  0.00    +0.000 OA
ATOM     16  N   UNL     1       6.977   5.313  15.461  0.00  0.00    +0.000 N 
ATOM     17  H   UNL     1       7.667   4.876  16.058  0.00  0.00    +0.000 HD
BRANCH  16  18
ATOM     18  C   UNL     1       6.913   4.810  14.132  0.00  0.00    +0.000 A 
ATOM     19  C   UNL     1       7.733   5.264  13.097  0.00  0.00    +0.000 A 
ATOM     20  C   UNL     1       7.634   4.724  11.809  0.00  0.00    +0.000 A 
ATOM     21  C   UNL     1       6.707   3.726  11.538  0.00  0.00    +0.000 A 
ATOM     22  C   UNL     1       5.875   3.266  12.556  0.00  0.00    +0.000 A 
ATOM     23  C   UNL     1       5.981   3.800  13.848  0.00  0.00    +0.000 A 
ENDBRANCH  16  18
ENDBRANCH   1  14
BRANCH   1  24
ATOM     24  C   UNL     1       7.796   6.599  17.981  0.00  0.00    +0.000 C 
BRANCH  24  25
ATOM     25  C   UNL     1       8.182   7.796  18.865  0.00  0.00    +0.000 C 
BRANCH  25  26
ATOM     26  C   UNL     1       8.388   9.092  18.088  0.00  0.00    +0.000 C 
BRANCH  26  27
ATOM     27  C   UNL     1       9.171  10.132  18.877  0.00  0.00    +0.000 C 
BRANCH  27  28
ATOM     28  C   UNL     1       9.673  11.224  17.936  0.00  0.00    +0.000 C 
BRANCH  28  30
ATOM     29  O   UNL     1       9.030  13.218  19.161  0.00  0.00    +0.000 OA
ATOM     30  C   UNL     1       8.943  12.527  18.150  0.00  0.00    +0.000 C 
ATOM     31  N   UNL     1       8.140  12.879  17.093  0.00  0.00    +0.000 N 
ATOM     32  H   UNL     1       7.905  12.271  16.317  0.00  0.00    +0.000 HD
BRANCH  31  33
ATOM     33  O   UNL     1       7.340  14.028  17.283  0.00  0.00    +0.000 OA
ATOM     34  H   UNL     1       7.448  14.499  16.426  0.00  0.00    +0.000 HD
ENDBRANCH  31  33
ENDBRANCH  28  30
ENDBRANCH  27  28
ENDBRANCH  26  27
ENDBRANCH  25  26
ENDBRANCH  24  25
ENDBRANCH   1  24
TORSDOF 11
ENDMDL
MODEL 7
REMARK VINA RESULT:      -8.0      4.282      7.550
REMARK  Name = 
REMARK  11 active torsions:
REMARK  status: ('A' for Active; 'I' for Inactive)
REMARK    1  A    between atoms: C_2  and  C_3
REMARK    2  A    between atoms: C_3  and  C_4
REMARK    3  A    between atoms: C_4  and  C_5
REMARK    4  A    between atoms: C_5  and  C_6
REMARK    5  A    between atoms: C_6  and  C_7
REMARK    6  A    between atoms: C_7  and  C_8
REMARK    7  A    between atoms: C_8  and  N_9
REMARK    8  A    between atoms: C_8  and  C_19
REMARK    9  A    between atoms: C_10  and  C_12
REMARK   10  A    between atoms: N_21  and  C_22
REMARK   11  A    between atoms: N_28  and  O_29
REMARK                            x       y       z     vdW  Elec       q    Type
REMARK                         _______ _______ _______ _____ _____    ______ ____
ROOT
ATOM      1  C   UNL     1       2.916   6.198  20.284  0.00  0.00    +0.000 C 
ENDROOT
BRANCH   1   2
ATOM      2  N   UNL     1       2.173   7.259  19.587  0.00  0.00    +0.000 N 
ATOM      3  C   UNL     1       1.581   8.337  20.209  0.00  0.00    +0.000 C 
ATOM      4  O   UNL     1       1.590   8.489  21.427  0.00  0.00    +0.000 OA
ATOM      5  H   UNL     1       2.372   7.334  18.589  0.00  0.00    +0.000 HD
BRANCH   3   6
ATOM      6  C   UNL     1       0.881   9.302  19.252  0.00  0.00    +0.000 C 
ATOM      7  C   UNL     1       0.210  10.471  19.999  0.00  0.00    +0.000 C 
ATOM      8  C   UNL     1       0.991  11.780  19.939  0.00  0.00    +0.000 C 
ATOM      9  C   UNL     1       1.321  12.104  18.496  0.00  0.00    +0.000 C 
ATOM     10  N   UNL     1       2.057  11.021  17.891  0.00  0.00    +0.000 N 
ATOM     11  C   UNL     1       1.814   9.704  18.118  0.00  0.00    +0.000 C 
ATOM     12  O   UNL     1       2.358   8.860  17.404  0.00  0.00    +0.000 OA
ATOM     13  H   UNL     1       2.643  11.209  17.086  0.00  0.00    +0.000 HD
ENDBRANCH   3   6
ENDBRANCH   1   2
BRANCH   1  14
ATOM     14  C   UNL     1       4.007   5.683  19.298  0.00  0.00    +0.000 C 
ATOM     15  O   UNL     1       5.064   5.238  19.750  0.00  0.00    +0.000 OA
ATOM     16  N   UNL     1       3.714   5.805  17.944  0.00  0.00    +0.000 N 
ATOM     17  H   UNL     1       2.859   6.278  17.684  0.00  0.00    +0.000 HD
BRANCH  16  18
ATOM     18  C   UNL     1       4.587   5.485  16.867  0.00  0.00    +0.000 A 
ATOM     19  C   UNL     1       5.121   6.441  16.000  0.00  0.00    +0.000 A 
ATOM     20  C   UNL     1       5.985   6.071  14.963  0.00  0.00    +0.000 A 
ATOM     21  C   UNL     1       6.320   4.736  14.774  0.00  0.00    +0.000 A 
ATOM     22  C   UNL     1       5.791   3.768  15.624  0.00  0.00    +0.000 A 
ATOM     23  C   UNL     1       4.933   4.141  16.669  0.00  0.00    +0.000 A 
ENDBRANCH  16  18
ENDBRANCH   1  14
BRANCH   1  24
ATOM     24  C   UNL     1       1.965   5.113  20.830  0.00  0.00    +0.000 C 
BRANCH  24  25
ATOM     25  C   UNL     1       1.049   4.438  19.796  0.00  0.00    +0.000 C 
BRANCH  25  26
ATOM     26  C   UNL     1       0.681   3.000  20.145  0.00  0.00    +0.000 C 
BRANCH  26  27
ATOM     27  C   UNL     1       1.019   2.020  19.031  0.00  0.00    +0.000 C 
BRANCH  27  28
ATOM     28  C   UNL     1       2.241   2.514  18.261  0.00  0.00    +0.000 C 
BRANCH  28  30
ATOM     29  O   UNL     1       3.960   0.808  18.100  0.00  0.00    +0.000 OA
ATOM     30  C   UNL     1       3.496   1.787  18.678  0.00  0.00    +0.000 C 
ATOM     31  N   UNL     1       4.087   2.320  19.797  0.00  0.00    +0.000 N 
ATOM     32  H   UNL     1       3.661   3.013  20.402  0.00  0.00    +0.000 HD
BRANCH  31  33
ATOM     33  O   UNL     1       5.199   1.611  20.304  0.00  0.00    +0.000 OA
ATOM     34  H   UNL     1       4.828   0.709  20.432  0.00  0.00    +0.000 HD
ENDBRANCH  31  33
ENDBRANCH  28  30
ENDBRANCH  27  28
ENDBRANCH  26  27
ENDBRANCH  25  26
ENDBRANCH  24  25
ENDBRANCH   1  24
TORSDOF 11
ENDMDL
MODEL 8
REMARK VINA RESULT:      -7.9      4.111      7.972
REMARK  Name = 
REMARK  11 active torsions:
REMARK  status: ('A' for Active; 'I' for Inactive)
REMARK    1  A    between atoms: C_2  and  C_3
REMARK    2  A    between atoms: C_3  and  C_4
REMARK    3  A    between atoms: C_4  and  C_5
REMARK    4  A    between atoms: C_5  and  C_6
REMARK    5  A    between atoms: C_6  and  C_7
REMARK    6  A    between atoms: C_7  and  C_8
REMARK    7  A    between atoms: C_8  and  N_9
REMARK    8  A    between atoms: C_8  and  C_19
REMARK    9  A    between atoms: C_10  and  C_12
REMARK   10  A    between atoms: N_21  and  C_22
REMARK   11  A    between atoms: N_28  and  O_29
REMARK                            x       y       z     vdW  Elec       q    Type
REMARK                         _______ _______ _______ _____ _____    ______ ____
ROOT
ATOM      1  C   UNL     1       4.836   5.238  17.284  0.00  0.00    +0.000 C 
ENDROOT
BRANCH   1   2
ATOM      2  N   UNL     1       4.123   4.211  18.059  0.00  0.00    +0.000 N 
ATOM      3  C   UNL     1       4.583   3.661  19.236  0.00  0.00    +0.000 C 
ATOM      4  O   UNL     1       5.667   3.957  19.730  0.00  0.00    +0.000 OA
ATOM      5  H   UNL     1       3.125   4.139  17.857  0.00  0.00    +0.000 HD
BRANCH   3   6
ATOM      6  C   UNL     1       3.642   2.622  19.848  0.00  0.00    +0.000 C 
ATOM      7  C   UNL     1       2.684   3.248  20.881  0.00  0.00    +0.000 C 
ATOM      8  C   UNL     1       1.270   3.478  20.361  0.00  0.00    +0.000 C 
ATOM      9  C   UNL     1       0.740   2.193  19.756  0.00  0.00    +0.000 C 
ATOM     10  N   UNL     1       1.618   1.727  18.712  0.00  0.00    +0.000 N 
ATOM     11  C   UNL     1       2.974   1.796  18.759  0.00  0.00    +0.000 C 
ATOM     12  O   UNL     1       3.636   1.191  17.914  0.00  0.00    +0.000 OA
ATOM     13  H   UNL     1       1.251   1.113  17.993  0.00  0.00    +0.000 HD
ENDBRANCH   3   6
ENDBRANCH   1   2
BRANCH   1  14
ATOM     14  C   UNL     1       4.221   6.614  17.677  0.00  0.00    +0.000 C 
ATOM     15  O   UNL     1       4.895   7.636  17.537  0.00  0.00    +0.000 OA
ATOM     16  N   UNL     1       2.936   6.580  18.211  0.00  0.00    +0.000 N 
ATOM     17  H   UNL     1       2.515   5.675  18.375  0.00  0.00    +0.000 HD
BRANCH  16  18
ATOM     18  C   UNL     1       2.210   7.693  18.717  0.00  0.00    +0.000 A 
ATOM     19  C   UNL     1       1.832   7.820  20.056  0.00  0.00    +0.000 A 
ATOM     20  C   UNL     1       1.128   8.944  20.503  0.00  0.00    +0.000 A 
ATOM     21  C   UNL     1       0.787   9.955  19.613  0.00  0.00    +0.000 A 
ATOM     22  C   UNL     1       1.149   9.843  18.273  0.00  0.00    +0.000 A 
ATOM     23  C   UNL     1       1.863   8.720  17.828  0.00  0.00    +0.000 A 
ENDBRANCH  16  18
ENDBRANCH   1  14
BRANCH   1  24
ATOM     24  C   UNL     1       4.811   4.919  15.774  0.00  0.00    +0.000 C 
BRANCH  24  25
ATOM     25  C   UNL     1       5.809   5.701  14.904  0.00  0.00    +0.000 C 
BRANCH  25  26
ATOM     26  C   UNL     1       6.970   4.855  14.391  0.00  0.00    +0.000 C 
BRANCH  26  27
ATOM     27  C   UNL     1       6.510   3.558  13.742  0.00  0.00    +0.000 C 
BRANCH  27  28
ATOM     28  C   UNL     1       6.109   3.819  12.293  0.00  0.00    +0.000 C 
BRANCH  28  30
ATOM     29  O   UNL     1       4.459   2.441  11.166  0.00  0.00    +0.000 OA
ATOM     30  C   UNL     1       5.592   2.570  11.622  0.00  0.00    +0.000 C 
ATOM     31  N   UNL     1       6.517   1.557  11.572  0.00  0.00    +0.000 N 
ATOM     32  H   UNL     1       7.398   1.552  12.074  0.00  0.00    +0.000 HD
BRANCH  31  33
ATOM     33  O   UNL     1       6.054   0.324  11.062  0.00  0.00    +0.000 OA
ATOM     34  H   UNL     1       6.216   0.425  10.097  0.00  0.00    +0.000 HD
ENDBRANCH  31  33
ENDBRANCH  28  30
ENDBRANCH  27  28
ENDBRANCH  26  27
ENDBRANCH  25  26
ENDBRANCH  24  25
ENDBRANCH   1  24
TORSDOF 11
ENDMDL
MODEL 9
REMARK VINA RESULT:      -7.9      2.064      2.505
REMARK  Name = 
REMARK  11 active torsions:
REMARK  status: ('A' for Active; 'I' for Inactive)
REMARK    1  A    between atoms: C_2  and  C_3
REMARK    2  A    between atoms: C_3  and  C_4
REMARK    3  A    between atoms: C_4  and  C_5
REMARK    4  A    between atoms: C_5  and  C_6
REMARK    5  A    between atoms: C_6  and  C_7
REMARK    6  A    between atoms: C_7  and  C_8
REMARK    7  A    between atoms: C_8  and  N_9
REMARK    8  A    between atoms: C_8  and  C_19
REMARK    9  A    between atoms: C_10  and  C_12
REMARK   10  A    between atoms: N_21  and  C_22
REMARK   11  A    between atoms: N_28  and  O_29
REMARK                            x       y       z     vdW  Elec       q    Type
REMARK                         _______ _______ _______ _____ _____    ______ ____
ROOT
ATOM      1  C   UNL     1       5.359   6.234  17.611  0.00  0.00    +0.000 C 
ENDROOT
BRANCH   1   2
ATOM      2  N   UNL     1       4.205   5.412  18.007  0.00  0.00    +0.000 N 
ATOM      3  C   UNL     1       2.972   5.916  18.360  0.00  0.00    +0.000 C 
ATOM      4  O   UNL     1       2.735   7.119  18.414  0.00  0.00    +0.000 OA
ATOM      5  H   UNL     1       4.256   4.435  17.715  0.00  0.00    +0.000 HD
BRANCH   3   6
ATOM      6  C   UNL     1       1.940   4.845  18.718  0.00  0.00    +0.000 C 
ATOM      7  C   UNL     1       1.707   3.859  17.556  0.00  0.00    +0.000 C 
ATOM      8  C   UNL     1       2.409   2.516  17.727  0.00  0.00    +0.000 C 
ATOM      9  C   UNL     1       2.063   1.936  19.084  0.00  0.00    +0.000 C 
ATOM     10  N   UNL     1       2.421   2.857  20.134  0.00  0.00    +0.000 N 
ATOM     11  C   UNL     1       2.273   4.206  20.058  0.00  0.00    +0.000 C 
ATOM     12  O   UNL     1       2.417   4.885  21.075  0.00  0.00    +0.000 OA
ATOM     13  H   UNL     1       2.587   2.503  21.069  0.00  0.00    +0.000 HD
ENDBRANCH   3   6
ENDBRANCH   1   2
BRANCH   1  14
ATOM     14  C   UNL     1       5.525   6.072  16.070  0.00  0.00    +0.000 C 
ATOM     15  O   UNL     1       5.022   6.911  15.320  0.00  0.00    +0.000 OA
ATOM     16  N   UNL     1       6.211   4.940  15.644  0.00  0.00    +0.000 N 
ATOM     17  H   UNL     1       6.494   4.265  16.343  0.00  0.00    +0.000 HD
BRANCH  16  18
ATOM     18  C   UNL     1       6.409   4.540  14.293  0.00  0.00    +0.000 A 
ATOM     19  C   UNL     1       5.599   3.607  13.641  0.00  0.00    +0.000 A 
ATOM     20  C   UNL     1       5.833   3.258  12.306  0.00  0.00    +0.000 A 
ATOM     21  C   UNL     1       6.886   3.835  11.606  0.00  0.00    +0.000 A 
ATOM     22  C   UNL     1       7.708   4.761  12.242  0.00  0.00    +0.000 A 
ATOM     23  C   UNL     1       7.468   5.117  13.577  0.00  0.00    +0.000 A 
ENDBRANCH  16  18
ENDBRANCH   1  14
BRANCH   1  24
ATOM     24  C   UNL     1       6.611   5.881  18.442  0.00  0.00    +0.000 C 
BRANCH  24  25
ATOM     25  C   UNL     1       7.815   6.823  18.279  0.00  0.00    +0.000 C 
BRANCH  25  26
ATOM     26  C   UNL     1       7.429   8.262  17.952  0.00  0.00    +0.000 C 
BRANCH  26  27
ATOM     27  C   UNL     1       8.628   9.119  17.573  0.00  0.00    +0.000 C 
BRANCH  27  28
ATOM     28  C   UNL     1       8.885  10.159  18.661  0.00  0.00    +0.000 C 
BRANCH  28  30
ATOM     29  O   UNL     1      10.824  11.493  18.070  0.00  0.00    +0.000 OA
ATOM     30  C   UNL     1       9.603  11.370  18.120  0.00  0.00    +0.000 C 
ATOM     31  N   UNL     1       8.754  12.357  17.685  0.00  0.00    +0.000 N 
ATOM     32  H   UNL     1       7.754  12.376  17.855  0.00  0.00    +0.000 HD
BRANCH  31  33
ATOM     33  O   UNL     1       9.366  13.563  17.277  0.00  0.00    +0.000 OA
ATOM     34  H   UNL     1      10.302  13.420  17.545  0.00  0.00    +0.000 HD
ENDBRANCH  31  33
ENDBRANCH  28  30
ENDBRANCH  27  28
ENDBRANCH  26  27
ENDBRANCH  25  26
ENDBRANCH  24  25
ENDBRANCH   1  24
TORSDOF 11
ENDMDL
