MODEL 1
REMARK VINA RESULT:      -8.6      0.000      0.000
REMARK  Name = 
REMARK  7 active torsions:
REMARK  status: ('A' for Active; 'I' for Inactive)
REMARK    1  A    between atoms: C_2  and  C_15
REMARK    2  A    between atoms: N_3  and  C_4
REMARK    3  A    between atoms: C_7  and  O_8
REMARK    4  A    between atoms: O_8  and  C_9
REMARK    5  A    between atoms: C_18  and  N_19
REMARK    6  A    between atoms: C_22  and  O_23
REMARK    7  A    between atoms: C_25  and  C_26
REMARK                            x       y       z     vdW  Elec       q    Type
REMARK                         _______ _______ _______ _____ _____    ______ ____
ROOT
ATOM      1  C   UNL     1       2.204   7.930  18.437  0.00  0.00    +0.000 A 
ATOM      2  C   UNL     1       3.285   8.308  17.658  0.00  0.00    +0.000 A 
ATOM      3  N   UNL     1       4.217   7.440  17.176  0.00  0.00    +0.000 NA
ATOM      4  C   UNL     1       4.091   6.121  17.455  0.00  0.00    +0.000 A 
ATOM      5  C   UNL     1       3.005   5.656  18.242  0.00  0.00    +0.000 A 
ATOM      6  C   UNL     1       2.045   6.576  18.695  0.00  0.00    +0.000 A 
ENDROOT
BRANCH   5   7
ATOM      7  C   UNL     1       2.906   4.289  18.750  0.00  0.00    +0.000 A 
ATOM      8  N   UNL     1       3.082   3.977  20.082  0.00  0.00    +0.000 N 
ATOM      9  N   UNL     1       2.906   2.678  20.378  0.00  0.00    +0.000 NA
ATOM     10  C   UNL     1       2.602   2.130  19.199  0.00  0.00    +0.000 A 
ATOM     11  C   UNL     1       2.580   3.083  18.180  0.00  0.00    +0.000 A 
ATOM     12  F   UNL     1       2.298   2.872  16.928  0.00  0.00    +0.000 F 
ATOM     13  H   UNL     1       3.372   4.620  20.809  0.00  0.00    +0.000 HD
ENDBRANCH   5   7
BRANCH   4  14
ATOM     14  N   UNL     1       5.104   5.250  17.047  0.00  0.00    +0.000 N 
ATOM     15  C   UNL     1       6.227   4.999  17.967  0.00  0.00    +0.000 C 
ATOM     16  C   UNL     1       7.404   4.586  17.061  0.00  0.00    +0.000 C 
ATOM     17  C   UNL     1       6.773   4.371  15.694  0.00  0.00    +0.000 C 
ATOM     18  C   UNL     1       5.659   5.426  15.690  0.00  0.00    +0.000 C 
BRANCH  17  19
ATOM     19  O   UNL     1       6.239   3.045  15.620  0.00  0.00    +0.000 OA
ATOM     20  H   UNL     1       5.310   3.122  15.350  0.00  0.00    +0.000 HD
ENDBRANCH  17  19
ENDBRANCH   4  14
BRANCH   1  22
ATOM     21  O   UNL     1       0.650   9.635  18.199  0.00  0.00    +0.000 OA
ATOM     22  C   UNL     1       1.294   8.958  18.992  0.00  0.00    +0.000 C 
ATOM     23  N   UNL     1       1.309   9.085  20.376  0.00  0.00    +0.000 N 
ATOM     24  H   UNL     1       2.027   8.589  20.888  0.00  0.00    +0.000 HD
BRANCH  23  25
ATOM     25  C   UNL     1       0.526   9.975  21.144  0.00  0.00    +0.000 A 
ATOM     26  C   UNL     1       0.450  11.345  20.887  0.00  0.00    +0.000 A 
ATOM     27  C   UNL     1      -0.308  12.181  21.712  0.00  0.00    +0.000 A 
ATOM     28  C   UNL     1      -1.023  11.664  22.792  0.00  0.00    +0.000 A 
ATOM     29  C   UNL     1      -0.972  10.294  23.042  0.00  0.00    +0.000 A 
ATOM     30  C   UNL     1      -0.209   9.456  22.215  0.00  0.00    +0.000 A 
BRANCH  28  31
ATOM     31  O   UNL     1      -1.663  12.599  23.551  0.00  0.00    +0.000 OA
BRANCH  31  32
ATOM     32  C   UNL     1      -3.022  12.879  23.240  0.00  0.00    +0.000 C 
ATOM     33  F   UNL     1      -3.187  14.212  23.053  0.00  0.00    +0.000 F 
ATOM     34  F   UNL     1      -3.382  12.243  22.098  0.00  0.00    +0.000 F 
ATOM     35 CL   UNL     1      -4.049  12.327  24.568  0.00  0.00    +0.000 Cl
ENDBRANCH  31  32
ENDBRANCH  28  31
ENDBRANCH  23  25
ENDBRANCH   1  22
TORSDOF 7
ENDMDL
MODEL 2
REMARK VINA RESULT:      -8.5      1.153      1.223
REMARK  Name = 
REMARK  7 active torsions:
REMARK  status: ('A' for Active; 'I' for Inactive)
REMARK    1  A    between atoms: C_2  and  C_15
REMARK    2  A    between atoms: N_3  and  C_4
REMARK    3  A    between atoms: C_7  and  O_8
REMARK    4  A    between atoms: O_8  and  C_9
REMARK    5  A    between atoms: C_18  and  N_19
REMARK    6  A    between atoms: C_22  and  O_23
REMARK    7  A    between atoms: C_25  and  C_26
REMARK                            x       y       z     vdW  Elec       q    Type
REMARK                         _______ _______ _______ _____ _____    ______ ____
ROOT
ATOM      1  C   UNL     1       2.165   7.907  18.339  0.00  0.00    +0.000 A 
ATOM      2  C   UNL     1       3.321   8.300  17.686  0.00  0.00    +0.000 A 
ATOM      3  N   UNL     1       4.255   7.434  17.203  0.00  0.00    +0.000 NA
ATOM      4  C   UNL     1       4.054   6.104  17.352  0.00  0.00    +0.000 A 
ATOM      5  C   UNL     1       2.889   5.624  18.005  0.00  0.00    +0.000 A 
ATOM      6  C   UNL     1       1.931   6.545  18.461  0.00  0.00    +0.000 A 
ENDROOT
BRANCH   5   7
ATOM      7  C   UNL     1       2.694   4.223  18.379  0.00  0.00    +0.000 A 
ATOM      8  N   UNL     1       2.593   3.213  17.444  0.00  0.00    +0.000 N 
ATOM      9  N   UNL     1       2.468   1.982  17.967  0.00  0.00    +0.000 NA
ATOM     10  C   UNL     1       2.492   2.200  19.284  0.00  0.00    +0.000 A 
ATOM     11  C   UNL     1       2.642   3.557  19.577  0.00  0.00    +0.000 A 
ATOM     12  F   UNL     1       2.721   4.089  20.761  0.00  0.00    +0.000 F 
ATOM     13  H   UNL     1       2.557   3.336  16.440  0.00  0.00    +0.000 HD
ENDBRANCH   5   7
BRANCH   4  14
ATOM     14  N   UNL     1       5.063   5.224  16.949  0.00  0.00    +0.000 N 
ATOM     15  C   UNL     1       6.194   4.988  17.863  0.00  0.00    +0.000 C 
ATOM     16  C   UNL     1       7.362   4.559  16.954  0.00  0.00    +0.000 C 
ATOM     17  C   UNL     1       6.718   4.321  15.596  0.00  0.00    +0.000 C 
ATOM     18  C   UNL     1       5.605   5.377  15.584  0.00  0.00    +0.000 C 
BRANCH  17  19
ATOM     19  O   UNL     1       6.183   2.995  15.550  0.00  0.00    +0.000 OA
ATOM     20  H   UNL     1       5.337   3.041  15.076  0.00  0.00    +0.000 HD
ENDBRANCH  17  19
ENDBRANCH   4  14
BRANCH   1  22
ATOM     21  O   UNL     1       0.560   9.568  18.131  0.00  0.00    +0.000 OA
ATOM     22  C   UNL     1       1.253   8.925  18.910  0.00  0.00    +0.000 C 
ATOM     23  N   UNL     1       1.323   9.083  20.289  0.00  0.00    +0.000 N 
ATOM     24  H   UNL     1       2.073   8.616  20.781  0.00  0.00    +0.000 HD
BRANCH  23  25
ATOM     25  C   UNL     1       0.550   9.970  21.070  0.00  0.00    +0.000 A 
ATOM     26  C   UNL     1       0.495  11.346  20.839  0.00  0.00    +0.000 A 
ATOM     27  C   UNL     1      -0.253  12.177  21.677  0.00  0.00    +0.000 A 
ATOM     28  C   UNL     1      -0.981  11.652  22.743  0.00  0.00    +0.000 A 
ATOM     29  C   UNL     1      -0.952  10.277  22.968  0.00  0.00    +0.000 A 
ATOM     30  C   UNL     1      -0.198   9.442  22.129  0.00  0.00    +0.000 A 
BRANCH  28  31
ATOM     31  O   UNL     1      -1.610  12.582  23.517  0.00  0.00    +0.000 OA
BRANCH  31  32
ATOM     32  C   UNL     1      -3.026  12.663  23.425  0.00  0.00    +0.000 C 
ATOM     33  F   UNL     1      -3.429  12.311  22.179  0.00  0.00    +0.000 F 
ATOM     34  F   UNL     1      -3.603  11.817  24.313  0.00  0.00    +0.000 F 
ATOM     35 CL   UNL     1      -3.539  14.318  23.775  0.00  0.00    +0.000 Cl
ENDBRANCH  31  32
ENDBRANCH  28  31
ENDBRANCH  23  25
ENDBRANCH   1  22
TORSDOF 7
ENDMDL
MODEL 3
REMARK VINA RESULT:      -8.5      1.371      1.524
REMARK  Name = 
REMARK  7 active torsions:
REMARK  status: ('A' for Active; 'I' for Inactive)
REMARK    1  A    between atoms: C_2  and  C_15
REMARK    2  A    between atoms: N_3  and  C_4
REMARK    3  A    between atoms: C_7  and  O_8
REMARK    4  A    between atoms: O_8  and  C_9
REMARK    5  A    between atoms: C_18  and  N_19
REMARK    6  A    between atoms: C_22  and  O_23
REMARK    7  A    between atoms: C_25  and  C_26
REMARK                            x       y       z     vdW  Elec       q    Type
REMARK                         _______ _______ _______ _____ _____    ______ ____
ROOT
ATOM      1  C   UNL     1       2.514   7.253  18.894  0.00  0.00    +0.000 A 
ATOM      2  C   UNL     1       3.272   7.835  17.892  0.00  0.00    +0.000 A 
ATOM      3  N   UNL     1       4.134   7.146  17.093  0.00  0.00    +0.000 NA
ATOM      4  C   UNL     1       4.264   5.810  17.266  0.00  0.00    +0.000 A 
ATOM      5  C   UNL     1       3.514   5.142  18.269  0.00  0.00    +0.000 A 
ATOM      6  C   UNL     1       2.610   5.878  19.053  0.00  0.00    +0.000 A 
ENDROOT
BRANCH   5   7
ATOM      7  C   UNL     1       3.741   3.748  18.649  0.00  0.00    +0.000 A 
ATOM      8  N   UNL     1       4.632   3.384  19.637  0.00  0.00    +0.000 N 
ATOM      9  N   UNL     1       4.675   2.064  19.889  0.00  0.00    +0.000 NA
ATOM     10  C   UNL     1       3.779   1.557  19.039  0.00  0.00    +0.000 A 
ATOM     11  C   UNL     1       3.177   2.555  18.271  0.00  0.00    +0.000 A 
ATOM     12  F   UNL     1       2.253   2.388  17.371  0.00  0.00    +0.000 F 
ATOM     13  H   UNL     1       5.263   4.006  20.126  0.00  0.00    +0.000 HD
ENDBRANCH   5   7
BRANCH   4  14
ATOM     14  N   UNL     1       5.224   5.127  16.515  0.00  0.00    +0.000 N 
ATOM     15  C   UNL     1       6.568   4.948  17.092  0.00  0.00    +0.000 C 
ATOM     16  C   UNL     1       7.506   4.785  15.879  0.00  0.00    +0.000 C 
ATOM     17  C   UNL     1       6.568   4.613  14.694  0.00  0.00    +0.000 C 
ATOM     18  C   UNL     1       5.384   5.502  15.096  0.00  0.00    +0.000 C 
BRANCH  17  19
ATOM     19  O   UNL     1       6.181   3.239  14.590  0.00  0.00    +0.000 OA
ATOM     20  H   UNL     1       6.682   2.747  15.261  0.00  0.00    +0.000 HD
ENDBRANCH  17  19
ENDBRANCH   4  14
BRANCH   1  22
ATOM     21  O   UNL     1       1.380   7.656  20.877  0.00  0.00    +0.000 OA
ATOM     22  C   UNL     1       1.673   8.098  19.773  0.00  0.00    +0.000 C 
ATOM     23  N   UNL     1       1.251   9.301  19.219  0.00  0.00    +0.000 N 
ATOM     24  H   UNL     1       1.414   9.450  18.232  0.00  0.00    +0.000 HD
BRANCH  23  25
ATOM     25  C   UNL     1       0.461  10.284  19.854  0.00  0.00    +0.000 A 
ATOM     26  C   UNL     1       0.909  11.047  20.934  0.00  0.00    +0.000 A 
ATOM     27  C   UNL     1       0.062  11.973  21.549  0.00  0.00    +0.000 A 
ATOM     28  C   UNL     1      -1.236  12.176  21.084  0.00  0.00    +0.000 A 
ATOM     29  C   UNL     1      -1.685  11.436  19.991  0.00  0.00    +0.000 A 
ATOM     30  C   UNL     1      -0.836  10.504  19.376  0.00  0.00    +0.000 A 
BRANCH  28  31
ATOM     31  O   UNL     1      -1.973  13.059  21.817  0.00  0.00    +0.000 OA
BRANCH  31  32
ATOM     32  C   UNL     1      -2.878  12.523  22.774  0.00  0.00    +0.000 C 
ATOM     33  F   UNL     1      -4.075  12.272  22.188  0.00  0.00    +0.000 F 
ATOM     34  F   UNL     1      -2.397  11.358  23.273  0.00  0.00    +0.000 F 
ATOM     35 CL   UNL     1      -3.087  13.683  24.091  0.00  0.00    +0.000 Cl
ENDBRANCH  31  32
ENDBRANCH  28  31
ENDBRANCH  23  25
ENDBRANCH   1  22
TORSDOF 7
ENDMDL
MODEL 4
REMARK VINA RESULT:      -8.4      1.389      1.505
REMARK  Name = 
REMARK  7 active torsions:
REMARK  status: ('A' for Active; 'I' for Inactive)
REMARK    1  A    between atoms: C_2  and  C_15
REMARK    2  A    between atoms: N_3  and  C_4
REMARK    3  A    between atoms: C_7  and  O_8
REMARK    4  A    between atoms: O_8  and  C_9
REMARK    5  A    between atoms: C_18  and  N_19
REMARK    6  A    between atoms: C_22  and  O_23
REMARK    7  A    between atoms: C_25  and  C_26
REMARK                            x       y       z     vdW  Elec       q    Type
REMARK                         _______ _______ _______ _____ _____    ______ ____
ROOT
ATOM      1  C   UNL     1       2.492   6.725  19.315  0.00  0.00    +0.000 A 
ATOM      2  C   UNL     1       3.180   7.450  18.356  0.00  0.00    +0.000 A 
ATOM      3  N   UNL     1       4.031   6.896  17.447  0.00  0.00    +0.000 NA
ATOM      4  C   UNL     1       4.219   5.555  17.459  0.00  0.00    +0.000 A 
ATOM      5  C   UNL     1       3.543   4.745  18.408  0.00  0.00    +0.000 A 
ATOM      6  C   UNL     1       2.649   5.347  19.309  0.00  0.00    +0.000 A 
ENDROOT
BRANCH   5   7
ATOM      7  C   UNL     1       3.841   3.328  18.614  0.00  0.00    +0.000 A 
ATOM      8  N   UNL     1       4.786   2.892  19.519  0.00  0.00    +0.000 N 
ATOM      9  N   UNL     1       4.892   1.555  19.613  0.00  0.00    +0.000 NA
ATOM     10  C   UNL     1       3.982   1.110  18.742  0.00  0.00    +0.000 A 
ATOM     11  C   UNL     1       3.310   2.163  18.120  0.00  0.00    +0.000 A 
ATOM     12  F   UNL     1       2.356   2.060  17.241  0.00  0.00    +0.000 F 
ATOM     13  H   UNL     1       5.412   3.481  20.054  0.00  0.00    +0.000 HD
ENDBRANCH   5   7
BRANCH   4  14
ATOM     14  N   UNL     1       5.170   5.005  16.595  0.00  0.00    +0.000 N 
ATOM     15  C   UNL     1       6.537   4.790  17.101  0.00  0.00    +0.000 C 
ATOM     16  C   UNL     1       7.437   4.815  15.849  0.00  0.00    +0.000 C 
ATOM     17  C   UNL     1       6.463   4.775  14.681  0.00  0.00    +0.000 C 
ATOM     18  C   UNL     1       5.272   5.569  15.234  0.00  0.00    +0.000 C 
BRANCH  17  19
ATOM     19  O   UNL     1       6.105   3.417  14.407  0.00  0.00    +0.000 OA
ATOM     20  H   UNL     1       5.157   3.324  14.594  0.00  0.00    +0.000 HD
ENDBRANCH  17  19
ENDBRANCH   4  14
BRANCH   1  22
ATOM     21  O   UNL     1       1.192   6.761  21.235  0.00  0.00    +0.000 OA
ATOM     22  C   UNL     1       1.661   7.427  20.319  0.00  0.00    +0.000 C 
ATOM     23  N   UNL     1       1.451   8.780  20.082  0.00  0.00    +0.000 N 
ATOM     24  H   UNL     1       1.744   9.153  19.189  0.00  0.00    +0.000 HD
BRANCH  23  25
ATOM     25  C   UNL     1       0.714   9.669  20.894  0.00  0.00    +0.000 A 
ATOM     26  C   UNL     1       0.609  11.037  20.633  0.00  0.00    +0.000 A 
ATOM     27  C   UNL     1      -0.098  11.873  21.502  0.00  0.00    +0.000 A 
ATOM     28  C   UNL     1      -0.735  11.359  22.630  0.00  0.00    +0.000 A 
ATOM     29  C   UNL     1      -0.656   9.992  22.887  0.00  0.00    +0.000 A 
ATOM     30  C   UNL     1       0.056   9.152  22.016  0.00  0.00    +0.000 A 
BRANCH  28  31
ATOM     31  O   UNL     1      -1.331  12.295  23.424  0.00  0.00    +0.000 OA
BRANCH  31  32
ATOM     32  C   UNL     1      -2.710  12.560  23.205  0.00  0.00    +0.000 C 
ATOM     33  F   UNL     1      -3.111  11.987  22.043  0.00  0.00    +0.000 F 
ATOM     34  F   UNL     1      -3.453  12.041  24.213  0.00  0.00    +0.000 F 
ATOM     35 CL   UNL     1      -2.962  14.308  23.130  0.00  0.00    +0.000 Cl
ENDBRANCH  31  32
ENDBRANCH  28  31
ENDBRANCH  23  25
ENDBRANCH   1  22
TORSDOF 7
ENDMDL
MODEL 5
REMARK VINA RESULT:      -8.4      1.392      1.611
REMARK  Name = 
REMARK  7 active torsions:
REMARK  status: ('A' for Active; 'I' for Inactive)
REMARK    1  A    between atoms: C_2  and  C_15
REMARK    2  A    between atoms: N_3  and  C_4
REMARK    3  A    between atoms: C_7  and  O_8
REMARK    4  A    between atoms: O_8  and  C_9
REMARK    5  A    between atoms: C_18  and  N_19
REMARK    6  A    between atoms: C_22  and  O_23
REMARK    7  A    between atoms: C_25  and  C_26
REMARK                            x       y       z     vdW  Elec       q    Type
REMARK                         _______ _______ _______ _____ _____    ______ ____
ROOT
ATOM      1  C   UNL     1       2.511   7.188  18.885  0.00  0.00    +0.000 A 
ATOM      2  C   UNL     1       3.263   7.789  17.889  0.00  0.00    +0.000 A 
ATOM      3  N   UNL     1       4.135   7.119  17.085  0.00  0.00    +0.000 NA
ATOM      4  C   UNL     1       4.282   5.783  17.246  0.00  0.00    +0.000 A 
ATOM      5  C   UNL     1       3.540   5.096  18.242  0.00  0.00    +0.000 A 
ATOM      6  C   UNL     1       2.625   5.813  19.031  0.00  0.00    +0.000 A 
ENDROOT
BRANCH   5   7
ATOM      7  C   UNL     1       3.784   3.702  18.609  0.00  0.00    +0.000 A 
ATOM      8  N   UNL     1       4.645   3.342  19.626  0.00  0.00    +0.000 N 
ATOM      9  N   UNL     1       4.709   2.020  19.859  0.00  0.00    +0.000 NA
ATOM     10  C   UNL     1       3.859   1.506  18.966  0.00  0.00    +0.000 A 
ATOM     11  C   UNL     1       3.264   2.502  18.191  0.00  0.00    +0.000 A 
ATOM     12  F   UNL     1       2.380   2.329  17.253  0.00  0.00    +0.000 F 
ATOM     13  H   UNL     1       5.241   3.971  20.149  0.00  0.00    +0.000 HD
ENDBRANCH   5   7
BRANCH   4  14
ATOM     14  N   UNL     1       5.252   5.120  16.491  0.00  0.00    +0.000 N 
ATOM     15  C   UNL     1       6.588   4.922  17.082  0.00  0.00    +0.000 C 
ATOM     16  C   UNL     1       7.544   4.792  15.879  0.00  0.00    +0.000 C 
ATOM     17  C   UNL     1       6.623   4.656  14.675  0.00  0.00    +0.000 C 
ATOM     18  C   UNL     1       5.434   5.535  15.085  0.00  0.00    +0.000 C 
BRANCH  17  19
ATOM     19  O   UNL     1       6.235   3.286  14.527  0.00  0.00    +0.000 OA
ATOM     20  H   UNL     1       6.842   2.883  13.885  0.00  0.00    +0.000 HD
ENDBRANCH  17  19
ENDBRANCH   4  14
BRANCH   1  22
ATOM     21  O   UNL     1       1.400   7.574  20.884  0.00  0.00    +0.000 OA
ATOM     22  C   UNL     1       1.658   8.013  19.769  0.00  0.00    +0.000 C 
ATOM     23  N   UNL     1       1.185   9.196  19.211  0.00  0.00    +0.000 N 
ATOM     24  H   UNL     1       1.326   9.339  18.220  0.00  0.00    +0.000 HD
BRANCH  23  25
ATOM     25  C   UNL     1       0.374  10.158  19.850  0.00  0.00    +0.000 A 
ATOM     26  C   UNL     1      -0.899  10.509  19.396  0.00  0.00    +0.000 A 
ATOM     27  C   UNL     1      -1.636  11.503  20.047  0.00  0.00    +0.000 A 
ATOM     28  C   UNL     1      -1.130  12.147  21.175  0.00  0.00    +0.000 A 
ATOM     29  C   UNL     1       0.130  11.787  21.650  0.00  0.00    +0.000 A 
ATOM     30  C   UNL     1       0.870  10.791  20.995  0.00  0.00    +0.000 A 
BRANCH  28  31
ATOM     31  O   UNL     1      -1.924  13.140  21.668  0.00  0.00    +0.000 OA
BRANCH  31  32
ATOM     32  C   UNL     1      -2.883  12.785  22.655  0.00  0.00    +0.000 C 
ATOM     33  F   UNL     1      -2.570  11.579  23.190  0.00  0.00    +0.000 F 
ATOM     34  F   UNL     1      -2.891  13.703  23.653  0.00  0.00    +0.000 F 
ATOM     35 CL   UNL     1      -4.485  12.714  21.912  0.00  0.00    +0.000 Cl
ENDBRANCH  31  32
ENDBRANCH  28  31
ENDBRANCH  23  25
ENDBRANCH   1  22
TORSDOF 7
ENDMDL
MODEL 6
REMARK VINA RESULT:      -8.4      0.669      1.141
REMARK  Name = 
REMARK  7 active torsions:
REMARK  status: ('A' for Active; 'I' for Inactive)
REMARK    1  A    between atoms: C_2  and  C_15
REMARK    2  A    between atoms: N_3  and  C_4
REMARK    3  A    between atoms: C_7  and  O_8
REMARK    4  A    between atoms: O_8  and  C_9
REMARK    5  A    between atoms: C_18  and  N_19
REMARK    6  A    between atoms: C_22  and  O_23
REMARK    7  A    between atoms: C_25  and  C_26
REMARK                            x       y       z     vdW  Elec       q    Type
REMARK                         _______ _______ _______ _____ _____    ______ ____
ROOT
ATOM      1  C   UNL     1       2.198   7.898  18.507  0.00  0.00    +0.000 A 
ATOM      2  C   UNL     1       3.242   8.286  17.685  0.00  0.00    +0.000 A 
ATOM      3  N   UNL     1       4.159   7.424  17.162  0.00  0.00    +0.000 NA
ATOM      4  C   UNL     1       4.053   6.104  17.442  0.00  0.00    +0.000 A 
ATOM      5  C   UNL     1       3.004   5.630  18.272  0.00  0.00    +0.000 A 
ATOM      6  C   UNL     1       2.058   6.543  18.768  0.00  0.00    +0.000 A 
ENDROOT
BRANCH   5   7
ATOM      7  C   UNL     1       2.935   4.260  18.779  0.00  0.00    +0.000 A 
ATOM      8  N   UNL     1       3.123   3.951  20.111  0.00  0.00    +0.000 N 
ATOM      9  N   UNL     1       2.974   2.649  20.406  0.00  0.00    +0.000 NA
ATOM     10  C   UNL     1       2.676   2.096  19.228  0.00  0.00    +0.000 A 
ATOM     11  C   UNL     1       2.630   3.049  18.210  0.00  0.00    +0.000 A 
ATOM     12  F   UNL     1       2.348   2.833  16.959  0.00  0.00    +0.000 F 
ATOM     13  H   UNL     1       3.403   4.600  20.836  0.00  0.00    +0.000 HD
ENDBRANCH   5   7
BRANCH   4  14
ATOM     14  N   UNL     1       5.054   5.240  16.989  0.00  0.00    +0.000 N 
ATOM     15  C   UNL     1       6.222   5.004  17.856  0.00  0.00    +0.000 C 
ATOM     16  C   UNL     1       7.358   4.598  16.896  0.00  0.00    +0.000 C 
ATOM     17  C   UNL     1       6.664   4.371  15.561  0.00  0.00    +0.000 C 
ATOM     18  C   UNL     1       5.542   5.416  15.606  0.00  0.00    +0.000 C 
BRANCH  17  19
ATOM     19  O   UNL     1       6.140   3.040  15.518  0.00  0.00    +0.000 OA
ATOM     20  H   UNL     1       6.827   2.472  15.132  0.00  0.00    +0.000 HD
ENDBRANCH  17  19
ENDBRANCH   4  14
BRANCH   1  22
ATOM     21  O   UNL     1       0.678   9.642  18.338  0.00  0.00    +0.000 OA
ATOM     22  C   UNL     1       1.305   8.919  19.103  0.00  0.00    +0.000 C 
ATOM     23  N   UNL     1       1.317   8.986  20.491  0.00  0.00    +0.000 N 
ATOM     24  H   UNL     1       2.022   8.454  20.983  0.00  0.00    +0.000 HD
BRANCH  23  25
ATOM     25  C   UNL     1       0.548   9.856  21.294  0.00  0.00    +0.000 A 
ATOM     26  C   UNL     1      -0.196   9.426  22.395  0.00  0.00    +0.000 A 
ATOM     27  C   UNL     1      -0.974  10.330  23.123  0.00  0.00    +0.000 A 
ATOM     28  C   UNL     1      -1.006  11.682  22.785  0.00  0.00    +0.000 A 
ATOM     29  C   UNL     1      -0.249  12.126  21.703  0.00  0.00    +0.000 A 
ATOM     30  C   UNL     1       0.530  11.217  20.969  0.00  0.00    +0.000 A 
BRANCH  28  31
ATOM     31  O   UNL     1      -1.857  12.437  23.537  0.00  0.00    +0.000 OA
BRANCH  31  32
ATOM     32  C   UNL     1      -3.107  12.790  22.958  0.00  0.00    +0.000 C 
ATOM     33  F   UNL     1      -3.247  12.181  21.755  0.00  0.00    +0.000 F 
ATOM     34  F   UNL     1      -4.124  12.388  23.759  0.00  0.00    +0.000 F 
ATOM     35 CL   UNL     1      -3.179  14.545  22.754  0.00  0.00    +0.000 Cl
ENDBRANCH  31  32
ENDBRANCH  28  31
ENDBRANCH  23  25
ENDBRANCH   1  22
TORSDOF 7
ENDMDL
MODEL 7
REMARK VINA RESULT:      -8.3      1.037      1.347
REMARK  Name = 
REMARK  7 active torsions:
REMARK  status: ('A' for Active; 'I' for Inactive)
REMARK    1  A    between atoms: C_2  and  C_15
REMARK    2  A    between atoms: N_3  and  C_4
REMARK    3  A    between atoms: C_7  and  O_8
REMARK    4  A    between atoms: O_8  and  C_9
REMARK    5  A    between atoms: C_18  and  N_19
REMARK    6  A    between atoms: C_22  and  O_23
REMARK    7  A    between atoms: C_25  and  C_26
REMARK                            x       y       z     vdW  Elec       q    Type
REMARK                         _______ _______ _______ _____ _____    ______ ____
ROOT
ATOM      1  C   UNL     1       2.182   7.895  18.406  0.00  0.00    +0.000 A 
ATOM      2  C   UNL     1       3.327   8.302  17.743  0.00  0.00    +0.000 A 
ATOM      3  N   UNL     1       4.251   7.447  17.223  0.00  0.00    +0.000 NA
ATOM      4  C   UNL     1       4.049   6.113  17.341  0.00  0.00    +0.000 A 
ATOM      5  C   UNL     1       2.894   5.619  18.001  0.00  0.00    +0.000 A 
ATOM      6  C   UNL     1       1.946   6.531  18.497  0.00  0.00    +0.000 A 
ENDROOT
BRANCH   5   7
ATOM      7  C   UNL     1       2.702   4.210  18.341  0.00  0.00    +0.000 A 
ATOM      8  N   UNL     1       2.494   3.238  17.385  0.00  0.00    +0.000 N 
ATOM      9  N   UNL     1       2.388   1.990  17.875  0.00  0.00    +0.000 NA
ATOM     10  C   UNL     1       2.536   2.159  19.191  0.00  0.00    +0.000 A 
ATOM     11  C   UNL     1       2.742   3.501  19.516  0.00  0.00    +0.000 A 
ATOM     12  F   UNL     1       2.941   3.987  20.705  0.00  0.00    +0.000 F 
ATOM     13  H   UNL     1       2.370   3.397  16.394  0.00  0.00    +0.000 HD
ENDBRANCH   5   7
BRANCH   4  14
ATOM     14  N   UNL     1       5.048   5.242  16.898  0.00  0.00    +0.000 N 
ATOM     15  C   UNL     1       6.184   4.963  17.795  0.00  0.00    +0.000 C 
ATOM     16  C   UNL     1       7.343   4.560  16.862  0.00  0.00    +0.000 C 
ATOM     17  C   UNL     1       6.688   4.379  15.500  0.00  0.00    +0.000 C 
ATOM     18  C   UNL     1       5.583   5.443  15.537  0.00  0.00    +0.000 C 
BRANCH  17  19
ATOM     19  O   UNL     1       6.142   3.059  15.408  0.00  0.00    +0.000 OA
ATOM     20  H   UNL     1       5.182   3.151  15.304  0.00  0.00    +0.000 HD
ENDBRANCH  17  19
ENDBRANCH   4  14
BRANCH   1  22
ATOM     21  O   UNL     1       0.606   9.591  18.266  0.00  0.00    +0.000 OA
ATOM     22  C   UNL     1       1.283   8.899  19.018  0.00  0.00    +0.000 C 
ATOM     23  N   UNL     1       1.344   8.991  20.404  0.00  0.00    +0.000 N 
ATOM     24  H   UNL     1       2.083   8.489  20.878  0.00  0.00    +0.000 HD
BRANCH  23  25
ATOM     25  C   UNL     1       0.581   9.853  21.221  0.00  0.00    +0.000 A 
ATOM     26  C   UNL     1      -0.153   9.411  22.324  0.00  0.00    +0.000 A 
ATOM     27  C   UNL     1      -0.926  10.307  23.067  0.00  0.00    +0.000 A 
ATOM     28  C   UNL     1      -0.963  11.662  22.742  0.00  0.00    +0.000 A 
ATOM     29  C   UNL     1      -0.217  12.117  21.657  0.00  0.00    +0.000 A 
ATOM     30  C   UNL     1       0.558  11.217  20.909  0.00  0.00    +0.000 A 
BRANCH  28  31
ATOM     31  O   UNL     1      -1.809  12.409  23.507  0.00  0.00    +0.000 OA
BRANCH  31  32
ATOM     32  C   UNL     1      -3.010  12.871  22.901  0.00  0.00    +0.000 C 
ATOM     33  F   UNL     1      -2.850  14.149  22.475  0.00  0.00    +0.000 F 
ATOM     34  F   UNL     1      -3.318  12.102  21.828  0.00  0.00    +0.000 F 
ATOM     35 CL   UNL     1      -4.326  12.791  24.078  0.00  0.00    +0.000 Cl
ENDBRANCH  31  32
ENDBRANCH  28  31
ENDBRANCH  23  25
ENDBRANCH   1  22
TORSDOF 7
ENDMDL
MODEL 8
REMARK VINA RESULT:      -8.2      1.583      1.818
REMARK  Name = 
REMARK  7 active torsions:
REMARK  status: ('A' for Active; 'I' for Inactive)
REMARK    1  A    between atoms: C_2  and  C_15
REMARK    2  A    between atoms: N_3  and  C_4
REMARK    3  A    between atoms: C_7  and  O_8
REMARK    4  A    between atoms: O_8  and  C_9
REMARK    5  A    between atoms: C_18  and  N_19
REMARK    6  A    between atoms: C_22  and  O_23
REMARK    7  A    between atoms: C_25  and  C_26
REMARK                            x       y       z     vdW  Elec       q    Type
REMARK                         _______ _______ _______ _____ _____    ______ ____
ROOT
ATOM      1  C   UNL     1       2.442   6.699  19.295  0.00  0.00    +0.000 A 
ATOM      2  C   UNL     1       3.140   7.428  18.347  0.00  0.00    +0.000 A 
ATOM      3  N   UNL     1       4.018   6.880  17.460  0.00  0.00    +0.000 NA
ATOM      4  C   UNL     1       4.225   5.542  17.485  0.00  0.00    +0.000 A 
ATOM      5  C   UNL     1       3.540   4.728  18.425  0.00  0.00    +0.000 A 
ATOM      6  C   UNL     1       2.618   5.324  19.303  0.00  0.00    +0.000 A 
ENDROOT
BRANCH   5   7
ATOM      7  C   UNL     1       3.853   3.317  18.647  0.00  0.00    +0.000 A 
ATOM      8  N   UNL     1       4.788   2.901  19.573  0.00  0.00    +0.000 N 
ATOM      9  N   UNL     1       4.910   1.567  19.679  0.00  0.00    +0.000 NA
ATOM     10  C   UNL     1       4.023   1.103  18.796  0.00  0.00    +0.000 A 
ATOM     11  C   UNL     1       3.348   2.141  18.152  0.00  0.00    +0.000 A 
ATOM     12  F   UNL     1       2.412   2.019  17.257  0.00  0.00    +0.000 F 
ATOM     13  H   UNL     1       5.395   3.503  20.115  0.00  0.00    +0.000 HD
ENDBRANCH   5   7
BRANCH   4  14
ATOM     14  N   UNL     1       5.201   4.999  16.645  0.00  0.00    +0.000 N 
ATOM     15  C   UNL     1       6.561   4.810  17.181  0.00  0.00    +0.000 C 
ATOM     16  C   UNL     1       7.486   4.839  15.948  0.00  0.00    +0.000 C 
ATOM     17  C   UNL     1       6.537   4.775  14.760  0.00  0.00    +0.000 C 
ATOM     18  C   UNL     1       5.323   5.554  15.282  0.00  0.00    +0.000 C 
BRANCH  17  19
ATOM     19  O   UNL     1       6.207   3.408  14.491  0.00  0.00    +0.000 OA
ATOM     20  H   UNL     1       6.110   3.319  13.529  0.00  0.00    +0.000 HD
ENDBRANCH  17  19
ENDBRANCH   4  14
BRANCH   1  22
ATOM     21  O   UNL     1       1.124   6.736  21.203  0.00  0.00    +0.000 OA
ATOM     22  C   UNL     1       1.580   7.396  20.277  0.00  0.00    +0.000 C 
ATOM     23  N   UNL     1       1.329   8.736  20.007  0.00  0.00    +0.000 N 
ATOM     24  H   UNL     1       1.617   9.099  19.109  0.00  0.00    +0.000 HD
BRANCH  23  25
ATOM     25  C   UNL     1       0.556   9.619  20.794  0.00  0.00    +0.000 A 
ATOM     26  C   UNL     1       0.504   9.556  22.188  0.00  0.00    +0.000 A 
ATOM     27  C   UNL     1      -0.316  10.430  22.907  0.00  0.00    +0.000 A 
ATOM     28  C   UNL     1      -1.078  11.397  22.255  0.00  0.00    +0.000 A 
ATOM     29  C   UNL     1      -1.015  11.483  20.865  0.00  0.00    +0.000 A 
ATOM     30  C   UNL     1      -0.194  10.604  20.143  0.00  0.00    +0.000 A 
BRANCH  28  31
ATOM     31  O   UNL     1      -1.882  12.136  23.072  0.00  0.00    +0.000 OA
BRANCH  31  32
ATOM     32  C   UNL     1      -1.644  13.536  23.137  0.00  0.00    +0.000 C 
ATOM     33  F   UNL     1      -1.945  13.999  24.375  0.00  0.00    +0.000 F 
ATOM     34  F   UNL     1      -0.337  13.801  22.891  0.00  0.00    +0.000 F 
ATOM     35 CL   UNL     1      -2.644  14.354  21.931  0.00  0.00    +0.000 Cl
ENDBRANCH  31  32
ENDBRANCH  28  31
ENDBRANCH  23  25
ENDBRANCH   1  22
TORSDOF 7
ENDMDL
MODEL 9
REMARK VINA RESULT:      -8.2      1.729      1.863
REMARK  Name = 
REMARK  7 active torsions:
REMARK  status: ('A' for Active; 'I' for Inactive)
REMARK    1  A    between atoms: C_2  and  C_15
REMARK    2  A    between atoms: N_3  and  C_4
REMARK    3  A    between atoms: C_7  and  O_8
REMARK    4  A    between atoms: O_8  and  C_9
REMARK    5  A    between atoms: C_18  and  N_19
REMARK    6  A    between atoms: C_22  and  O_23
REMARK    7  A    between atoms: C_25  and  C_26
REMARK                            x       y       z     vdW  Elec       q    Type
REMARK                         _______ _______ _______ _____ _____    ______ ____
ROOT
ATOM      1  C   UNL     1       2.509   7.446  18.617  0.00  0.00    +0.000 A 
ATOM      2  C   UNL     1       3.484   7.994  17.801  0.00  0.00    +0.000 A 
ATOM      3  N   UNL     1       4.349   7.258  17.048  0.00  0.00    +0.000 NA
ATOM      4  C   UNL     1       4.257   5.908  17.077  0.00  0.00    +0.000 A 
ATOM      5  C   UNL     1       3.277   5.273  17.885  0.00  0.00    +0.000 A 
ATOM      6  C   UNL     1       2.381   6.065  18.623  0.00  0.00    +0.000 A 
ENDROOT
BRANCH   5   7
ATOM      7  C   UNL     1       3.241   3.831  18.123  0.00  0.00    +0.000 A 
ATOM      8  N   UNL     1       2.391   2.987  17.439  0.00  0.00    +0.000 N 
ATOM      9  N   UNL     1       2.529   1.686  17.751  0.00  0.00    +0.000 NA
ATOM     10  C   UNL     1       3.503   1.688  18.664  0.00  0.00    +0.000 A 
ATOM     11  C   UNL     1       3.974   2.978  18.911  0.00  0.00    +0.000 A 
ATOM     12  F   UNL     1       4.929   3.311  19.728  0.00  0.00    +0.000 F 
ATOM     13  H   UNL     1       1.670   3.271  16.788  0.00  0.00    +0.000 HD
ENDBRANCH   5   7
BRANCH   4  14
ATOM     14  N   UNL     1       5.210   5.156  16.385  0.00  0.00    +0.000 N 
ATOM     15  C   UNL     1       6.487   4.854  17.056  0.00  0.00    +0.000 C 
ATOM     16  C   UNL     1       7.498   4.630  15.914  0.00  0.00    +0.000 C 
ATOM     17  C   UNL     1       6.641   4.557  14.658  0.00  0.00    +0.000 C 
ATOM     18  C   UNL     1       5.509   5.538  14.991  0.00  0.00    +0.000 C 
BRANCH  17  19
ATOM     19  O   UNL     1       6.149   3.223  14.496  0.00  0.00    +0.000 OA
ATOM     20  H   UNL     1       6.855   2.703  14.079  0.00  0.00    +0.000 HD
ENDBRANCH  17  19
ENDBRANCH   4  14
BRANCH   1  22
ATOM     21  O   UNL     1       1.478   7.975  20.626  0.00  0.00    +0.000 OA
ATOM     22  C   UNL     1       1.676   8.326  19.469  0.00  0.00    +0.000 C 
ATOM     23  N   UNL     1       1.153   9.448  18.838  0.00  0.00    +0.000 N 
ATOM     24  H   UNL     1       1.246   9.512  17.833  0.00  0.00    +0.000 HD
BRANCH  23  25
ATOM     25  C   UNL     1       0.348  10.444  19.433  0.00  0.00    +0.000 A 
ATOM     26  C   UNL     1       0.801  11.292  20.446  0.00  0.00    +0.000 A 
ATOM     27  C   UNL     1      -0.059  12.228  21.026  0.00  0.00    +0.000 A 
ATOM     28  C   UNL     1      -1.377  12.356  20.591  0.00  0.00    +0.000 A 
ATOM     29  C   UNL     1      -1.833  11.531  19.564  0.00  0.00    +0.000 A 
ATOM     30  C   UNL     1      -0.970  10.589  18.983  0.00  0.00    +0.000 A 
BRANCH  28  31
ATOM     31  O   UNL     1      -2.123  13.260  21.288  0.00  0.00    +0.000 OA
BRANCH  31  32
ATOM     32  C   UNL     1      -3.058  12.753  22.231  0.00  0.00    +0.000 C 
ATOM     33  F   UNL     1      -4.211  12.415  21.602  0.00  0.00    +0.000 F 
ATOM     34  F   UNL     1      -2.563  11.644  22.833  0.00  0.00    +0.000 F 
ATOM     35 CL   UNL     1      -3.382  13.988  23.453  0.00  0.00    +0.000 Cl
ENDBRANCH  31  32
ENDBRANCH  28  31
ENDBRANCH  23  25
ENDBRANCH   1  22
TORSDOF 7
ENDMDL
