MODEL 1
REMARK VINA RESULT:      -8.7      0.000      0.000
REMARK  Name = 
REMARK  9 active torsions:
REMARK  status: ('A' for Active; 'I' for Inactive)
REMARK    1  A    between atoms: C_1  and  O_2
REMARK    2  A    between atoms: O_2  and  C_3
REMARK    3  A    between atoms: N_11  and  C_12
REMARK    4  A    between atoms: C_12  and  C_13
REMARK    5  A    between atoms: C_15  and  O_16
REMARK    6  A    between atoms: O_16  and  C_17
REMARK    7  A    between atoms: C_17  and  C_18
REMARK    8  A    between atoms: C_17  and  C_19
REMARK    9  A    between atoms: C_19  and  O_21
REMARK                            x       y       z     vdW  Elec       q    Type
REMARK                         _______ _______ _______ _____ _____    ______ ____
ROOT
ATOM      1  C   UNL     1       0.763  10.683  18.734  0.00  0.00    +0.000 A 
ATOM      2  C   UNL     1       1.334   9.862  17.753  0.00  0.00    +0.000 A 
ATOM      3  C   UNL     1       1.841   8.586  18.067  0.00  0.00    +0.000 A 
ATOM      4  C   UNL     1       1.727   8.119  19.388  0.00  0.00    +0.000 A 
ATOM      5  C   UNL     1       1.993   6.927  20.115  0.00  0.00    +0.000 A 
ATOM      6  N   UNL     1       2.576   5.784  19.617  0.00  0.00    +0.000 N 
ATOM      7  C   UNL     1       3.896   5.671  19.128  0.00  0.00    +0.000 A 
ATOM      8  O   UNL     1       4.726   6.555  18.976  0.00  0.00    +0.000 OA
ATOM      9  N   UNL     1       4.089   4.286  18.862  0.00  0.00    +0.000 N 
ATOM     10  C   UNL     1       2.881   3.611  19.109  0.00  0.00    +0.000 A 
ATOM     11  C   UNL     1       2.523   2.301  18.865  0.00  0.00    +0.000 A 
ATOM     12  C   UNL     1       1.222   1.909  19.186  0.00  0.00    +0.000 A 
ATOM     13  C   UNL     1       0.301   2.831  19.715  0.00  0.00    +0.000 A 
ATOM     14  C   UNL     1       0.665   4.162  19.930  0.00  0.00    +0.000 A 
ATOM     15  C   UNL     1       1.961   4.529  19.619  0.00  0.00    +0.000 A 
ATOM     16  N   UNL     1       1.502   7.008  21.363  0.00  0.00    +0.000 NA
ATOM     17  O   UNL     1       1.024   8.298  21.506  0.00  0.00    +0.000 OA
ATOM     18  C   UNL     1       1.123   8.952  20.319  0.00  0.00    +0.000 A 
ATOM     19  C   UNL     1       0.658  10.238  20.056  0.00  0.00    +0.000 A 
ENDROOT
BRANCH   1  21
ATOM     20  C   UNL     1       1.158  13.027  18.597  0.00  0.00    +0.000 C 
ATOM     21  O   UNL     1       0.249  11.936  18.528  0.00  0.00    +0.000 OA
ENDBRANCH   1  21
BRANCH   9  22
ATOM     22  C   UNL     1       5.319   3.682  18.408  0.00  0.00    +0.000 C 
BRANCH  22  23
ATOM     23  C   UNL     1       5.898   4.292  17.140  0.00  0.00    +0.000 A 
ATOM     24  C   UNL     1       5.207   4.081  15.925  0.00  0.00    +0.000 A 
ATOM     25  C   UNL     1       5.773   4.446  14.700  0.00  0.00    +0.000 A 
ATOM     26  C   UNL     1       6.967   5.160  14.678  0.00  0.00    +0.000 A 
ATOM     27  C   UNL     1       7.635   5.438  15.866  0.00  0.00    +0.000 A 
ATOM     28  C   UNL     1       7.122   4.982  17.086  0.00  0.00    +0.000 A 
ATOM     29 CL   UNL     1       8.116   5.263  18.463  0.00  0.00    +0.000 Cl
BRANCH  25  30
ATOM     30  O   UNL     1       5.294   4.120  13.465  0.00  0.00    +0.000 OA
BRANCH  30  31
ATOM     31  C   UNL     1       6.084   3.324  12.586  0.00  0.00    +0.000 C 
ATOM     32  C   UNL     1       7.130   4.194  11.900  0.00  0.00    +0.000 C 
BRANCH  31  33
ATOM     33  C   UNL     1       5.407   2.326  11.620  0.00  0.00    +0.000 C 
ATOM     34  O   UNL     1       4.301   2.467  11.121  0.00  0.00    +0.000 OA
BRANCH  33  35
ATOM     35  O   UNL     1       6.189   1.251  11.340  0.00  0.00    +0.000 OA
ATOM     36  H   UNL     1       6.734   0.982  12.108  0.00  0.00    +0.000 HD
ENDBRANCH  33  35
ENDBRANCH  31  33
ENDBRANCH  30  31
ENDBRANCH  25  30
ENDBRANCH  22  23
ENDBRANCH   9  22
TORSDOF 7
ENDMDL
MODEL 2
REMARK VINA RESULT:      -8.3      4.829     10.474
REMARK  Name = 
REMARK  9 active torsions:
REMARK  status: ('A' for Active; 'I' for Inactive)
REMARK    1  A    between atoms: C_1  and  O_2
REMARK    2  A    between atoms: O_2  and  C_3
REMARK    3  A    between atoms: N_11  and  C_12
REMARK    4  A    between atoms: C_12  and  C_13
REMARK    5  A    between atoms: C_15  and  O_16
REMARK    6  A    between atoms: O_16  and  C_17
REMARK    7  A    between atoms: C_17  and  C_18
REMARK    8  A    between atoms: C_17  and  C_19
REMARK    9  A    between atoms: C_19  and  O_21
REMARK                            x       y       z     vdW  Elec       q    Type
REMARK                         _______ _______ _______ _____ _____    ______ ____
ROOT
ATOM      1  C   UNL     1       2.974   5.118  19.666  0.00  0.00    +0.000 A 
ATOM      2  C   UNL     1       1.992   5.499  20.588  0.00  0.00    +0.000 A 
ATOM      3  C   UNL     1       1.436   6.793  20.577  0.00  0.00    +0.000 A 
ATOM      4  C   UNL     1       1.853   7.700  19.588  0.00  0.00    +0.000 A 
ATOM      5  C   UNL     1       1.523   9.010  19.147  0.00  0.00    +0.000 A 
ATOM      6  N   UNL     1       0.602   9.854  19.725  0.00  0.00    +0.000 N 
ATOM      7  C   UNL     1       0.684  10.411  21.020  0.00  0.00    +0.000 A 
ATOM      8  O   UNL     1       1.517  10.192  21.887  0.00  0.00    +0.000 OA
ATOM      9  N   UNL     1      -0.407  11.320  21.117  0.00  0.00    +0.000 N 
ATOM     10  C   UNL     1      -1.164  11.237  19.935  0.00  0.00    +0.000 A 
ATOM     11  C   UNL     1      -2.377  11.805  19.610  0.00  0.00    +0.000 A 
ATOM     12  C   UNL     1      -2.918  11.518  18.355  0.00  0.00    +0.000 A 
ATOM     13  C   UNL     1      -2.255  10.654  17.466  0.00  0.00    +0.000 A 
ATOM     14  C   UNL     1      -1.040  10.060  17.817  0.00  0.00    +0.000 A 
ATOM     15  C   UNL     1      -0.514  10.367  19.058  0.00  0.00    +0.000 A 
ATOM     16  N   UNL     1       2.161   9.305  18.002  0.00  0.00    +0.000 NA
ATOM     17  O   UNL     1       3.011   8.243  17.750  0.00  0.00    +0.000 OA
ATOM     18  C   UNL     1       2.804   7.269  18.673  0.00  0.00    +0.000 A 
ATOM     19  C   UNL     1       3.412   6.015  18.686  0.00  0.00    +0.000 A 
ENDROOT
BRANCH   1  21
ATOM     20  C   UNL     1       4.946   3.859  19.221  0.00  0.00    +0.000 C 
ATOM     21  O   UNL     1       3.575   3.889  19.600  0.00  0.00    +0.000 OA
ENDBRANCH   1  21
BRANCH   9  22
ATOM     22  C   UNL     1      -0.689  12.175  22.246  0.00  0.00    +0.000 C 
BRANCH  22  23
ATOM     23  C   UNL     1      -0.263  13.625  22.068  0.00  0.00    +0.000 A 
ATOM     24  C   UNL     1       0.739  13.912  21.114  0.00  0.00    +0.000 A 
ATOM     25  C   UNL     1       1.311  15.185  21.030  0.00  0.00    +0.000 A 
ATOM     26  C   UNL     1       0.792  16.226  21.793  0.00  0.00    +0.000 A 
ATOM     27  C   UNL     1      -0.239  15.983  22.694  0.00  0.00    +0.000 A 
ATOM     28  C   UNL     1      -0.743  14.687  22.854  0.00  0.00    +0.000 A 
ATOM     29 CL   UNL     1      -1.912  14.493  24.104  0.00  0.00    +0.000 Cl
BRANCH  25  30
ATOM     30  O   UNL     1       2.407  15.525  20.291  0.00  0.00    +0.000 OA
BRANCH  30  31
ATOM     31  C   UNL     1       2.266  15.795  18.899  0.00  0.00    +0.000 C 
ATOM     32  C   UNL     1       2.971  14.712  18.090  0.00  0.00    +0.000 C 
BRANCH  31  33
ATOM     33  C   UNL     1       2.524  17.216  18.351  0.00  0.00    +0.000 C 
ATOM     34  O   UNL     1       2.668  17.503  17.173  0.00  0.00    +0.000 OA
BRANCH  33  35
ATOM     35  O   UNL     1       2.550  18.160  19.328  0.00  0.00    +0.000 OA
ATOM     36  H   UNL     1       1.650  18.455  19.579  0.00  0.00    +0.000 HD
ENDBRANCH  33  35
ENDBRANCH  31  33
ENDBRANCH  30  31
ENDBRANCH  25  30
ENDBRANCH  22  23
ENDBRANCH   9  22
TORSDOF 7
ENDMDL
MODEL 3
REMARK VINA RESULT:      -8.2      4.795     10.813
REMARK  Name = 
REMARK  9 active torsions:
REMARK  status: ('A' for Active; 'I' for Inactive)
REMARK    1  A    between atoms: C_1  and  O_2
REMARK    2  A    between atoms: O_2  and  C_3
REMARK    3  A    between atoms: N_11  and  C_12
REMARK    4  A    between atoms: C_12  and  C_13
REMARK    5  A    between atoms: C_15  and  O_16
REMARK    6  A    between atoms: O_16  and  C_17
REMARK    7  A    between atoms: C_17  and  C_18
REMARK    8  A    between atoms: C_17  and  C_19
REMARK    9  A    between atoms: C_19  and  O_21
REMARK                            x       y       z     vdW  Elec       q    Type
REMARK                         _______ _______ _______ _____ _____    ______ ____
ROOT
ATOM      1  C   UNL     1       3.019   5.512  19.522  0.00  0.00    +0.000 A 
ATOM      2  C   UNL     1       2.084   5.911  20.485  0.00  0.00    +0.000 A 
ATOM      3  C   UNL     1       1.463   7.174  20.426  0.00  0.00    +0.000 A 
ATOM      4  C   UNL     1       1.763   8.026  19.350  0.00  0.00    +0.000 A 
ATOM      5  C   UNL     1       1.336   9.285  18.847  0.00  0.00    +0.000 A 
ATOM      6  N   UNL     1       0.415  10.124  19.431  0.00  0.00    +0.000 N 
ATOM      7  C   UNL     1       0.557  10.775  20.677  0.00  0.00    +0.000 A 
ATOM      8  O   UNL     1       1.459  10.657  21.494  0.00  0.00    +0.000 OA
ATOM      9  N   UNL     1      -0.570  11.637  20.790  0.00  0.00    +0.000 N 
ATOM     10  C   UNL     1      -1.401  11.434  19.675  0.00  0.00    +0.000 A 
ATOM     11  C   UNL     1      -2.662  11.921  19.401  0.00  0.00    +0.000 A 
ATOM     12  C   UNL     1      -3.273  11.520  18.211  0.00  0.00    +0.000 A 
ATOM     13  C   UNL     1      -2.629  10.626  17.337  0.00  0.00    +0.000 A 
ATOM     14  C   UNL     1      -1.364  10.116  17.638  0.00  0.00    +0.000 A 
ATOM     15  C   UNL     1      -0.769  10.535  18.814  0.00  0.00    +0.000 A 
ATOM     16  N   UNL     1       1.877   9.527  17.642  0.00  0.00    +0.000 NA
ATOM     17  O   UNL     1       2.761   8.491  17.401  0.00  0.00    +0.000 OA
ATOM     18  C   UNL     1       2.669   7.576  18.400  0.00  0.00    +0.000 A 
ATOM     19  C   UNL     1       3.340   6.357  18.454  0.00  0.00    +0.000 A 
ENDROOT
BRANCH   1  21
ATOM     20  C   UNL     1       4.832   4.224  18.670  0.00  0.00    +0.000 C 
ATOM     21  O   UNL     1       3.676   4.310  19.495  0.00  0.00    +0.000 OA
ENDBRANCH   1  21
BRANCH   9  22
ATOM     22  C   UNL     1      -0.817  12.556  21.876  0.00  0.00    +0.000 C 
BRANCH  22  23
ATOM     23  C   UNL     1      -0.876  14.021  21.470  0.00  0.00    +0.000 A 
ATOM     24  C   UNL     1       0.180  14.536  20.683  0.00  0.00    +0.000 A 
ATOM     25  C   UNL     1       0.290  15.906  20.433  0.00  0.00    +0.000 A 
ATOM     26  C   UNL     1      -0.727  16.765  20.837  0.00  0.00    +0.000 A 
ATOM     27  C   UNL     1      -1.810  16.273  21.557  0.00  0.00    +0.000 A 
ATOM     28  C   UNL     1      -1.870  14.917  21.899  0.00  0.00    +0.000 A 
ATOM     29 CL   UNL     1      -3.184  14.463  22.916  0.00  0.00    +0.000 Cl
BRANCH  25  30
ATOM     30  O   UNL     1       1.357  16.535  19.859  0.00  0.00    +0.000 OA
BRANCH  30  31
ATOM     31  C   UNL     1       1.493  16.546  18.440  0.00  0.00    +0.000 C 
ATOM     32  C   UNL     1       2.921  16.177  18.055  0.00  0.00    +0.000 C 
BRANCH  31  33
ATOM     33  C   UNL     1       0.935  17.725  17.614  0.00  0.00    +0.000 C 
ATOM     34  O   UNL     1       1.601  18.630  17.136  0.00  0.00    +0.000 OA
BRANCH  33  35
ATOM     35  O   UNL     1      -0.410  17.652  17.434  0.00  0.00    +0.000 OA
ATOM     36  H   UNL     1      -0.685  16.794  17.051  0.00  0.00    +0.000 HD
ENDBRANCH  33  35
ENDBRANCH  31  33
ENDBRANCH  30  31
ENDBRANCH  25  30
ENDBRANCH  22  23
ENDBRANCH   9  22
TORSDOF 7
ENDMDL
MODEL 4
REMARK VINA RESULT:      -8.1      4.765     10.007
REMARK  Name = 
REMARK  9 active torsions:
REMARK  status: ('A' for Active; 'I' for Inactive)
REMARK    1  A    between atoms: C_1  and  O_2
REMARK    2  A    between atoms: O_2  and  C_3
REMARK    3  A    between atoms: N_11  and  C_12
REMARK    4  A    between atoms: C_12  and  C_13
REMARK    5  A    between atoms: C_15  and  O_16
REMARK    6  A    between atoms: O_16  and  C_17
REMARK    7  A    between atoms: C_17  and  C_18
REMARK    8  A    between atoms: C_17  and  C_19
REMARK    9  A    between atoms: C_19  and  O_21
REMARK                            x       y       z     vdW  Elec       q    Type
REMARK                         _______ _______ _______ _____ _____    ______ ____
ROOT
ATOM      1  C   UNL     1       2.854   5.003  19.793  0.00  0.00    +0.000 A 
ATOM      2  C   UNL     1       1.862   5.436  20.681  0.00  0.00    +0.000 A 
ATOM      3  C   UNL     1       1.351   6.747  20.629  0.00  0.00    +0.000 A 
ATOM      4  C   UNL     1       1.824   7.619  19.634  0.00  0.00    +0.000 A 
ATOM      5  C   UNL     1       1.550   8.930  19.158  0.00  0.00    +0.000 A 
ATOM      6  N   UNL     1       0.644   9.816  19.694  0.00  0.00    +0.000 N 
ATOM      7  C   UNL     1       0.711  10.396  20.980  0.00  0.00    +0.000 A 
ATOM      8  O   UNL     1       1.514  10.168  21.873  0.00  0.00    +0.000 OA
ATOM      9  N   UNL     1      -0.350  11.344  21.030  0.00  0.00    +0.000 N 
ATOM     10  C   UNL     1      -1.079  11.261  19.831  0.00  0.00    +0.000 A 
ATOM     11  C   UNL     1      -2.264  11.863  19.462  0.00  0.00    +0.000 A 
ATOM     12  C   UNL     1      -2.781  11.568  18.199  0.00  0.00    +0.000 A 
ATOM     13  C   UNL     1      -2.126  10.664  17.345  0.00  0.00    +0.000 A 
ATOM     14  C   UNL     1      -0.941  10.037  17.740  0.00  0.00    +0.000 A 
ATOM     15  C   UNL     1      -0.436  10.352  18.989  0.00  0.00    +0.000 A 
ATOM     16  N   UNL     1       2.227   9.180  18.025  0.00  0.00    +0.000 NA
ATOM     17  O   UNL     1       3.046   8.085  17.817  0.00  0.00    +0.000 OA
ATOM     18  C   UNL     1       2.783   7.137  18.753  0.00  0.00    +0.000 A 
ATOM     19  C   UNL     1       3.347   5.865  18.807  0.00  0.00    +0.000 A 
ENDROOT
BRANCH   1  21
ATOM     20  C   UNL     1       4.518   3.558  18.891  0.00  0.00    +0.000 C 
ATOM     21  O   UNL     1       3.415   3.753  19.767  0.00  0.00    +0.000 OA
ENDBRANCH   1  21
BRANCH   9  22
ATOM     22  C   UNL     1      -0.632  12.231  22.133  0.00  0.00    +0.000 C 
BRANCH  22  23
ATOM     23  C   UNL     1      -0.015  13.616  22.011  0.00  0.00    +0.000 A 
ATOM     24  C   UNL     1       1.120  13.768  21.182  0.00  0.00    +0.000 A 
ATOM     25  C   UNL     1       1.850  14.960  21.168  0.00  0.00    +0.000 A 
ATOM     26  C   UNL     1       1.375  16.066  21.867  0.00  0.00    +0.000 A 
ATOM     27  C   UNL     1       0.224  15.962  22.639  0.00  0.00    +0.000 A 
ATOM     28  C   UNL     1      -0.450  14.739  22.736  0.00  0.00    +0.000 A 
ATOM     29 CL   UNL     1      -1.773  14.703  23.839  0.00  0.00    +0.000 Cl
BRANCH  25  30
ATOM     30  O   UNL     1       3.057  15.156  20.565  0.00  0.00    +0.000 OA
BRANCH  30  31
ATOM     31  C   UNL     1       3.116  15.419  19.165  0.00  0.00    +0.000 C 
ATOM     32  C   UNL     1       1.737  15.826  18.658  0.00  0.00    +0.000 C 
BRANCH  31  33
ATOM     33  C   UNL     1       3.837  14.434  18.218  0.00  0.00    +0.000 C 
ATOM     34  O   UNL     1       4.995  14.533  17.844  0.00  0.00    +0.000 OA
BRANCH  33  35
ATOM     35  O   UNL     1       3.050  13.391  17.845  0.00  0.00    +0.000 OA
ATOM     36  H   UNL     1       2.826  13.420  16.892  0.00  0.00    +0.000 HD
ENDBRANCH  33  35
ENDBRANCH  31  33
ENDBRANCH  30  31
ENDBRANCH  25  30
ENDBRANCH  22  23
ENDBRANCH   9  22
TORSDOF 7
ENDMDL
MODEL 5
REMARK VINA RESULT:      -8.0      5.092     11.423
REMARK  Name = 
REMARK  9 active torsions:
REMARK  status: ('A' for Active; 'I' for Inactive)
REMARK    1  A    between atoms: C_1  and  O_2
REMARK    2  A    between atoms: O_2  and  C_3
REMARK    3  A    between atoms: N_11  and  C_12
REMARK    4  A    between atoms: C_12  and  C_13
REMARK    5  A    between atoms: C_15  and  O_16
REMARK    6  A    between atoms: O_16  and  C_17
REMARK    7  A    between atoms: C_17  and  C_18
REMARK    8  A    between atoms: C_17  and  C_19
REMARK    9  A    between atoms: C_19  and  O_21
REMARK                            x       y       z     vdW  Elec       q    Type
REMARK                         _______ _______ _______ _____ _____    ______ ____
ROOT
ATOM      1  C   UNL     1       3.047   5.510  19.284  0.00  0.00    +0.000 A 
ATOM      2  C   UNL     1       2.150   5.885  20.291  0.00  0.00    +0.000 A 
ATOM      3  C   UNL     1       1.541   7.156  20.296  0.00  0.00    +0.000 A 
ATOM      4  C   UNL     1       1.816   8.042  19.240  0.00  0.00    +0.000 A 
ATOM      5  C   UNL     1       1.386   9.321  18.795  0.00  0.00    +0.000 A 
ATOM      6  N   UNL     1       0.495  10.149  19.438  0.00  0.00    +0.000 N 
ATOM      7  C   UNL     1       0.686  10.755  20.699  0.00  0.00    +0.000 A 
ATOM      8  O   UNL     1       1.612  10.600  21.481  0.00  0.00    +0.000 OA
ATOM      9  N   UNL     1      -0.427  11.624  20.880  0.00  0.00    +0.000 N 
ATOM     10  C   UNL     1      -1.297  11.469  19.787  0.00  0.00    +0.000 A 
ATOM     11  C   UNL     1      -2.561  11.977  19.572  0.00  0.00    +0.000 A 
ATOM     12  C   UNL     1      -3.215  11.623  18.390  0.00  0.00    +0.000 A 
ATOM     13  C   UNL     1      -2.612  10.754  17.465  0.00  0.00    +0.000 A 
ATOM     14  C   UNL     1      -1.342  10.221  17.706  0.00  0.00    +0.000 A 
ATOM     15  C   UNL     1      -0.705  10.593  18.875  0.00  0.00    +0.000 A 
ATOM     16  N   UNL     1       1.890   9.599  17.581  0.00  0.00    +0.000 NA
ATOM     17  O   UNL     1       2.754   8.563  17.275  0.00  0.00    +0.000 OA
ATOM     18  C   UNL     1       2.684   7.615  18.246  0.00  0.00    +0.000 A 
ATOM     19  C   UNL     1       3.343   6.388  18.235  0.00  0.00    +0.000 A 
ENDROOT
BRANCH   1  21
ATOM     20  C   UNL     1       5.112   4.329  19.177  0.00  0.00    +0.000 C 
ATOM     21  O   UNL     1       3.690   4.304  19.194  0.00  0.00    +0.000 OA
ENDBRANCH   1  21
BRANCH   9  22
ATOM     22  C   UNL     1      -0.628  12.508  22.004  0.00  0.00    +0.000 C 
BRANCH  22  23
ATOM     23  C   UNL     1      -1.980  13.202  22.035  0.00  0.00    +0.000 A 
ATOM     24  C   UNL     1      -3.061  12.527  22.646  0.00  0.00    +0.000 A 
ATOM     25  C   UNL     1      -4.367  13.016  22.547  0.00  0.00    +0.000 A 
ATOM     26  C   UNL     1      -4.595  14.259  21.964  0.00  0.00    +0.000 A 
ATOM     27  C   UNL     1      -3.538  14.975  21.413  0.00  0.00    +0.000 A 
ATOM     28  C   UNL     1      -2.245  14.439  21.420  0.00  0.00    +0.000 A 
ATOM     29 CL   UNL     1      -1.055  15.354  20.576  0.00  0.00    +0.000 Cl
BRANCH  25  30
ATOM     30  O   UNL     1      -5.502  12.359  22.923  0.00  0.00    +0.000 OA
BRANCH  30  31
ATOM     31  C   UNL     1      -6.672  12.446  22.115  0.00  0.00    +0.000 C 
ATOM     32  C   UNL     1      -7.914  12.412  22.998  0.00  0.00    +0.000 C 
BRANCH  31  33
ATOM     33  C   UNL     1      -6.811  11.569  20.851  0.00  0.00    +0.000 C 
ATOM     34  O   UNL     1      -6.423  11.874  19.734  0.00  0.00    +0.000 OA
BRANCH  33  35
ATOM     35  O   UNL     1      -7.400  10.371  21.103  0.00  0.00    +0.000 OA
ATOM     36  H   UNL     1      -7.338   9.761  20.339  0.00  0.00    +0.000 HD
ENDBRANCH  33  35
ENDBRANCH  31  33
ENDBRANCH  30  31
ENDBRANCH  25  30
ENDBRANCH  22  23
ENDBRANCH   9  22
TORSDOF 7
ENDMDL
MODEL 6
REMARK VINA RESULT:      -7.9      4.903     10.565
REMARK  Name = 
REMARK  9 active torsions:
REMARK  status: ('A' for Active; 'I' for Inactive)
REMARK    1  A    between atoms: C_1  and  O_2
REMARK    2  A    between atoms: O_2  and  C_3
REMARK    3  A    between atoms: N_11  and  C_12
REMARK    4  A    between atoms: C_12  and  C_13
REMARK    5  A    between atoms: C_15  and  O_16
REMARK    6  A    between atoms: O_16  and  C_17
REMARK    7  A    between atoms: C_17  and  C_18
REMARK    8  A    between atoms: C_17  and  C_19
REMARK    9  A    between atoms: C_19  and  O_21
REMARK                            x       y       z     vdW  Elec       q    Type
REMARK                         _______ _______ _______ _____ _____    ______ ____
ROOT
ATOM      1  C   UNL     1       2.926   5.173  19.663  0.00  0.00    +0.000 A 
ATOM      2  C   UNL     1       1.944   5.546  20.589  0.00  0.00    +0.000 A 
ATOM      3  C   UNL     1       1.392   6.841  20.594  0.00  0.00    +0.000 A 
ATOM      4  C   UNL     1       1.812   7.759  19.616  0.00  0.00    +0.000 A 
ATOM      5  C   UNL     1       1.486   9.076  19.192  0.00  0.00    +0.000 A 
ATOM      6  N   UNL     1       0.567   9.915  19.779  0.00  0.00    +0.000 N 
ATOM      7  C   UNL     1       0.650  10.455  21.082  0.00  0.00    +0.000 A 
ATOM      8  O   UNL     1       1.483  10.224  21.946  0.00  0.00    +0.000 OA
ATOM      9  N   UNL     1      -0.438  11.367  21.189  0.00  0.00    +0.000 N 
ATOM     10  C   UNL     1      -1.194  11.300  20.007  0.00  0.00    +0.000 A 
ATOM     11  C   UNL     1      -2.406  11.877  19.688  0.00  0.00    +0.000 A 
ATOM     12  C   UNL     1      -2.948  11.606  18.429  0.00  0.00    +0.000 A 
ATOM     13  C   UNL     1      -2.287  10.751  17.530  0.00  0.00    +0.000 A 
ATOM     14  C   UNL     1      -1.074  10.149  17.874  0.00  0.00    +0.000 A 
ATOM     15  C   UNL     1      -0.547  10.439  19.119  0.00  0.00    +0.000 A 
ATOM     16  N   UNL     1       2.125   9.383  18.051  0.00  0.00    +0.000 NA
ATOM     17  O   UNL     1       2.972   8.322  17.786  0.00  0.00    +0.000 OA
ATOM     18  C   UNL     1       2.762   7.337  18.696  0.00  0.00    +0.000 A 
ATOM     19  C   UNL     1       3.366   6.082  18.694  0.00  0.00    +0.000 A 
ENDROOT
BRANCH   1  21
ATOM     20  C   UNL     1       2.889   2.970  18.761  0.00  0.00    +0.000 C 
ATOM     21  O   UNL     1       3.523   3.943  19.581  0.00  0.00    +0.000 OA
ENDBRANCH   1  21
BRANCH   9  22
ATOM     22  C   UNL     1      -0.717  12.208  22.329  0.00  0.00    +0.000 C 
BRANCH  22  23
ATOM     23  C   UNL     1      -0.222  13.641  22.199  0.00  0.00    +0.000 A 
ATOM     24  C   UNL     1       0.835  13.900  21.298  0.00  0.00    +0.000 A 
ATOM     25  C   UNL     1       1.465  15.148  21.264  0.00  0.00    +0.000 A 
ATOM     26  C   UNL     1       0.956  16.198  22.023  0.00  0.00    +0.000 A 
ATOM     27  C   UNL     1      -0.126  15.985  22.870  0.00  0.00    +0.000 A 
ATOM     28  C   UNL     1      -0.693  14.710  22.982  0.00  0.00    +0.000 A 
ATOM     29 CL   UNL     1      -1.926  14.546  24.172  0.00  0.00    +0.000 Cl
BRANCH  25  30
ATOM     30  O   UNL     1       2.608  15.453  20.584  0.00  0.00    +0.000 OA
BRANCH  30  31
ATOM     31  C   UNL     1       3.820  15.675  21.299  0.00  0.00    +0.000 C 
ATOM     32  C   UNL     1       4.958  15.933  20.318  0.00  0.00    +0.000 C 
BRANCH  31  33
ATOM     33  C   UNL     1       4.226  14.735  22.455  0.00  0.00    +0.000 C 
ATOM     34  O   UNL     1       4.623  13.587  22.325  0.00  0.00    +0.000 OA
BRANCH  33  35
ATOM     35  O   UNL     1       4.126  15.325  23.674  0.00  0.00    +0.000 OA
ATOM     36  H   UNL     1       3.197  15.392  23.977  0.00  0.00    +0.000 HD
ENDBRANCH  33  35
ENDBRANCH  31  33
ENDBRANCH  30  31
ENDBRANCH  25  30
ENDBRANCH  22  23
ENDBRANCH   9  22
TORSDOF 7
ENDMDL
MODEL 7
REMARK VINA RESULT:      -7.9      4.795     10.523
REMARK  Name = 
REMARK  9 active torsions:
REMARK  status: ('A' for Active; 'I' for Inactive)
REMARK    1  A    between atoms: C_1  and  O_2
REMARK    2  A    between atoms: O_2  and  C_3
REMARK    3  A    between atoms: N_11  and  C_12
REMARK    4  A    between atoms: C_12  and  C_13
REMARK    5  A    between atoms: C_15  and  O_16
REMARK    6  A    between atoms: O_16  and  C_17
REMARK    7  A    between atoms: C_17  and  C_18
REMARK    8  A    between atoms: C_17  and  C_19
REMARK    9  A    between atoms: C_19  and  O_21
REMARK                            x       y       z     vdW  Elec       q    Type
REMARK                         _______ _______ _______ _____ _____    ______ ____
ROOT
ATOM      1  C   UNL     1       3.013   5.639  19.584  0.00  0.00    +0.000 A 
ATOM      2  C   UNL     1       2.075   6.054  20.537  0.00  0.00    +0.000 A 
ATOM      3  C   UNL     1       1.438   7.307  20.444  0.00  0.00    +0.000 A 
ATOM      4  C   UNL     1       1.725   8.132  19.343  0.00  0.00    +0.000 A 
ATOM      5  C   UNL     1       1.281   9.370  18.805  0.00  0.00    +0.000 A 
ATOM      6  N   UNL     1       0.351  10.214  19.367  0.00  0.00    +0.000 N 
ATOM      7  C   UNL     1       0.487  10.902  20.593  0.00  0.00    +0.000 A 
ATOM      8  O   UNL     1       1.392  10.819  21.411  0.00  0.00    +0.000 OA
ATOM      9  N   UNL     1      -0.651  11.752  20.685  0.00  0.00    +0.000 N 
ATOM     10  C   UNL     1      -1.481  11.508  19.578  0.00  0.00    +0.000 A 
ATOM     11  C   UNL     1      -2.749  11.970  19.293  0.00  0.00    +0.000 A 
ATOM     12  C   UNL     1      -3.357  11.527  18.116  0.00  0.00    +0.000 A 
ATOM     13  C   UNL     1      -2.704  10.617  17.266  0.00  0.00    +0.000 A 
ATOM     14  C   UNL     1      -1.431  10.132  17.579  0.00  0.00    +0.000 A 
ATOM     15  C   UNL     1      -0.840  10.592  18.742  0.00  0.00    +0.000 A 
ATOM     16  N   UNL     1       1.817   9.585  17.592  0.00  0.00    +0.000 NA
ATOM     17  O   UNL     1       2.713   8.553  17.379  0.00  0.00    +0.000 OA
ATOM     18  C   UNL     1       2.635   7.666  18.405  0.00  0.00    +0.000 A 
ATOM     19  C   UNL     1       3.322   6.457  18.491  0.00  0.00    +0.000 A 
ENDROOT
BRANCH   1  21
ATOM     20  C   UNL     1       4.241   4.011  18.355  0.00  0.00    +0.000 C 
ATOM     21  O   UNL     1       3.686   4.446  19.590  0.00  0.00    +0.000 OA
ENDBRANCH   1  21
BRANCH   9  22
ATOM     22  C   UNL     1      -0.907  12.699  21.744  0.00  0.00    +0.000 C 
BRANCH  22  23
ATOM     23  C   UNL     1      -0.748  14.159  21.347  0.00  0.00    +0.000 A 
ATOM     24  C   UNL     1       0.227  14.481  20.374  0.00  0.00    +0.000 A 
ATOM     25  C   UNL     1       0.559  15.810  20.099  0.00  0.00    +0.000 A 
ATOM     26  C   UNL     1      -0.177  16.839  20.680  0.00  0.00    +0.000 A 
ATOM     27  C   UNL     1      -1.185  16.547  21.591  0.00  0.00    +0.000 A 
ATOM     28  C   UNL     1      -1.449  15.219  21.947  0.00  0.00    +0.000 A 
ATOM     29 CL   UNL     1      -2.617  15.001  23.193  0.00  0.00    +0.000 Cl
BRANCH  25  30
ATOM     30  O   UNL     1       1.605  16.235  19.333  0.00  0.00    +0.000 OA
BRANCH  30  31
ATOM     31  C   UNL     1       2.919  15.752  19.598  0.00  0.00    +0.000 C 
ATOM     32  C   UNL     1       3.385  16.246  20.962  0.00  0.00    +0.000 C 
BRANCH  31  33
ATOM     33  C   UNL     1       4.018  15.852  18.517  0.00  0.00    +0.000 C 
ATOM     34  O   UNL     1       4.431  14.922  17.841  0.00  0.00    +0.000 OA
BRANCH  33  35
ATOM     35  O   UNL     1       4.484  17.118  18.355  0.00  0.00    +0.000 OA
ATOM     36  H   UNL     1       4.201  17.711  19.081  0.00  0.00    +0.000 HD
ENDBRANCH  33  35
ENDBRANCH  31  33
ENDBRANCH  30  31
ENDBRANCH  25  30
ENDBRANCH  22  23
ENDBRANCH   9  22
TORSDOF 7
ENDMDL
MODEL 8
REMARK VINA RESULT:      -7.8      4.713     10.320
REMARK  Name = 
REMARK  9 active torsions:
REMARK  status: ('A' for Active; 'I' for Inactive)
REMARK    1  A    between atoms: C_1  and  O_2
REMARK    2  A    between atoms: O_2  and  C_3
REMARK    3  A    between atoms: N_11  and  C_12
REMARK    4  A    between atoms: C_12  and  C_13
REMARK    5  A    between atoms: C_15  and  O_16
REMARK    6  A    between atoms: O_16  and  C_17
REMARK    7  A    between atoms: C_17  and  C_18
REMARK    8  A    between atoms: C_17  and  C_19
REMARK    9  A    between atoms: C_19  and  O_21
REMARK                            x       y       z     vdW  Elec       q    Type
REMARK                         _______ _______ _______ _____ _____    ______ ____
ROOT
ATOM      1  C   UNL     1       3.032   5.543  19.643  0.00  0.00    +0.000 A 
ATOM      2  C   UNL     1       2.076   5.978  20.569  0.00  0.00    +0.000 A 
ATOM      3  C   UNL     1       1.444   7.230  20.439  0.00  0.00    +0.000 A 
ATOM      4  C   UNL     1       1.756   8.034  19.329  0.00  0.00    +0.000 A 
ATOM      5  C   UNL     1       1.326   9.263  18.759  0.00  0.00    +0.000 A 
ATOM      6  N   UNL     1       0.387  10.119  19.285  0.00  0.00    +0.000 N 
ATOM      7  C   UNL     1       0.499  10.829  20.501  0.00  0.00    +0.000 A 
ATOM      8  O   UNL     1       1.386  10.760  21.339  0.00  0.00    +0.000 OA
ATOM      9  N   UNL     1      -0.638  11.684  20.553  0.00  0.00    +0.000 N 
ATOM     10  C   UNL     1      -1.446  11.420  19.433  0.00  0.00    +0.000 A 
ATOM     11  C   UNL     1      -2.706  11.880  19.114  0.00  0.00    +0.000 A 
ATOM     12  C   UNL     1      -3.291  11.416  17.932  0.00  0.00    +0.000 A 
ATOM     13  C   UNL     1      -2.623  10.489  17.114  0.00  0.00    +0.000 A 
ATOM     14  C   UNL     1      -1.358  10.007  17.462  0.00  0.00    +0.000 A 
ATOM     15  C   UNL     1      -0.790  10.488  18.628  0.00  0.00    +0.000 A 
ATOM     16  N   UNL     1       1.888   9.453  17.553  0.00  0.00    +0.000 NA
ATOM     17  O   UNL     1       2.786   8.415  17.378  0.00  0.00    +0.000 OA
ATOM     18  C   UNL     1       2.684   7.548  18.418  0.00  0.00    +0.000 A 
ATOM     19  C   UNL     1       3.366   6.340  18.542  0.00  0.00    +0.000 A 
ENDROOT
BRANCH   1  21
ATOM     20  C   UNL     1       4.189   3.836  18.452  0.00  0.00    +0.000 C 
ATOM     21  O   UNL     1       3.702   4.349  19.686  0.00  0.00    +0.000 OA
ENDBRANCH   1  21
BRANCH   9  22
ATOM     22  C   UNL     1      -0.914  12.651  21.589  0.00  0.00    +0.000 C 
BRANCH  22  23
ATOM     23  C   UNL     1      -0.420  14.059  21.294  0.00  0.00    +0.000 A 
ATOM     24  C   UNL     1       0.063  14.336  19.994  0.00  0.00    +0.000 A 
ATOM     25  C   UNL     1       0.705  15.544  19.706  0.00  0.00    +0.000 A 
ATOM     26  C   UNL     1       0.743  16.551  20.666  0.00  0.00    +0.000 A 
ATOM     27  C   UNL     1       0.217  16.326  21.933  0.00  0.00    +0.000 A 
ATOM     28  C   UNL     1      -0.334  15.080  22.256  0.00  0.00    +0.000 A 
ATOM     29 CL   UNL     1      -0.815  14.883  23.897  0.00  0.00    +0.000 Cl
BRANCH  25  30
ATOM     30  O   UNL     1       1.376  15.842  18.556  0.00  0.00    +0.000 OA
BRANCH  30  31
ATOM     31  C   UNL     1       2.763  15.533  18.444  0.00  0.00    +0.000 C 
ATOM     32  C   UNL     1       2.959  14.022  18.474  0.00  0.00    +0.000 C 
BRANCH  31  33
ATOM     33  C   UNL     1       3.800  16.289  19.303  0.00  0.00    +0.000 C 
ATOM     34  O   UNL     1       3.983  17.496  19.288  0.00  0.00    +0.000 OA
BRANCH  33  35
ATOM     35  O   UNL     1       4.498  15.468  20.129  0.00  0.00    +0.000 OA
ATOM     36  H   UNL     1       5.069  14.844  19.635  0.00  0.00    +0.000 HD
ENDBRANCH  33  35
ENDBRANCH  31  33
ENDBRANCH  30  31
ENDBRANCH  25  30
ENDBRANCH  22  23
ENDBRANCH   9  22
TORSDOF 7
ENDMDL
MODEL 9
REMARK VINA RESULT:      -7.8      5.127     12.064
REMARK  Name = 
REMARK  9 active torsions:
REMARK  status: ('A' for Active; 'I' for Inactive)
REMARK    1  A    between atoms: C_1  and  O_2
REMARK    2  A    between atoms: O_2  and  C_3
REMARK    3  A    between atoms: N_11  and  C_12
REMARK    4  A    between atoms: C_12  and  C_13
REMARK    5  A    between atoms: C_15  and  O_16
REMARK    6  A    between atoms: O_16  and  C_17
REMARK    7  A    between atoms: C_17  and  C_18
REMARK    8  A    between atoms: C_17  and  C_19
REMARK    9  A    between atoms: C_19  and  O_21
REMARK                            x       y       z     vdW  Elec       q    Type
REMARK                         _______ _______ _______ _____ _____    ______ ____
ROOT
ATOM      1  C   UNL     1       2.902   5.595  19.880  0.00  0.00    +0.000 A 
ATOM      2  C   UNL     1       1.999   6.157  20.791  0.00  0.00    +0.000 A 
ATOM      3  C   UNL     1       1.415   7.417  20.563  0.00  0.00    +0.000 A 
ATOM      4  C   UNL     1       1.718   8.099  19.372  0.00  0.00    +0.000 A 
ATOM      5  C   UNL     1       1.318   9.287  18.702  0.00  0.00    +0.000 A 
ATOM      6  N   UNL     1       0.434  10.229  19.176  0.00  0.00    +0.000 N 
ATOM      7  C   UNL     1       0.621  11.045  20.314  0.00  0.00    +0.000 A 
ATOM      8  O   UNL     1       1.535  11.016  21.124  0.00  0.00    +0.000 OA
ATOM      9  N   UNL     1      -0.478  11.950  20.321  0.00  0.00    +0.000 N 
ATOM     10  C   UNL     1      -1.337  11.619  19.260  0.00  0.00    +0.000 A 
ATOM     11  C   UNL     1      -2.588  12.102  18.940  0.00  0.00    +0.000 A 
ATOM     12  C   UNL     1      -3.235  11.555  17.828  0.00  0.00    +0.000 A 
ATOM     13  C   UNL     1      -2.636  10.527  17.080  0.00  0.00    +0.000 A 
ATOM     14  C   UNL     1      -1.380  10.025  17.430  0.00  0.00    +0.000 A 
ATOM     15  C   UNL     1      -0.749  10.587  18.525  0.00  0.00    +0.000 A 
ATOM     16  N   UNL     1       1.842   9.338  17.466  0.00  0.00    +0.000 NA
ATOM     17  O   UNL     1       2.690   8.250  17.361  0.00  0.00    +0.000 OA
ATOM     18  C   UNL     1       2.591   7.490  18.482  0.00  0.00    +0.000 A 
ATOM     19  C   UNL     1       3.227   6.269  18.698  0.00  0.00    +0.000 A 
ENDROOT
BRANCH   1  21
ATOM     20  C   UNL     1       3.108   3.342  19.137  0.00  0.00    +0.000 C 
ATOM     21  O   UNL     1       3.524   4.382  20.014  0.00  0.00    +0.000 OA
ENDBRANCH   1  21
BRANCH   9  22
ATOM     22  C   UNL     1      -0.675  13.021  21.269  0.00  0.00    +0.000 C 
BRANCH  22  23
ATOM     23  C   UNL     1      -1.973  12.943  22.058  0.00  0.00    +0.000 A 
ATOM     24  C   UNL     1      -2.909  13.991  21.904  0.00  0.00    +0.000 A 
ATOM     25  C   UNL     1      -4.031  14.084  22.732  0.00  0.00    +0.000 A 
ATOM     26  C   UNL     1      -4.315  13.055  23.626  0.00  0.00    +0.000 A 
ATOM     27  C   UNL     1      -3.443  11.980  23.751  0.00  0.00    +0.000 A 
ATOM     28  C   UNL     1      -2.265  11.937  22.996  0.00  0.00    +0.000 A 
ATOM     29 CL   UNL     1      -1.201  10.631  23.350  0.00  0.00    +0.000 Cl
BRANCH  25  30
ATOM     30  O   UNL     1      -4.890  15.141  22.807  0.00  0.00    +0.000 OA
BRANCH  30  31
ATOM     31  C   UNL     1      -4.433  16.391  23.316  0.00  0.00    +0.000 C 
ATOM     32  C   UNL     1      -3.303  16.922  22.441  0.00  0.00    +0.000 C 
BRANCH  31  33
ATOM     33  C   UNL     1      -4.153  16.561  24.825  0.00  0.00    +0.000 C 
ATOM     34  O   UNL     1      -4.870  17.159  25.613  0.00  0.00    +0.000 OA
BRANCH  33  35
ATOM     35  O   UNL     1      -3.012  15.940  25.223  0.00  0.00    +0.000 OA
ATOM     36  H   UNL     1      -3.059  14.970  25.104  0.00  0.00    +0.000 HD
ENDBRANCH  33  35
ENDBRANCH  31  33
ENDBRANCH  30  31
ENDBRANCH  25  30
ENDBRANCH  22  23
ENDBRANCH   9  22
TORSDOF 7
ENDMDL
