MODEL 1
REMARK VINA RESULT:      -9.3      0.000      0.000
REMARK  Name = 
REMARK  5 active torsions:
REMARK  status: ('A' for Active; 'I' for Inactive)
REMARK    1  A    between atoms: C_1  and  C_2
REMARK    2  A    between atoms: C_2  and  C_3
REMARK    3  A    between atoms: C_2  and  N_4
REMARK    4  A    between atoms: C_8  and  C_9
REMARK    5  A    between atoms: C_13  and  N_14
REMARK                            x       y       z     vdW  Elec       q    Type
REMARK                         _______ _______ _______ _____ _____    ______ ____
ROOT
ATOM      1  N   UNL     1       2.020   8.007  19.673  0.00  0.00    +0.000 N 
ATOM      2  C   UNL     1       1.771   8.777  18.581  0.00  0.00    +0.000 C 
ATOM      3  O   UNL     1       1.979   8.478  17.402  0.00  0.00    +0.000 OA
ATOM      4  N   UNL     1       1.202   9.999  18.808  0.00  0.00    +0.000 N 
ATOM      5  C   UNL     1       0.715  10.508  20.013  0.00  0.00    +0.000 A 
ATOM      6  C   UNL     1      -0.114  11.615  19.940  0.00  0.00    +0.000 A 
ATOM      7  C   UNL     1      -0.883  11.947  21.059  0.00  0.00    +0.000 A 
ATOM      8  C   UNL     1      -1.841  12.957  20.995  0.00  0.00    +0.000 A 
ATOM      9  C   UNL     1      -2.895  12.959  21.905  0.00  0.00    +0.000 A 
ATOM     10  C   UNL     1      -2.851  12.123  23.018  0.00  0.00    +0.000 A 
ATOM     11  C   UNL     1      -1.736  11.313  23.238  0.00  0.00    +0.000 A 
ATOM     12  C   UNL     1      -0.776  11.167  22.227  0.00  0.00    +0.000 A 
ATOM     13  C   UNL     1       0.239  10.209  22.251  0.00  0.00    +0.000 A 
ATOM     14  N   UNL     1       0.976   9.855  21.173  0.00  0.00    +0.000 NA
ATOM     15  H   UNL     1       1.856   8.463  20.562  0.00  0.00    +0.000 HD
ATOM     16  H   UNL     1       0.989  10.488  17.948  0.00  0.00    +0.000 HD
ENDROOT
BRANCH   1  21
ATOM     17  C   UNL     1       4.267   5.236  19.326  0.00  0.00    +0.000 A 
ATOM     18  C   UNL     1       3.504   4.154  19.744  0.00  0.00    +0.000 A 
ATOM     19  C   UNL     1       2.176   4.380  20.091  0.00  0.00    +0.000 A 
ATOM     20  C   UNL     1       1.668   5.675  20.038  0.00  0.00    +0.000 A 
ATOM     21  C   UNL     1       2.522   6.710  19.673  0.00  0.00    +0.000 A 
ATOM     22  N   UNL     1       3.795   6.495  19.314  0.00  0.00    +0.000 NA
BRANCH  17  27
ATOM     23  N   UNL     1       6.100   4.902  17.568  0.00  0.00    +0.000 N 
ATOM     24  C   UNL     1       7.454   4.768  17.667  0.00  0.00    +0.000 A 
ATOM     25  N   UNL     1       7.830   4.838  18.920  0.00  0.00    +0.000 NA
ATOM     26  N   UNL     1       6.700   5.013  19.677  0.00  0.00    +0.000 NA
ATOM     27  C   UNL     1       5.649   5.074  18.870  0.00  0.00    +0.000 A 
BRANCH  23  29
ATOM     28  C   UNL     1       5.160   6.191  15.683  0.00  0.00    +0.000 C 
ATOM     29  C   UNL     1       5.349   4.816  16.324  0.00  0.00    +0.000 C 
ATOM     30  C   UNL     1       6.000   3.843  15.333  0.00  0.00    +0.000 C 
ENDBRANCH  23  29
ENDBRANCH  17  27
ENDBRANCH   1  21
TORSDOF 3
ENDMDL
MODEL 2
REMARK VINA RESULT:      -8.9      0.989      1.715
REMARK  Name = 
REMARK  5 active torsions:
REMARK  status: ('A' for Active; 'I' for Inactive)
REMARK    1  A    between atoms: C_1  and  C_2
REMARK    2  A    between atoms: C_2  and  C_3
REMARK    3  A    between atoms: C_2  and  N_4
REMARK    4  A    between atoms: C_8  and  C_9
REMARK    5  A    between atoms: C_13  and  N_14
REMARK                            x       y       z     vdW  Elec       q    Type
REMARK                         _______ _______ _______ _____ _____    ______ ____
ROOT
ATOM      1  N   UNL     1       2.077   7.849  19.614  0.00  0.00    +0.000 N 
ATOM      2  C   UNL     1       1.862   8.664  18.547  0.00  0.00    +0.000 C 
ATOM      3  O   UNL     1       2.068   8.397  17.360  0.00  0.00    +0.000 OA
ATOM      4  N   UNL     1       1.336   9.896  18.811  0.00  0.00    +0.000 N 
ATOM      5  C   UNL     1       0.860  10.382  20.031  0.00  0.00    +0.000 A 
ATOM      6  C   UNL     1       0.070  11.519  19.991  0.00  0.00    +0.000 A 
ATOM      7  C   UNL     1      -0.693  11.841  21.116  0.00  0.00    +0.000 A 
ATOM      8  C   UNL     1      -1.614  12.887  21.081  0.00  0.00    +0.000 A 
ATOM      9  C   UNL     1      -2.673  12.896  21.985  0.00  0.00    +0.000 A 
ATOM     10  C   UNL     1      -2.666  12.022  23.069  0.00  0.00    +0.000 A 
ATOM     11  C   UNL     1      -1.582  11.167  23.268  0.00  0.00    +0.000 A 
ATOM     12  C   UNL     1      -0.622  11.020  22.257  0.00  0.00    +0.000 A 
ATOM     13  C   UNL     1       0.359  10.026  22.254  0.00  0.00    +0.000 A 
ATOM     14  N   UNL     1       1.089   9.681  21.170  0.00  0.00    +0.000 NA
ATOM     15  H   UNL     1       1.923   8.281  20.517  0.00  0.00    +0.000 HD
ATOM     16  H   UNL     1       1.146  10.421  17.967  0.00  0.00    +0.000 HD
ENDROOT
BRANCH   1  21
ATOM     17  C   UNL     1       3.937   4.927  18.689  0.00  0.00    +0.000 A 
ATOM     18  C   UNL     1       3.456   3.957  19.558  0.00  0.00    +0.000 A 
ATOM     19  C   UNL     1       2.432   4.305  20.433  0.00  0.00    +0.000 A 
ATOM     20  C   UNL     1       1.947   5.610  20.429  0.00  0.00    +0.000 A 
ATOM     21  C   UNL     1       2.532   6.536  19.573  0.00  0.00    +0.000 A 
ATOM     22  N   UNL     1       3.502   6.199  18.712  0.00  0.00    +0.000 NA
BRANCH  17  27
ATOM     23  N   UNL     1       6.219   5.196  17.558  0.00  0.00    +0.000 N 
ATOM     24  C   UNL     1       6.775   4.607  16.461  0.00  0.00    +0.000 A 
ATOM     25  N   UNL     1       5.941   3.747  15.930  0.00  0.00    +0.000 NA
ATOM     26  N   UNL     1       4.797   3.768  16.687  0.00  0.00    +0.000 NA
ATOM     27  C   UNL     1       4.959   4.625  17.686  0.00  0.00    +0.000 A 
BRANCH  23  29
ATOM     28  C   UNL     1       7.886   5.662  19.320  0.00  0.00    +0.000 C 
ATOM     29  C   UNL     1       6.856   6.239  18.349  0.00  0.00    +0.000 C 
ATOM     30  C   UNL     1       7.493   7.316  17.461  0.00  0.00    +0.000 C 
ENDBRANCH  23  29
ENDBRANCH  17  27
ENDBRANCH   1  21
TORSDOF 3
ENDMDL
MODEL 3
REMARK VINA RESULT:      -8.8      3.234      9.015
REMARK  Name = 
REMARK  5 active torsions:
REMARK  status: ('A' for Active; 'I' for Inactive)
REMARK    1  A    between atoms: C_1  and  C_2
REMARK    2  A    between atoms: C_2  and  C_3
REMARK    3  A    between atoms: C_2  and  N_4
REMARK    4  A    between atoms: C_8  and  C_9
REMARK    5  A    between atoms: C_13  and  N_14
REMARK                            x       y       z     vdW  Elec       q    Type
REMARK                         _______ _______ _______ _____ _____    ______ ____
ROOT
ATOM      1  N   UNL     1       1.101   9.281  19.821  0.00  0.00    +0.000 N 
ATOM      2  C   UNL     1       0.997   8.785  21.081  0.00  0.00    +0.000 C 
ATOM      3  O   UNL     1       0.438   9.319  22.043  0.00  0.00    +0.000 OA
ATOM      4  N   UNL     1       1.540   7.550  21.302  0.00  0.00    +0.000 N 
ATOM      5  C   UNL     1       2.073   6.667  20.361  0.00  0.00    +0.000 A 
ATOM      6  C   UNL     1       2.252   5.353  20.761  0.00  0.00    +0.000 A 
ATOM      7  C   UNL     1       2.456   4.379  19.780  0.00  0.00    +0.000 A 
ATOM      8  C   UNL     1       2.496   3.026  20.112  0.00  0.00    +0.000 A 
ATOM      9  C   UNL     1       2.216   2.074  19.135  0.00  0.00    +0.000 A 
ATOM     10  C   UNL     1       2.157   2.453  17.796  0.00  0.00    +0.000 A 
ATOM     11  C   UNL     1       2.415   3.775  17.433  0.00  0.00    +0.000 A 
ATOM     12  C   UNL     1       2.497   4.762  18.425  0.00  0.00    +0.000 A 
ATOM     13  C   UNL     1       2.512   6.133  18.161  0.00  0.00    +0.000 A 
ATOM     14  N   UNL     1       2.290   7.089  19.090  0.00  0.00    +0.000 NA
ATOM     15  H   UNL     1       1.670   8.729  19.191  0.00  0.00    +0.000 HD
ATOM     16  H   UNL     1       1.369   7.219  22.243  0.00  0.00    +0.000 HD
ENDROOT
BRANCH   1  21
ATOM     17  C   UNL     1      -1.266  11.729  18.699  0.00  0.00    +0.000 A 
ATOM     18  C   UNL     1      -0.485  12.859  18.501  0.00  0.00    +0.000 A 
ATOM     19  C   UNL     1       0.888  12.753  18.700  0.00  0.00    +0.000 A 
ATOM     20  C   UNL     1       1.425  11.538  19.116  0.00  0.00    +0.000 A 
ATOM     21  C   UNL     1       0.561  10.476  19.355  0.00  0.00    +0.000 A 
ATOM     22  N   UNL     1      -0.759  10.565  19.142  0.00  0.00    +0.000 NA
BRANCH  17  27
ATOM     23  N   UNL     1      -3.363  11.329  17.283  0.00  0.00    +0.000 N 
ATOM     24  C   UNL     1      -4.687  11.553  17.519  0.00  0.00    +0.000 A 
ATOM     25  N   UNL     1      -4.859  12.062  18.714  0.00  0.00    +0.000 NA
ATOM     26  N   UNL     1      -3.619  12.191  19.286  0.00  0.00    +0.000 NA
ATOM     27  C   UNL     1      -2.707  11.733  18.438  0.00  0.00    +0.000 A 
BRANCH  23  29
ATOM     28  C   UNL     1      -2.163   9.454  16.214  0.00  0.00    +0.000 C 
ATOM     29  C   UNL     1      -2.820  10.822  16.030  0.00  0.00    +0.000 C 
ATOM     30  C   UNL     1      -3.887  10.766  14.930  0.00  0.00    +0.000 C 
ENDBRANCH  23  29
ENDBRANCH  17  27
ENDBRANCH   1  21
TORSDOF 3
ENDMDL
MODEL 4
REMARK VINA RESULT:      -8.6      3.027      9.248
REMARK  Name = 
REMARK  5 active torsions:
REMARK  status: ('A' for Active; 'I' for Inactive)
REMARK    1  A    between atoms: C_1  and  C_2
REMARK    2  A    between atoms: C_2  and  C_3
REMARK    3  A    between atoms: C_2  and  N_4
REMARK    4  A    between atoms: C_8  and  C_9
REMARK    5  A    between atoms: C_13  and  N_14
REMARK                            x       y       z     vdW  Elec       q    Type
REMARK                         _______ _______ _______ _____ _____    ______ ____
ROOT
ATOM      1  N   UNL     1       1.127   9.316  20.030  0.00  0.00    +0.000 N 
ATOM      2  C   UNL     1       0.983   8.756  21.260  0.00  0.00    +0.000 C 
ATOM      3  O   UNL     1       0.410   9.250  22.235  0.00  0.00    +0.000 OA
ATOM      4  N   UNL     1       1.499   7.502  21.428  0.00  0.00    +0.000 N 
ATOM      5  C   UNL     1       2.041   6.660  20.455  0.00  0.00    +0.000 A 
ATOM      6  C   UNL     1       2.187   5.324  20.789  0.00  0.00    +0.000 A 
ATOM      7  C   UNL     1       2.399   4.399  19.764  0.00  0.00    +0.000 A 
ATOM      8  C   UNL     1       2.408   3.030  20.024  0.00  0.00    +0.000 A 
ATOM      9  C   UNL     1       2.137   2.135  18.992  0.00  0.00    +0.000 A 
ATOM     10  C   UNL     1       2.117   2.584  17.674  0.00  0.00    +0.000 A 
ATOM     11  C   UNL     1       2.406   3.919  17.387  0.00  0.00    +0.000 A 
ATOM     12  C   UNL     1       2.480   4.850  18.432  0.00  0.00    +0.000 A 
ATOM     13  C   UNL     1       2.524   6.233  18.240  0.00  0.00    +0.000 A 
ATOM     14  N   UNL     1       2.296   7.143  19.214  0.00  0.00    +0.000 NA
ATOM     15  H   UNL     1       1.701   8.786  19.386  0.00  0.00    +0.000 HD
ATOM     16  H   UNL     1       1.300   7.125  22.346  0.00  0.00    +0.000 HD
ENDROOT
BRANCH   1  21
ATOM     17  C   UNL     1      -1.145  12.025  19.436  0.00  0.00    +0.000 A 
ATOM     18  C   UNL     1      -0.341  12.990  18.847  0.00  0.00    +0.000 A 
ATOM     19  C   UNL     1       0.991  12.675  18.597  0.00  0.00    +0.000 A 
ATOM     20  C   UNL     1       1.477  11.424  18.969  0.00  0.00    +0.000 A 
ATOM     21  C   UNL     1       0.618  10.542  19.615  0.00  0.00    +0.000 A 
ATOM     22  N   UNL     1      -0.671  10.832  19.837  0.00  0.00    +0.000 NA
BRANCH  17  27
ATOM     23  N   UNL     1      -3.630  11.911  18.827  0.00  0.00    +0.000 N 
ATOM     24  C   UNL     1      -4.753  12.349  19.466  0.00  0.00    +0.000 A 
ATOM     25  N   UNL     1      -4.440  12.921  20.602  0.00  0.00    +0.000 NA
ATOM     26  N   UNL     1      -3.075  12.873  20.721  0.00  0.00    +0.000 NA
ATOM     27  C   UNL     1      -2.574  12.247  19.664  0.00  0.00    +0.000 A 
BRANCH  23  29
ATOM     28  C   UNL     1      -3.388   9.773  17.617  0.00  0.00    +0.000 C 
ATOM     29  C   UNL     1      -3.618  11.281  17.515  0.00  0.00    +0.000 C 
ATOM     30  C   UNL     1      -4.899  11.581  16.728  0.00  0.00    +0.000 C 
ENDBRANCH  23  29
ENDBRANCH  17  27
ENDBRANCH   1  21
TORSDOF 3
ENDMDL
MODEL 5
REMARK VINA RESULT:      -8.5      2.953      9.516
REMARK  Name = 
REMARK  5 active torsions:
REMARK  status: ('A' for Active; 'I' for Inactive)
REMARK    1  A    between atoms: C_1  and  C_2
REMARK    2  A    between atoms: C_2  and  C_3
REMARK    3  A    between atoms: C_2  and  N_4
REMARK    4  A    between atoms: C_8  and  C_9
REMARK    5  A    between atoms: C_13  and  N_14
REMARK                            x       y       z     vdW  Elec       q    Type
REMARK                         _______ _______ _______ _____ _____    ______ ____
ROOT
ATOM      1  N   UNL     1       1.080   9.273  19.812  0.00  0.00    +0.000 N 
ATOM      2  C   UNL     1       0.942   8.769  21.067  0.00  0.00    +0.000 C 
ATOM      3  O   UNL     1       0.360   9.298  22.017  0.00  0.00    +0.000 OA
ATOM      4  N   UNL     1       1.478   7.532  21.293  0.00  0.00    +0.000 N 
ATOM      5  C   UNL     1       2.035   6.655  20.361  0.00  0.00    +0.000 A 
ATOM      6  C   UNL     1       2.202   5.338  20.757  0.00  0.00    +0.000 A 
ATOM      7  C   UNL     1       2.431   4.370  19.775  0.00  0.00    +0.000 A 
ATOM      8  C   UNL     1       2.460   3.015  20.099  0.00  0.00    +0.000 A 
ATOM      9  C   UNL     1       2.206   2.070  19.108  0.00  0.00    +0.000 A 
ATOM     10  C   UNL     1       2.182   2.457  17.771  0.00  0.00    +0.000 A 
ATOM     11  C   UNL     1       2.449   3.782  17.423  0.00  0.00    +0.000 A 
ATOM     12  C   UNL     1       2.507   4.761  18.424  0.00  0.00    +0.000 A 
ATOM     13  C   UNL     1       2.530   6.134  18.169  0.00  0.00    +0.000 A 
ATOM     14  N   UNL     1       2.285   7.085  19.099  0.00  0.00    +0.000 NA
ATOM     15  H   UNL     1       1.664   8.724  19.194  0.00  0.00    +0.000 HD
ATOM     16  H   UNL     1       1.283   7.195  22.227  0.00  0.00    +0.000 HD
ENDROOT
BRANCH   1  21
ATOM     17  C   UNL     1      -1.269  11.775  18.773  0.00  0.00    +0.000 A 
ATOM     18  C   UNL     1      -0.461  12.863  18.472  0.00  0.00    +0.000 A 
ATOM     19  C   UNL     1       0.918  12.708  18.572  0.00  0.00    +0.000 A 
ATOM     20  C   UNL     1       1.437  11.487  18.995  0.00  0.00    +0.000 A 
ATOM     21  C   UNL     1       0.553  10.471  19.341  0.00  0.00    +0.000 A 
ATOM     22  N   UNL     1      -0.775  10.608  19.223  0.00  0.00    +0.000 NA
BRANCH  17  27
ATOM     23  N   UNL     1      -3.657  12.289  19.541  0.00  0.00    +0.000 N 
ATOM     24  C   UNL     1      -4.872  12.106  18.948  0.00  0.00    +0.000 A 
ATOM     25  N   UNL     1      -4.726  11.569  17.761  0.00  0.00    +0.000 NA
ATOM     26  N   UNL     1      -3.383  11.380  17.561  0.00  0.00    +0.000 NA
ATOM     27  C   UNL     1      -2.724  11.830  18.621  0.00  0.00    +0.000 A 
BRANCH  23  29
ATOM     28  C   UNL     1      -2.956  14.254  20.862  0.00  0.00    +0.000 C 
ATOM     29  C   UNL     1      -3.464  12.812  20.886  0.00  0.00    +0.000 C 
ATOM     30  C   UNL     1      -4.741  12.702  21.727  0.00  0.00    +0.000 C 
ENDBRANCH  23  29
ENDBRANCH  17  27
ENDBRANCH   1  21
TORSDOF 3
ENDMDL
MODEL 6
REMARK VINA RESULT:      -8.2      3.146      8.819
REMARK  Name = 
REMARK  5 active torsions:
REMARK  status: ('A' for Active; 'I' for Inactive)
REMARK    1  A    between atoms: C_1  and  C_2
REMARK    2  A    between atoms: C_2  and  C_3
REMARK    3  A    between atoms: C_2  and  N_4
REMARK    4  A    between atoms: C_8  and  C_9
REMARK    5  A    between atoms: C_13  and  N_14
REMARK                            x       y       z     vdW  Elec       q    Type
REMARK                         _______ _______ _______ _____ _____    ______ ____
ROOT
ATOM      1  N   UNL     1       1.092   9.128  20.121  0.00  0.00    +0.000 N 
ATOM      2  C   UNL     1       0.854   8.496  21.300  0.00  0.00    +0.000 C 
ATOM      3  O   UNL     1       0.192   8.926  22.249  0.00  0.00    +0.000 OA
ATOM      4  N   UNL     1       1.375   7.241  21.440  0.00  0.00    +0.000 N 
ATOM      5  C   UNL     1       2.011   6.463  20.471  0.00  0.00    +0.000 A 
ATOM      6  C   UNL     1       2.151   5.112  20.740  0.00  0.00    +0.000 A 
ATOM      7  C   UNL     1       2.463   4.250  19.685  0.00  0.00    +0.000 A 
ATOM      8  C   UNL     1       2.472   2.868  19.868  0.00  0.00    +0.000 A 
ATOM      9  C   UNL     1       2.304   2.032  18.767  0.00  0.00    +0.000 A 
ATOM     10  C   UNL     1       2.389   2.557  17.480  0.00  0.00    +0.000 A 
ATOM     11  C   UNL     1       2.678   3.909  17.295  0.00  0.00    +0.000 A 
ATOM     12  C   UNL     1       2.648   4.779  18.393  0.00  0.00    +0.000 A 
ATOM     13  C   UNL     1       2.686   6.171  18.285  0.00  0.00    +0.000 A 
ATOM     14  N   UNL     1       2.362   7.021  19.285  0.00  0.00    +0.000 NA
ATOM     15  H   UNL     1       1.727   8.644  19.499  0.00  0.00    +0.000 HD
ATOM     16  H   UNL     1       1.105   6.809  22.315  0.00  0.00    +0.000 HD
ENDROOT
BRANCH   1  21
ATOM     17  C   UNL     1       0.622  12.676  19.901  0.00  0.00    +0.000 A 
ATOM     18  C   UNL     1      -0.340  12.808  18.909  0.00  0.00    +0.000 A 
ATOM     19  C   UNL     1      -0.877  11.650  18.354  0.00  0.00    +0.000 A 
ATOM     20  C   UNL     1      -0.414  10.410  18.785  0.00  0.00    +0.000 A 
ATOM     21  C   UNL     1       0.600  10.371  19.735  0.00  0.00    +0.000 A 
ATOM     22  N   UNL     1       1.103  11.482  20.290  0.00  0.00    +0.000 NA
BRANCH  17  27
ATOM     23  N   UNL     1       1.874  14.906  20.034  0.00  0.00    +0.000 N 
ATOM     24  C   UNL     1       2.212  15.709  21.083  0.00  0.00    +0.000 A 
ATOM     25  N   UNL     1       1.783  15.194  22.210  0.00  0.00    +0.000 NA
ATOM     26  N   UNL     1       1.152  14.015  21.906  0.00  0.00    +0.000 NA
ATOM     27  C   UNL     1       1.182  13.839  20.591  0.00  0.00    +0.000 A 
BRANCH  23  29
ATOM     28  C   UNL     1       2.322  16.653  18.347  0.00  0.00    +0.000 C 
ATOM     29  C   UNL     1       2.245  15.156  18.648  0.00  0.00    +0.000 C 
ATOM     30  C   UNL     1       3.562  14.462  18.279  0.00  0.00    +0.000 C 
ENDBRANCH  23  29
ENDBRANCH  17  27
ENDBRANCH   1  21
TORSDOF 3
ENDMDL
MODEL 7
REMARK VINA RESULT:      -8.2      3.245      8.965
REMARK  Name = 
REMARK  5 active torsions:
REMARK  status: ('A' for Active; 'I' for Inactive)
REMARK    1  A    between atoms: C_1  and  C_2
REMARK    2  A    between atoms: C_2  and  C_3
REMARK    3  A    between atoms: C_2  and  N_4
REMARK    4  A    between atoms: C_8  and  C_9
REMARK    5  A    between atoms: C_13  and  N_14
REMARK                            x       y       z     vdW  Elec       q    Type
REMARK                         _______ _______ _______ _____ _____    ______ ____
ROOT
ATOM      1  N   UNL     1       1.054   9.332  19.716  0.00  0.00    +0.000 N 
ATOM      2  C   UNL     1       0.931   8.859  20.984  0.00  0.00    +0.000 C 
ATOM      3  O   UNL     1       0.355   9.409  21.926  0.00  0.00    +0.000 OA
ATOM      4  N   UNL     1       1.474   7.630  21.237  0.00  0.00    +0.000 N 
ATOM      5  C   UNL     1       2.026   6.732  20.321  0.00  0.00    +0.000 A 
ATOM      6  C   UNL     1       2.203   5.426  20.749  0.00  0.00    +0.000 A 
ATOM      7  C   UNL     1       2.426   4.435  19.790  0.00  0.00    +0.000 A 
ATOM      8  C   UNL     1       2.465   3.088  20.148  0.00  0.00    +0.000 A 
ATOM      9  C   UNL     1       2.205   2.117  19.184  0.00  0.00    +0.000 A 
ATOM     10  C   UNL     1       2.166   2.470  17.838  0.00  0.00    +0.000 A 
ATOM     11  C   UNL     1       2.425   3.787  17.454  0.00  0.00    +0.000 A 
ATOM     12  C   UNL     1       2.488   4.792  18.429  0.00  0.00    +0.000 A 
ATOM     13  C   UNL     1       2.503   6.158  18.139  0.00  0.00    +0.000 A 
ATOM     14  N   UNL     1       2.262   7.131  19.047  0.00  0.00    +0.000 NA
ATOM     15  H   UNL     1       1.635   8.769  19.106  0.00  0.00    +0.000 HD
ATOM     16  H   UNL     1       1.290   7.317  22.181  0.00  0.00    +0.000 HD
ENDROOT
BRANCH   1  21
ATOM     17  C   UNL     1       0.765  12.736  18.629  0.00  0.00    +0.000 A 
ATOM     18  C   UNL     1      -0.546  12.815  18.178  0.00  0.00    +0.000 A 
ATOM     19  C   UNL     1      -1.356  11.691  18.309  0.00  0.00    +0.000 A 
ATOM     20  C   UNL     1      -0.824  10.527  18.856  0.00  0.00    +0.000 A 
ATOM     21  C   UNL     1       0.518  10.515  19.219  0.00  0.00    +0.000 A 
ATOM     22  N   UNL     1       1.296  11.601  19.117  0.00  0.00    +0.000 NA
BRANCH  17  27
ATOM     23  N   UNL     1       1.367  15.206  18.940  0.00  0.00    +0.000 N 
ATOM     24  C   UNL     1       2.514  15.907  18.715  0.00  0.00    +0.000 A 
ATOM     25  N   UNL     1       3.453  15.114  18.259  0.00  0.00    +0.000 NA
ATOM     26  N   UNL     1       2.917  13.855  18.169  0.00  0.00    +0.000 NA
ATOM     27  C   UNL     1       1.661  13.893  18.598  0.00  0.00    +0.000 A 
BRANCH  23  29
ATOM     28  C   UNL     1       0.284  16.515  20.733  0.00  0.00    +0.000 C 
ATOM     29  C   UNL     1       0.115  15.793  19.395  0.00  0.00    +0.000 C 
ATOM     30  C   UNL     1      -0.486  16.735  18.345  0.00  0.00    +0.000 C 
ENDBRANCH  23  29
ENDBRANCH  17  27
ENDBRANCH   1  21
TORSDOF 3
ENDMDL
MODEL 8
REMARK VINA RESULT:      -8.0      2.117      2.936
REMARK  Name = 
REMARK  5 active torsions:
REMARK  status: ('A' for Active; 'I' for Inactive)
REMARK    1  A    between atoms: C_1  and  C_2
REMARK    2  A    between atoms: C_2  and  C_3
REMARK    3  A    between atoms: C_2  and  N_4
REMARK    4  A    between atoms: C_8  and  C_9
REMARK    5  A    between atoms: C_13  and  N_14
REMARK                            x       y       z     vdW  Elec       q    Type
REMARK                         _______ _______ _______ _____ _____    ______ ____
ROOT
ATOM      1  N   UNL     1       1.845   6.857  19.237  0.00  0.00    +0.000 N 
ATOM      2  C   UNL     1       1.480   7.008  20.537  0.00  0.00    +0.000 C 
ATOM      3  O   UNL     1       1.550   6.158  21.429  0.00  0.00    +0.000 OA
ATOM      4  N   UNL     1       1.016   8.239  20.906  0.00  0.00    +0.000 N 
ATOM      5  C   UNL     1       0.994   9.410  20.146  0.00  0.00    +0.000 A 
ATOM      6  C   UNL     1       0.796  10.600  20.827  0.00  0.00    +0.000 A 
ATOM      7  C   UNL     1       1.099  11.799  20.177  0.00  0.00    +0.000 A 
ATOM      8  C   UNL     1       1.060  13.013  20.860  0.00  0.00    +0.000 A 
ATOM      9  C   UNL     1       1.799  14.092  20.381  0.00  0.00    +0.000 A 
ATOM     10  C   UNL     1       2.355  14.038  19.106  0.00  0.00    +0.000 A 
ATOM     11  C   UNL     1       2.140  12.921  18.297  0.00  0.00    +0.000 A 
ATOM     12  C   UNL     1       1.571  11.766  18.851  0.00  0.00    +0.000 A 
ATOM     13  C   UNL     1       1.532  10.530  18.202  0.00  0.00    +0.000 A 
ATOM     14  N   UNL     1       1.267   9.355  18.818  0.00  0.00    +0.000 NA
ATOM     15  H   UNL     1       1.634   7.648  18.641  0.00  0.00    +0.000 HD
ATOM     16  H   UNL     1       0.824   8.295  21.898  0.00  0.00    +0.000 HD
ENDROOT
BRANCH   1  21
ATOM     17  C   UNL     1       4.270   4.536  17.977  0.00  0.00    +0.000 A 
ATOM     18  C   UNL     1       3.498   3.450  17.589  0.00  0.00    +0.000 A 
ATOM     19  C   UNL     1       2.115   3.547  17.710  0.00  0.00    +0.000 A 
ATOM     20  C   UNL     1       1.558   4.709  18.238  0.00  0.00    +0.000 A 
ATOM     21  C   UNL     1       2.409   5.722  18.663  0.00  0.00    +0.000 A 
ATOM     22  N   UNL     1       3.740   5.643  18.527  0.00  0.00    +0.000 NA
BRANCH  17  27
ATOM     23  N   UNL     1       6.446   4.721  16.639  0.00  0.00    +0.000 N 
ATOM     24  C   UNL     1       7.757   4.619  17.000  0.00  0.00    +0.000 A 
ATOM     25  N   UNL     1       7.862   4.389  18.286  0.00  0.00    +0.000 NA
ATOM     26  N   UNL     1       6.590   4.327  18.794  0.00  0.00    +0.000 NA
ATOM     27  C   UNL     1       5.725   4.546  17.813  0.00  0.00    +0.000 A 
BRANCH  23  29
ATOM     28  C   UNL     1       5.264   6.261  15.113  0.00  0.00    +0.000 C 
ATOM     29  C   UNL     1       5.977   4.918  15.275  0.00  0.00    +0.000 C 
ATOM     30  C   UNL     1       7.115   4.785  14.257  0.00  0.00    +0.000 C 
ENDBRANCH  23  29
ENDBRANCH  17  27
ENDBRANCH   1  21
TORSDOF 3
ENDMDL
MODEL 9
REMARK VINA RESULT:      -8.0      2.012      3.083
REMARK  Name = 
REMARK  5 active torsions:
REMARK  status: ('A' for Active; 'I' for Inactive)
REMARK    1  A    between atoms: C_1  and  C_2
REMARK    2  A    between atoms: C_2  and  C_3
REMARK    3  A    between atoms: C_2  and  N_4
REMARK    4  A    between atoms: C_8  and  C_9
REMARK    5  A    between atoms: C_13  and  N_14
REMARK                            x       y       z     vdW  Elec       q    Type
REMARK                         _______ _______ _______ _____ _____    ______ ____
ROOT
ATOM      1  N   UNL     1       1.801   7.736  19.866  0.00  0.00    +0.000 N 
ATOM      2  C   UNL     1       1.054   8.204  20.900  0.00  0.00    +0.000 C 
ATOM      3  O   UNL     1       0.743   7.591  21.925  0.00  0.00    +0.000 OA
ATOM      4  N   UNL     1       0.627   9.499  20.813  0.00  0.00    +0.000 N 
ATOM      5  C   UNL     1       0.974  10.454  19.855  0.00  0.00    +0.000 A 
ATOM      6  C   UNL     1       0.693  11.777  20.153  0.00  0.00    +0.000 A 
ATOM      7  C   UNL     1       1.313  12.777  19.400  0.00  0.00    +0.000 A 
ATOM      8  C   UNL     1       1.183  14.120  19.748  0.00  0.00    +0.000 A 
ATOM      9  C   UNL     1       2.146  15.032  19.325  0.00  0.00    +0.000 A 
ATOM     10  C   UNL     1       3.075  14.660  18.357  0.00  0.00    +0.000 A 
ATOM     11  C   UNL     1       3.017  13.387  17.787  0.00  0.00    +0.000 A 
ATOM     12  C   UNL     1       2.182  12.414  18.352  0.00  0.00    +0.000 A 
ATOM     13  C   UNL     1       2.225  11.060  18.014  0.00  0.00    +0.000 A 
ATOM     14  N   UNL     1       1.654  10.075  18.744  0.00  0.00    +0.000 NA
ATOM     15  H   UNL     1       1.878   8.365  19.077  0.00  0.00    +0.000 HD
ATOM     16  H   UNL     1       0.132   9.796  21.644  0.00  0.00    +0.000 HD
ENDROOT
BRANCH   1  21
ATOM     17  C   UNL     1       4.252   5.170  19.353  0.00  0.00    +0.000 A 
ATOM     18  C   UNL     1       3.566   4.007  19.675  0.00  0.00    +0.000 A 
ATOM     19  C   UNL     1       2.220   4.108  20.015  0.00  0.00    +0.000 A 
ATOM     20  C   UNL     1       1.619   5.363  20.049  0.00  0.00    +0.000 A 
ATOM     21  C   UNL     1       2.398   6.482  19.778  0.00  0.00    +0.000 A 
ATOM     22  N   UNL     1       3.687   6.388  19.427  0.00  0.00    +0.000 NA
BRANCH  17  27
ATOM     23  N   UNL     1       6.126   5.020  17.614  0.00  0.00    +0.000 N 
ATOM     24  C   UNL     1       7.485   5.018  17.726  0.00  0.00    +0.000 A 
ATOM     25  N   UNL     1       7.841   5.122  18.983  0.00  0.00    +0.000 NA
ATOM     26  N   UNL     1       6.692   5.185  19.729  0.00  0.00    +0.000 NA
ATOM     27  C   UNL     1       5.647   5.145  18.912  0.00  0.00    +0.000 A 
BRANCH  23  29
ATOM     28  C   UNL     1       5.248   6.196  15.628  0.00  0.00    +0.000 C 
ATOM     29  C   UNL     1       5.400   4.863  16.362  0.00  0.00    +0.000 C 
ATOM     30  C   UNL     1       6.054   3.816  15.452  0.00  0.00    +0.000 C 
ENDBRANCH  23  29
ENDBRANCH  17  27
ENDBRANCH   1  21
TORSDOF 3
ENDMDL
