MODEL 1
REMARK VINA RESULT:      -8.7      0.000      0.000
REMARK  Name = 
REMARK  6 active torsions:
REMARK  status: ('A' for Active; 'I' for Inactive)
REMARK    1  A    between atoms: C_1  and  N_2
REMARK    2  A    between atoms: N_2  and  C_3
REMARK    3  A    between atoms: N_2  and  C_4
REMARK    4  A    between atoms: C_4  and  C_5
REMARK    5  A    between atoms: C_9  and  C_10
REMARK    6  A    between atoms: C_17  and  C_18
REMARK                            x       y       z     vdW  Elec       q    Type
REMARK                         _______ _______ _______ _____ _____    ______ ____
ROOT
ATOM      1  C   UNL     1       6.085   4.973  15.640  0.00  0.00    +0.000 A 
ATOM      2  C   UNL     1       5.707   6.207  16.037  0.00  0.00    +0.000 A 
ATOM      3  C   UNL     1       4.609   6.339  16.915  0.00  0.00    +0.000 A 
ATOM      4  N   UNL     1       4.039   7.389  17.461  0.00  0.00    +0.000 NA
ATOM      5  C   UNL     1       3.014   6.889  18.236  0.00  0.00    +0.000 A 
ATOM      6  C   UNL     1       2.999   5.493  18.222  0.00  0.00    +0.000 A 
ATOM      7  N   UNL     1       3.999   5.172  17.318  0.00  0.00    +0.000 N 
ATOM      8  C   UNL     1       4.438   3.929  16.859  0.00  0.00    +0.000 A 
ATOM      9  N   UNL     1       5.444   3.811  16.036  0.00  0.00    +0.000 NA
ENDROOT
BRANCH   6  10
ATOM     10  C   UNL     1       2.185   4.507  18.927  0.00  0.00    +0.000 A 
ATOM     11  C   UNL     1       1.186   3.784  18.313  0.00  0.00    +0.000 A 
ATOM     12  C   UNL     1       0.621   2.789  19.072  0.00  0.00    +0.000 A 
ATOM     13  N   UNL     1       0.959   2.556  20.351  0.00  0.00    +0.000 NA
ATOM     14  C   UNL     1       1.911   3.335  20.869  0.00  0.00    +0.000 A 
ATOM     15  N   UNL     1       2.235   3.146  22.193  0.00  0.00    +0.000 N 
ATOM     16  N   UNL     1       2.541   4.309  20.209  0.00  0.00    +0.000 NA
ATOM     17  H   UNL     1       1.477   2.682  22.674  0.00  0.00    +0.000 HD
ATOM     18  H   UNL     1       2.595   3.996  22.603  0.00  0.00    +0.000 HD
ENDBRANCH   6  10
BRANCH   5  19
ATOM     19  C   UNL     1       2.128   7.772  18.987  0.00  0.00    +0.000 A 
ATOM     20  C   UNL     1       1.863   7.570  20.352  0.00  0.00    +0.000 A 
ATOM     21  C   UNL     1       1.130   8.506  21.085  0.00  0.00    +0.000 A 
ATOM     22  C   UNL     1       0.595   9.613  20.439  0.00  0.00    +0.000 A 
ATOM     23  F   UNL     1      -0.099  10.516  21.143  0.00  0.00    +0.000 F 
ATOM     24  C   UNL     1       0.770   9.791  19.073  0.00  0.00    +0.000 A 
ATOM     25  C   UNL     1       1.538   8.874  18.347  0.00  0.00    +0.000 A 
ENDBRANCH   5  19
BRANCH   1  26
ATOM     26  C   UNL     1       7.308   4.769  14.754  0.00  0.00    +0.000 C 
BRANCH  26  28
ATOM     27  C   UNL     1       8.282   5.590  12.685  0.00  0.00    +0.000 C 
ATOM     28  N   UNL     1       7.072   5.063  13.325  0.00  0.00    +0.000 NA
ATOM     29  C   UNL     1       6.649   3.842  12.633  0.00  0.00    +0.000 C 
ENDBRANCH  26  28
ENDBRANCH   1  26
TORSDOF 4
ENDMDL
MODEL 2
REMARK VINA RESULT:      -8.0      0.645      1.227
REMARK  Name = 
REMARK  6 active torsions:
REMARK  status: ('A' for Active; 'I' for Inactive)
REMARK    1  A    between atoms: C_1  and  N_2
REMARK    2  A    between atoms: N_2  and  C_3
REMARK    3  A    between atoms: N_2  and  C_4
REMARK    4  A    between atoms: C_4  and  C_5
REMARK    5  A    between atoms: C_9  and  C_10
REMARK    6  A    between atoms: C_17  and  C_18
REMARK                            x       y       z     vdW  Elec       q    Type
REMARK                         _______ _______ _______ _____ _____    ______ ____
ROOT
ATOM      1  C   UNL     1       6.172   4.963  15.673  0.00  0.00    +0.000 A 
ATOM      2  C   UNL     1       5.682   6.197  15.918  0.00  0.00    +0.000 A 
ATOM      3  C   UNL     1       4.631   6.345  16.849  0.00  0.00    +0.000 A 
ATOM      4  N   UNL     1       3.980   7.400  17.283  0.00  0.00    +0.000 NA
ATOM      5  C   UNL     1       3.066   6.918  18.197  0.00  0.00    +0.000 A 
ATOM      6  C   UNL     1       3.209   5.542  18.382  0.00  0.00    +0.000 A 
ATOM      7  N   UNL     1       4.182   5.194  17.459  0.00  0.00    +0.000 N 
ATOM      8  C   UNL     1       4.730   3.949  17.149  0.00  0.00    +0.000 A 
ATOM      9  N   UNL     1       5.691   3.814  16.277  0.00  0.00    +0.000 NA
ENDROOT
BRANCH   6  10
ATOM     10  C   UNL     1       2.555   4.593  19.279  0.00  0.00    +0.000 A 
ATOM     11  C   UNL     1       2.643   4.677  20.651  0.00  0.00    +0.000 A 
ATOM     12  C   UNL     1       1.847   3.805  21.351  0.00  0.00    +0.000 A 
ATOM     13  N   UNL     1       1.070   2.881  20.762  0.00  0.00    +0.000 NA
ATOM     14  C   UNL     1       1.082   2.853  19.428  0.00  0.00    +0.000 A 
ATOM     15  N   UNL     1       0.333   1.880  18.806  0.00  0.00    +0.000 N 
ATOM     16  N   UNL     1       1.798   3.672  18.655  0.00  0.00    +0.000 NA
ATOM     17  H   UNL     1       0.153   1.118  19.446  0.00  0.00    +0.000 HD
ATOM     18  H   UNL     1       0.719   1.647  17.903  0.00  0.00    +0.000 HD
ENDBRANCH   6  10
BRANCH   5  19
ATOM     19  C   UNL     1       2.134   7.808  18.881  0.00  0.00    +0.000 A 
ATOM     20  C   UNL     1       1.848   7.672  20.250  0.00  0.00    +0.000 A 
ATOM     21  C   UNL     1       1.065   8.619  20.915  0.00  0.00    +0.000 A 
ATOM     22  C   UNL     1       0.505   9.667  20.198  0.00  0.00    +0.000 A 
ATOM     23  F   UNL     1      -0.237  10.581  20.837  0.00  0.00    +0.000 F 
ATOM     24  C   UNL     1       0.701   9.777  18.827  0.00  0.00    +0.000 A 
ATOM     25  C   UNL     1       1.518   8.850  18.169  0.00  0.00    +0.000 A 
ENDBRANCH   5  19
BRANCH   1  26
ATOM     26  C   UNL     1       7.355   4.756  14.734  0.00  0.00    +0.000 C 
BRANCH  26  28
ATOM     27  C   UNL     1       8.208   5.506  12.586  0.00  0.00    +0.000 C 
ATOM     28  N   UNL     1       7.041   4.990  13.309  0.00  0.00    +0.000 NA
ATOM     29  C   UNL     1       6.598   3.739  12.688  0.00  0.00    +0.000 C 
ENDBRANCH  26  28
ENDBRANCH   1  26
TORSDOF 4
ENDMDL
MODEL 3
REMARK VINA RESULT:      -8.0      2.406      4.299
REMARK  Name = 
REMARK  6 active torsions:
REMARK  status: ('A' for Active; 'I' for Inactive)
REMARK    1  A    between atoms: C_1  and  N_2
REMARK    2  A    between atoms: N_2  and  C_3
REMARK    3  A    between atoms: N_2  and  C_4
REMARK    4  A    between atoms: C_4  and  C_5
REMARK    5  A    between atoms: C_9  and  C_10
REMARK    6  A    between atoms: C_17  and  C_18
REMARK                            x       y       z     vdW  Elec       q    Type
REMARK                         _______ _______ _______ _____ _____    ______ ____
ROOT
ATOM      1  C   UNL     1       6.065   4.652  14.582  0.00  0.00    +0.000 A 
ATOM      2  C   UNL     1       5.610   3.631  15.338  0.00  0.00    +0.000 A 
ATOM      3  C   UNL     1       4.797   3.915  16.457  0.00  0.00    +0.000 A 
ATOM      4  N   UNL     1       4.217   3.141  17.345  0.00  0.00    +0.000 NA
ATOM      5  C   UNL     1       3.544   3.993  18.194  0.00  0.00    +0.000 A 
ATOM      6  C   UNL     1       3.655   5.320  17.775  0.00  0.00    +0.000 A 
ATOM      7  N   UNL     1       4.514   5.243  16.690  0.00  0.00    +0.000 N 
ATOM      8  C   UNL     1       5.027   6.248  15.870  0.00  0.00    +0.000 A 
ATOM      9  N   UNL     1       5.791   5.983  14.846  0.00  0.00    +0.000 NA
ENDROOT
BRANCH   6  10
ATOM     10  C   UNL     1       3.072   6.564  18.271  0.00  0.00    +0.000 A 
ATOM     11  C   UNL     1       2.835   7.655  17.463  0.00  0.00    +0.000 A 
ATOM     12  C   UNL     1       2.141   8.686  18.046  0.00  0.00    +0.000 A 
ATOM     13  N   UNL     1       1.762   8.683  19.334  0.00  0.00    +0.000 NA
ATOM     14  C   UNL     1       2.071   7.598  20.046  0.00  0.00    +0.000 A 
ATOM     15  N   UNL     1       1.737   7.596  21.381  0.00  0.00    +0.000 N 
ATOM     16  N   UNL     1       2.717   6.531  19.568  0.00  0.00    +0.000 NA
ATOM     17  H   UNL     1       1.612   8.545  21.709  0.00  0.00    +0.000 HD
ATOM     18  H   UNL     1       2.355   6.999  21.909  0.00  0.00    +0.000 HD
ENDBRANCH   6  10
BRANCH   5  19
ATOM     19  C   UNL     1       2.792   3.490  19.339  0.00  0.00    +0.000 A 
ATOM     20  C   UNL     1       3.432   2.972  20.477  0.00  0.00    +0.000 A 
ATOM     21  C   UNL     1       2.700   2.630  21.616  0.00  0.00    +0.000 A 
ATOM     22  C   UNL     1       1.317   2.735  21.597  0.00  0.00    +0.000 A 
ATOM     23  F   UNL     1       0.615   2.417  22.692  0.00  0.00    +0.000 F 
ATOM     24  C   UNL     1       0.652   3.163  20.454  0.00  0.00    +0.000 A 
ATOM     25  C   UNL     1       1.389   3.544  19.327  0.00  0.00    +0.000 A 
ENDBRANCH   5  19
BRANCH   1  26
ATOM     26  C   UNL     1       6.884   4.397  13.322  0.00  0.00    +0.000 C 
BRANCH  26  28
ATOM     27  C   UNL     1       5.110   3.493  11.930  0.00  0.00    +0.000 C 
ATOM     28  N   UNL     1       6.424   3.238  12.528  0.00  0.00    +0.000 NA
ATOM     29  C   UNL     1       7.393   2.949  11.469  0.00  0.00    +0.000 C 
ENDBRANCH  26  28
ENDBRANCH   1  26
TORSDOF 4
ENDMDL
MODEL 4
REMARK VINA RESULT:      -7.9      3.175      7.095
REMARK  Name = 
REMARK  6 active torsions:
REMARK  status: ('A' for Active; 'I' for Inactive)
REMARK    1  A    between atoms: C_1  and  N_2
REMARK    2  A    between atoms: N_2  and  C_3
REMARK    3  A    between atoms: N_2  and  C_4
REMARK    4  A    between atoms: C_4  and  C_5
REMARK    5  A    between atoms: C_9  and  C_10
REMARK    6  A    between atoms: C_17  and  C_18
REMARK                            x       y       z     vdW  Elec       q    Type
REMARK                         _______ _______ _______ _____ _____    ______ ____
ROOT
ATOM      1  C   UNL     1       0.759   9.536  20.111  0.00  0.00    +0.000 A 
ATOM      2  C   UNL     1       1.521   9.427  19.002  0.00  0.00    +0.000 A 
ATOM      3  C   UNL     1       2.267   8.246  18.797  0.00  0.00    +0.000 A 
ATOM      4  N   UNL     1       3.069   7.867  17.828  0.00  0.00    +0.000 NA
ATOM      5  C   UNL     1       3.498   6.604  18.178  0.00  0.00    +0.000 A 
ATOM      6  C   UNL     1       2.890   6.169  19.356  0.00  0.00    +0.000 A 
ATOM      7  N   UNL     1       2.150   7.268  19.760  0.00  0.00    +0.000 N 
ATOM      8  C   UNL     1       1.349   7.454  20.887  0.00  0.00    +0.000 A 
ATOM      9  N   UNL     1       0.672   8.553  21.082  0.00  0.00    +0.000 NA
ENDROOT
BRANCH   6  10
ATOM     10  C   UNL     1       2.942   4.905  20.086  0.00  0.00    +0.000 A 
ATOM     11  C   UNL     1       1.997   4.538  21.020  0.00  0.00    +0.000 A 
ATOM     12  C   UNL     1       2.104   3.257  21.500  0.00  0.00    +0.000 A 
ATOM     13  N   UNL     1       3.090   2.417  21.147  0.00  0.00    +0.000 NA
ATOM     14  C   UNL     1       3.980   2.877  20.266  0.00  0.00    +0.000 A 
ATOM     15  N   UNL     1       5.028   2.050  19.930  0.00  0.00    +0.000 N 
ATOM     16  N   UNL     1       3.952   4.094  19.718  0.00  0.00    +0.000 NA
ATOM     17  H   UNL     1       5.163   1.351  20.648  0.00  0.00    +0.000 HD
ATOM     18  H   UNL     1       5.835   2.585  19.644  0.00  0.00    +0.000 HD
ENDBRANCH   6  10
BRANCH   5  19
ATOM     19  C   UNL     1       4.436   5.861  17.343  0.00  0.00    +0.000 A 
ATOM     20  C   UNL     1       4.069   4.669  16.696  0.00  0.00    +0.000 A 
ATOM     21  C   UNL     1       4.933   4.052  15.789  0.00  0.00    +0.000 A 
ATOM     22  C   UNL     1       6.198   4.583  15.580  0.00  0.00    +0.000 A 
ATOM     23  F   UNL     1       7.023   3.998  14.702  0.00  0.00    +0.000 F 
ATOM     24  C   UNL     1       6.617   5.712  16.272  0.00  0.00    +0.000 A 
ATOM     25  C   UNL     1       5.737   6.353  17.151  0.00  0.00    +0.000 A 
ENDBRANCH   5  19
BRANCH   1  26
ATOM     26  C   UNL     1      -0.124  10.758  20.344  0.00  0.00    +0.000 C 
BRANCH  26  28
ATOM     27  C   UNL     1       0.807  12.917  20.955  0.00  0.00    +0.000 C 
ATOM     28  N   UNL     1       0.328  11.624  21.454  0.00  0.00    +0.000 NA
ATOM     29  C   UNL     1      -0.778  11.843  22.390  0.00  0.00    +0.000 C 
ENDBRANCH  26  28
ENDBRANCH   1  26
TORSDOF 4
ENDMDL
MODEL 5
REMARK VINA RESULT:      -7.8      3.121      7.046
REMARK  Name = 
REMARK  6 active torsions:
REMARK  status: ('A' for Active; 'I' for Inactive)
REMARK    1  A    between atoms: C_1  and  N_2
REMARK    2  A    between atoms: N_2  and  C_3
REMARK    3  A    between atoms: N_2  and  C_4
REMARK    4  A    between atoms: C_4  and  C_5
REMARK    5  A    between atoms: C_9  and  C_10
REMARK    6  A    between atoms: C_17  and  C_18
REMARK                            x       y       z     vdW  Elec       q    Type
REMARK                         _______ _______ _______ _____ _____    ______ ____
ROOT
ATOM      1  C   UNL     1       0.690   9.866  20.058  0.00  0.00    +0.000 A 
ATOM      2  C   UNL     1       1.537   9.725  19.015  0.00  0.00    +0.000 A 
ATOM      3  C   UNL     1       2.124   8.464  18.774  0.00  0.00    +0.000 A 
ATOM      4  N   UNL     1       2.956   8.041  17.851  0.00  0.00    +0.000 NA
ATOM      5  C   UNL     1       3.165   6.706  18.126  0.00  0.00    +0.000 A 
ATOM      6  C   UNL     1       2.385   6.281  19.203  0.00  0.00    +0.000 A 
ATOM      7  N   UNL     1       1.772   7.447  19.634  0.00  0.00    +0.000 N 
ATOM      8  C   UNL     1       0.897   7.668  20.698  0.00  0.00    +0.000 A 
ATOM      9  N   UNL     1       0.367   8.838  20.927  0.00  0.00    +0.000 NA
ENDROOT
BRANCH   6  10
ATOM     10  C   UNL     1       2.184   4.974  19.821  0.00  0.00    +0.000 A 
ATOM     11  C   UNL     1       2.554   4.693  21.118  0.00  0.00    +0.000 A 
ATOM     12  C   UNL     1       2.156   3.470  21.598  0.00  0.00    +0.000 A 
ATOM     13  N   UNL     1       1.502   2.564  20.852  0.00  0.00    +0.000 NA
ATOM     14  C   UNL     1       1.222   2.913  19.595  0.00  0.00    +0.000 A 
ATOM     15  N   UNL     1       0.599   1.979  18.800  0.00  0.00    +0.000 N 
ATOM     16  N   UNL     1       1.540   4.086  19.042  0.00  0.00    +0.000 NA
ATOM     17  H   UNL     1       0.746   1.051  19.173  0.00  0.00    +0.000 HD
ATOM     18  H   UNL     1       0.817   2.129  17.826  0.00  0.00    +0.000 HD
ENDBRANCH   6  10
BRANCH   5  19
ATOM     19  C   UNL     1       4.066   5.894  17.315  0.00  0.00    +0.000 A 
ATOM     20  C   UNL     1       4.143   4.499  17.463  0.00  0.00    +0.000 A 
ATOM     21  C   UNL     1       4.903   3.727  16.582  0.00  0.00    +0.000 A 
ATOM     22  C   UNL     1       5.649   4.353  15.594  0.00  0.00    +0.000 A 
ATOM     23  F   UNL     1       6.370   3.612  14.742  0.00  0.00    +0.000 F 
ATOM     24  C   UNL     1       5.659   5.738  15.480  0.00  0.00    +0.000 A 
ATOM     25  C   UNL     1       4.865   6.508  16.338  0.00  0.00    +0.000 A 
ENDBRANCH   5  19
BRANCH   1  26
ATOM     26  C   UNL     1      -0.029  11.185  20.318  0.00  0.00    +0.000 C 
BRANCH  26  28
ATOM     27  C   UNL     1       1.504  13.015  20.772  0.00  0.00    +0.000 C 
ATOM     28  N   UNL     1       0.603  12.020  21.362  0.00  0.00    +0.000 NA
ATOM     29  C   UNL     1      -0.433  12.702  22.142  0.00  0.00    +0.000 C 
ENDBRANCH  26  28
ENDBRANCH   1  26
TORSDOF 4
ENDMDL
MODEL 6
REMARK VINA RESULT:      -7.8      3.130      6.888
REMARK  Name = 
REMARK  6 active torsions:
REMARK  status: ('A' for Active; 'I' for Inactive)
REMARK    1  A    between atoms: C_1  and  N_2
REMARK    2  A    between atoms: N_2  and  C_3
REMARK    3  A    between atoms: N_2  and  C_4
REMARK    4  A    between atoms: C_4  and  C_5
REMARK    5  A    between atoms: C_9  and  C_10
REMARK    6  A    between atoms: C_17  and  C_18
REMARK                            x       y       z     vdW  Elec       q    Type
REMARK                         _______ _______ _______ _____ _____    ______ ____
ROOT
ATOM      1  C   UNL     1       0.709   9.621  19.909  0.00  0.00    +0.000 A 
ATOM      2  C   UNL     1       1.507   9.500  18.826  0.00  0.00    +0.000 A 
ATOM      3  C   UNL     1       2.272   8.324  18.665  0.00  0.00    +0.000 A 
ATOM      4  N   UNL     1       3.107   7.937  17.729  0.00  0.00    +0.000 NA
ATOM      5  C   UNL     1       3.539   6.685  18.115  0.00  0.00    +0.000 A 
ATOM      6  C   UNL     1       2.898   6.264  19.281  0.00  0.00    +0.000 A 
ATOM      7  N   UNL     1       2.134   7.362  19.642  0.00  0.00    +0.000 N 
ATOM      8  C   UNL     1       1.296   7.559  20.740  0.00  0.00    +0.000 A 
ATOM      9  N   UNL     1       0.602   8.654  20.893  0.00  0.00    +0.000 NA
ENDROOT
BRANCH   6  10
ATOM     10  C   UNL     1       2.941   5.014  20.035  0.00  0.00    +0.000 A 
ATOM     11  C   UNL     1       1.999   4.677  20.982  0.00  0.00    +0.000 A 
ATOM     12  C   UNL     1       2.093   3.404  21.487  0.00  0.00    +0.000 A 
ATOM     13  N   UNL     1       3.066   2.545  21.142  0.00  0.00    +0.000 NA
ATOM     14  C   UNL     1       3.954   2.976  20.245  0.00  0.00    +0.000 A 
ATOM     15  N   UNL     1       4.989   2.130  19.916  0.00  0.00    +0.000 N 
ATOM     16  N   UNL     1       3.936   4.183  19.674  0.00  0.00    +0.000 NA
ATOM     17  H   UNL     1       5.121   1.443  20.646  0.00  0.00    +0.000 HD
ATOM     18  H   UNL     1       5.800   2.649  19.614  0.00  0.00    +0.000 HD
ENDBRANCH   6  10
BRANCH   5  19
ATOM     19  C   UNL     1       4.510   5.938  17.323  0.00  0.00    +0.000 A 
ATOM     20  C   UNL     1       4.159   4.767  16.631  0.00  0.00    +0.000 A 
ATOM     21  C   UNL     1       5.063   4.148  15.765  0.00  0.00    +0.000 A 
ATOM     22  C   UNL     1       6.349   4.656  15.644  0.00  0.00    +0.000 A 
ATOM     23  F   UNL     1       7.214   4.069  14.806  0.00  0.00    +0.000 F 
ATOM     24  C   UNL     1       6.749   5.763  16.382  0.00  0.00    +0.000 A 
ATOM     25  C   UNL     1       5.830   6.406  17.219  0.00  0.00    +0.000 A 
ENDBRANCH   5  19
BRANCH   1  26
ATOM     26  C   UNL     1      -0.193  10.836  20.092  0.00  0.00    +0.000 C 
BRANCH  26  28
ATOM     27  C   UNL     1      -1.633  11.841  18.413  0.00  0.00    +0.000 C 
ATOM     28  N   UNL     1      -0.258  11.722  18.911  0.00  0.00    +0.000 NA
ATOM     29  C   UNL     1       0.249  13.051  19.261  0.00  0.00    +0.000 C 
ENDBRANCH  26  28
ENDBRANCH   1  26
TORSDOF 4
ENDMDL
MODEL 7
REMARK VINA RESULT:      -7.6      3.142      7.191
REMARK  Name = 
REMARK  6 active torsions:
REMARK  status: ('A' for Active; 'I' for Inactive)
REMARK    1  A    between atoms: C_1  and  N_2
REMARK    2  A    between atoms: N_2  and  C_3
REMARK    3  A    between atoms: N_2  and  C_4
REMARK    4  A    between atoms: C_4  and  C_5
REMARK    5  A    between atoms: C_9  and  C_10
REMARK    6  A    between atoms: C_17  and  C_18
REMARK                            x       y       z     vdW  Elec       q    Type
REMARK                         _______ _______ _______ _____ _____    ______ ____
ROOT
ATOM      1  C   UNL     1       0.427   9.794  20.279  0.00  0.00    +0.000 A 
ATOM      2  C   UNL     1       1.319   9.740  19.266  0.00  0.00    +0.000 A 
ATOM      3  C   UNL     1       1.979   8.520  18.999  0.00  0.00    +0.000 A 
ATOM      4  N   UNL     1       2.866   8.178  18.093  0.00  0.00    +0.000 NA
ATOM      5  C   UNL     1       3.132   6.845  18.323  0.00  0.00    +0.000 A 
ATOM      6  C   UNL     1       2.335   6.337  19.350  0.00  0.00    +0.000 A 
ATOM      7  N   UNL     1       1.648   7.452  19.803  0.00  0.00    +0.000 N 
ATOM      8  C   UNL     1       0.723   7.584  20.839  0.00  0.00    +0.000 A 
ATOM      9  N   UNL     1       0.125   8.716  21.093  0.00  0.00    +0.000 NA
ENDROOT
BRANCH   6  10
ATOM     10  C   UNL     1       2.179   4.997  19.907  0.00  0.00    +0.000 A 
ATOM     11  C   UNL     1       2.558   4.669  21.191  0.00  0.00    +0.000 A 
ATOM     12  C   UNL     1       2.202   3.413  21.613  0.00  0.00    +0.000 A 
ATOM     13  N   UNL     1       1.578   2.520  20.826  0.00  0.00    +0.000 NA
ATOM     14  C   UNL     1       1.286   2.917  19.586  0.00  0.00    +0.000 A 
ATOM     15  N   UNL     1       0.694   2.001  18.748  0.00  0.00    +0.000 N 
ATOM     16  N   UNL     1       1.564   4.124  19.087  0.00  0.00    +0.000 NA
ATOM     17  H   UNL     1       0.873   1.062  19.078  0.00  0.00    +0.000 HD
ATOM     18  H   UNL     1       0.906   2.202  17.782  0.00  0.00    +0.000 HD
ENDBRANCH   6  10
BRANCH   5  19
ATOM     19  C   UNL     1       4.104   6.113  17.517  0.00  0.00    +0.000 A 
ATOM     20  C   UNL     1       5.333   6.680  17.141  0.00  0.00    +0.000 A 
ATOM     21  C   UNL     1       6.306   5.916  16.495  0.00  0.00    +0.000 A 
ATOM     22  C   UNL     1       6.026   4.600  16.154  0.00  0.00    +0.000 A 
ATOM     23  F   UNL     1       6.963   3.862  15.543  0.00  0.00    +0.000 F 
ATOM     24  C   UNL     1       4.787   4.040  16.438  0.00  0.00    +0.000 A 
ATOM     25  C   UNL     1       3.827   4.795  17.121  0.00  0.00    +0.000 A 
ENDBRANCH   5  19
BRANCH   1  26
ATOM     26  C   UNL     1      -0.367  11.064  20.562  0.00  0.00    +0.000 C 
BRANCH  26  28
ATOM     27  C   UNL     1       0.633  13.161  21.273  0.00  0.00    +0.000 C 
ATOM     28  N   UNL     1       0.140  11.850  21.707  0.00  0.00    +0.000 NA
ATOM     29  C   UNL     1      -0.928  12.033  22.693  0.00  0.00    +0.000 C 
ENDBRANCH  26  28
ENDBRANCH   1  26
TORSDOF 4
ENDMDL
MODEL 8
REMARK VINA RESULT:      -7.6      3.218      6.839
REMARK  Name = 
REMARK  6 active torsions:
REMARK  status: ('A' for Active; 'I' for Inactive)
REMARK    1  A    between atoms: C_1  and  N_2
REMARK    2  A    between atoms: N_2  and  C_3
REMARK    3  A    between atoms: N_2  and  C_4
REMARK    4  A    between atoms: C_4  and  C_5
REMARK    5  A    between atoms: C_9  and  C_10
REMARK    6  A    between atoms: C_17  and  C_18
REMARK                            x       y       z     vdW  Elec       q    Type
REMARK                         _______ _______ _______ _____ _____    ______ ____
ROOT
ATOM      1  C   UNL     1       1.496   8.167  20.174  0.00  0.00    +0.000 A 
ATOM      2  C   UNL     1       2.277   8.404  19.098  0.00  0.00    +0.000 A 
ATOM      3  C   UNL     1       2.984   7.330  18.514  0.00  0.00    +0.000 A 
ATOM      4  N   UNL     1       3.791   7.265  17.480  0.00  0.00    +0.000 NA
ATOM      5  C   UNL     1       4.168   5.942  17.390  0.00  0.00    +0.000 A 
ATOM      6  C   UNL     1       3.520   5.162  18.349  0.00  0.00    +0.000 A 
ATOM      7  N   UNL     1       2.812   6.092  19.093  0.00  0.00    +0.000 N 
ATOM      8  C   UNL     1       1.995   5.923  20.211  0.00  0.00    +0.000 A 
ATOM      9  N   UNL     1       1.354   6.919  20.757  0.00  0.00    +0.000 NA
ENDROOT
BRANCH   6  10
ATOM     10  C   UNL     1       3.512   3.726  18.613  0.00  0.00    +0.000 A 
ATOM     11  C   UNL     1       2.799   2.828  17.849  0.00  0.00    +0.000 A 
ATOM     12  C   UNL     1       3.021   1.502  18.130  0.00  0.00    +0.000 A 
ATOM     13  N   UNL     1       3.826   1.084  19.120  0.00  0.00    +0.000 NA
ATOM     14  C   UNL     1       4.443   2.031  19.830  0.00  0.00    +0.000 A 
ATOM     15  N   UNL     1       5.231   1.624  20.882  0.00  0.00    +0.000 N 
ATOM     16  N   UNL     1       4.318   3.343  19.620  0.00  0.00    +0.000 NA
ATOM     17  H   UNL     1       4.964   0.695  21.178  0.00  0.00    +0.000 HD
ATOM     18  H   UNL     1       5.288   2.340  21.591  0.00  0.00    +0.000 HD
ENDBRANCH   6  10
BRANCH   5  19
ATOM     19  C   UNL     1       5.095   5.484  16.361  0.00  0.00    +0.000 A 
ATOM     20  C   UNL     1       4.683   4.646  15.311  0.00  0.00    +0.000 A 
ATOM     21  C   UNL     1       5.550   4.337  14.260  0.00  0.00    +0.000 A 
ATOM     22  C   UNL     1       6.856   4.804  14.291  0.00  0.00    +0.000 A 
ATOM     23  F   UNL     1       7.684   4.517  13.278  0.00  0.00    +0.000 F 
ATOM     24  C   UNL     1       7.314   5.564  15.360  0.00  0.00    +0.000 A 
ATOM     25  C   UNL     1       6.434   5.906  16.393  0.00  0.00    +0.000 A 
ENDBRANCH   5  19
BRANCH   1  26
ATOM     26  C   UNL     1       0.653   9.274  20.797  0.00  0.00    +0.000 C 
BRANCH  26  28
ATOM     27  C   UNL     1      -0.828  10.512  19.321  0.00  0.00    +0.000 C 
ATOM     28  N   UNL     1       0.501  10.469  19.940  0.00  0.00    +0.000 NA
ATOM     29  C   UNL     1       0.704  11.679  20.741  0.00  0.00    +0.000 C 
ENDBRANCH  26  28
ENDBRANCH   1  26
TORSDOF 4
ENDMDL
MODEL 9
REMARK VINA RESULT:      -7.5      3.126      7.010
REMARK  Name = 
REMARK  6 active torsions:
REMARK  status: ('A' for Active; 'I' for Inactive)
REMARK    1  A    between atoms: C_1  and  N_2
REMARK    2  A    between atoms: N_2  and  C_3
REMARK    3  A    between atoms: N_2  and  C_4
REMARK    4  A    between atoms: C_4  and  C_5
REMARK    5  A    between atoms: C_9  and  C_10
REMARK    6  A    between atoms: C_17  and  C_18
REMARK                            x       y       z     vdW  Elec       q    Type
REMARK                         _______ _______ _______ _____ _____    ______ ____
ROOT
ATOM      1  C   UNL     1       0.918   8.981  20.140  0.00  0.00    +0.000 A 
ATOM      2  C   UNL     1       1.682   9.003  19.027  0.00  0.00    +0.000 A 
ATOM      3  C   UNL     1       2.493   7.885  18.731  0.00  0.00    +0.000 A 
ATOM      4  N   UNL     1       3.312   7.629  17.736  0.00  0.00    +0.000 NA
ATOM      5  C   UNL     1       3.813   6.369  17.987  0.00  0.00    +0.000 A 
ATOM      6  C   UNL     1       3.233   5.808  19.125  0.00  0.00    +0.000 A 
ATOM      7  N   UNL     1       2.433   6.830  19.613  0.00  0.00    +0.000 N 
ATOM      8  C   UNL     1       1.626   6.880  20.750  0.00  0.00    +0.000 A 
ATOM      9  N   UNL     1       0.889   7.921  21.029  0.00  0.00    +0.000 NA
ENDROOT
BRANCH   6  10
ATOM     10  C   UNL     1       3.358   4.496  19.753  0.00  0.00    +0.000 A 
ATOM     11  C   UNL     1       4.441   3.669  19.551  0.00  0.00    +0.000 A 
ATOM     12  C   UNL     1       4.481   2.541  20.332  0.00  0.00    +0.000 A 
ATOM     13  N   UNL     1       3.510   2.211  21.200  0.00  0.00    +0.000 NA
ATOM     14  C   UNL     1       2.482   3.056  21.297  0.00  0.00    +0.000 A 
ATOM     15  N   UNL     1       1.452   2.711  22.142  0.00  0.00    +0.000 N 
ATOM     16  N   UNL     1       2.361   4.191  20.604  0.00  0.00    +0.000 NA
ATOM     17  H   UNL     1       1.460   1.714  22.309  0.00  0.00    +0.000 HD
ATOM     18  H   UNL     1       0.583   3.126  21.842  0.00  0.00    +0.000 HD
ENDBRANCH   6  10
BRANCH   5  19
ATOM     19  C   UNL     1       4.788   5.748  17.097  0.00  0.00    +0.000 A 
ATOM     20  C   UNL     1       4.426   4.744  16.185  0.00  0.00    +0.000 A 
ATOM     21  C   UNL     1       5.342   4.265  15.245  0.00  0.00    +0.000 A 
ATOM     22  C   UNL     1       6.647   4.737  15.262  0.00  0.00    +0.000 A 
ATOM     23  F   UNL     1       7.524   4.286  14.355  0.00  0.00    +0.000 F 
ATOM     24  C   UNL     1       7.055   5.668  16.210  0.00  0.00    +0.000 A 
ATOM     25  C   UNL     1       6.126   6.176  17.125  0.00  0.00    +0.000 A 
ENDBRANCH   5  19
BRANCH   1  26
ATOM     26  C   UNL     1      -0.031  10.128  20.468  0.00  0.00    +0.000 C 
BRANCH  26  28
ATOM     27  C   UNL     1       1.009  12.281  20.901  0.00  0.00    +0.000 C 
ATOM     28  N   UNL     1       0.477  11.054  21.502  0.00  0.00    +0.000 NA
ATOM     29  C   UNL     1      -0.603  11.396  22.431  0.00  0.00    +0.000 C 
ENDBRANCH  26  28
ENDBRANCH   1  26
TORSDOF 4
ENDMDL
