MODEL 1
REMARK VINA RESULT:      -6.5      0.000      0.000
REMARK  Name = 
REMARK  15 active torsions:
REMARK  status: ('A' for Active; 'I' for Inactive)
REMARK    1  A    between atoms: C_1  and  C_2
REMARK    2  A    between atoms: C_2  and  C_3
REMARK    3  A    between atoms: C_3  and  S_4
REMARK    4  A    between atoms: S_4  and  N_7
REMARK    5  A    between atoms: N_7  and  C_8
REMARK    6  A    between atoms: C_11  and  C_12
REMARK    7  A    between atoms: C_12  and  C_13
REMARK    8  A    between atoms: C_13  and  N_14
REMARK    9  A    between atoms: N_14  and  C_15
REMARK   10  A    between atoms: C_15  and  C_16
REMARK   11  A    between atoms: C_16  and  O_17
REMARK   12  A    between atoms: C_16  and  C_18
REMARK   13  A    between atoms: C_18  and  O_19
REMARK   14  A    between atoms: O_19  and  C_20
REMARK   15  A    between atoms: C_23  and  O_24
REMARK                            x       y       z     vdW  Elec       q    Type
REMARK                         _______ _______ _______ _____ _____    ______ ____
ROOT
ATOM      1  C   UNL     1       2.192   4.769  20.137  0.00  0.00    +0.000 C 
ENDROOT
BRANCH   1   2
ATOM      2  N   UNL     1       1.301   4.195  19.117  0.00  0.00    +0.000 NA
ATOM      3  H   UNL     1       0.479   4.791  19.022  0.00  0.00    +0.000 HD
BRANCH   2   4
ATOM      4  C   UNL     1       1.940   4.050  17.802  0.00  0.00    +0.000 C 
BRANCH   4   5
ATOM      5  C   UNL     1       2.623   2.690  17.543  0.00  0.00    +0.000 C 
BRANCH   5   6
ATOM      6  O   UNL     1       2.023   1.694  18.383  0.00  0.00    +0.000 OA
ATOM      7  H   UNL     1       2.648   1.478  19.094  0.00  0.00    +0.000 HD
ENDBRANCH   5   6
BRANCH   5   8
ATOM      8  C   UNL     1       4.136   2.805  17.778  0.00  0.00    +0.000 C 
BRANCH   8   9
ATOM      9  O   UNL     1       4.758   3.423  16.649  0.00  0.00    +0.000 OA
BRANCH   9  10
ATOM     10  C   UNL     1       5.534   4.513  16.949  0.00  0.00    +0.000 A 
ATOM     11  C   UNL     1       5.031   5.738  16.506  0.00  0.00    +0.000 A 
ATOM     12  C   UNL     1       5.735   6.919  16.749  0.00  0.00    +0.000 A 
ATOM     13  C   UNL     1       6.930   6.869  17.453  0.00  0.00    +0.000 A 
ATOM     14  C   UNL     1       7.430   5.660  17.921  0.00  0.00    +0.000 A 
ATOM     15  C   UNL     1       6.727   4.477  17.671  0.00  0.00    +0.000 A 
BRANCH  13  16
ATOM     16  O   UNL     1       7.655   7.991  17.721  0.00  0.00    +0.000 OA
ATOM     17  H   UNL     1       7.639   8.562  16.932  0.00  0.00    +0.000 HD
ENDBRANCH  13  16
ENDBRANCH   9  10
ENDBRANCH   8   9
ENDBRANCH   5   8
ENDBRANCH   4   5
ENDBRANCH   2   4
ENDBRANCH   1   2
BRANCH   1  18
ATOM     18  C   UNL     1       3.106   5.875  19.595  0.00  0.00    +0.000 C 
BRANCH  18  22
ATOM     19  C   UNL     1       1.064   9.613  19.016  0.00  0.00    +0.000 A 
ATOM     20  C   UNL     1       1.686   8.990  17.935  0.00  0.00    +0.000 A 
ATOM     21  C   UNL     1       2.349   7.777  18.122  0.00  0.00    +0.000 A 
ATOM     22  C   UNL     1       2.369   7.171  19.386  0.00  0.00    +0.000 A 
ATOM     23  C   UNL     1       1.705   7.783  20.456  0.00  0.00    +0.000 A 
ATOM     24  C   UNL     1       1.043   8.997  20.266  0.00  0.00    +0.000 A 
BRANCH  19  25
ATOM     25  N   UNL     1       0.394  10.869  18.841  0.00  0.00    +0.000 N 
ATOM     26  H   UNL     1      -0.408  10.945  19.471  0.00  0.00    +0.000 HD
BRANCH  25  27
ATOM     27  S   UNL     1       1.378  12.237  19.075  0.00  0.00    +0.000 S 
ATOM     28  O   UNL     1       2.475  12.216  18.128  0.00  0.00    +0.000 OA
ATOM     29  O   UNL     1       1.593  12.340  20.501  0.00  0.00    +0.000 OA
BRANCH  27  30
ATOM     30  C   UNL     1       0.238  13.527  18.578  0.00  0.00    +0.000 C 
BRANCH  30  32
ATOM     31  C   UNL     1       1.628  15.631  18.703  0.00  0.00    +0.000 C 
ATOM     32  C   UNL     1       0.512  14.818  19.340  0.00  0.00    +0.000 C 
ENDBRANCH  30  32
ENDBRANCH  27  30
ENDBRANCH  25  27
ENDBRANCH  19  25
ENDBRANCH  18  22
ENDBRANCH   1  18
TORSDOF 14
ENDMDL
MODEL 2
REMARK VINA RESULT:      -6.5      6.103      7.848
REMARK  Name = 
REMARK  15 active torsions:
REMARK  status: ('A' for Active; 'I' for Inactive)
REMARK    1  A    between atoms: C_1  and  C_2
REMARK    2  A    between atoms: C_2  and  C_3
REMARK    3  A    between atoms: C_3  and  S_4
REMARK    4  A    between atoms: S_4  and  N_7
REMARK    5  A    between atoms: N_7  and  C_8
REMARK    6  A    between atoms: C_11  and  C_12
REMARK    7  A    between atoms: C_12  and  C_13
REMARK    8  A    between atoms: C_13  and  N_14
REMARK    9  A    between atoms: N_14  and  C_15
REMARK   10  A    between atoms: C_15  and  C_16
REMARK   11  A    between atoms: C_16  and  O_17
REMARK   12  A    between atoms: C_16  and  C_18
REMARK   13  A    between atoms: C_18  and  O_19
REMARK   14  A    between atoms: O_19  and  C_20
REMARK   15  A    between atoms: C_23  and  O_24
REMARK                            x       y       z     vdW  Elec       q    Type
REMARK                         _______ _______ _______ _____ _____    ______ ____
ROOT
ATOM      1  C   UNL     1       8.070   9.376  17.898  0.00  0.00    +0.000 C 
ENDROOT
BRANCH   1   2
ATOM      2  N   UNL     1       7.949   8.041  17.292  0.00  0.00    +0.000 NA
ATOM      3  H   UNL     1       8.772   7.864  16.717  0.00  0.00    +0.000 HD
BRANCH   2   4
ATOM      4  C   UNL     1       7.815   6.963  18.281  0.00  0.00    +0.000 C 
BRANCH   4   5
ATOM      5  C   UNL     1       7.094   5.693  17.783  0.00  0.00    +0.000 C 
BRANCH   5   6
ATOM      6  O   UNL     1       8.033   4.609  17.730  0.00  0.00    +0.000 OA
ATOM      7  H   UNL     1       8.774   4.819  18.321  0.00  0.00    +0.000 HD
ENDBRANCH   5   6
BRANCH   5   8
ATOM      8  C   UNL     1       6.442   5.956  16.418  0.00  0.00    +0.000 C 
BRANCH   8   9
ATOM      9  O   UNL     1       7.397   5.749  15.374  0.00  0.00    +0.000 OA
BRANCH   9  10
ATOM     10  C   UNL     1       6.949   4.971  14.337  0.00  0.00    +0.000 A 
ATOM     11  C   UNL     1       5.741   4.310  14.571  0.00  0.00    +0.000 A 
ATOM     12  C   UNL     1       5.187   3.486  13.591  0.00  0.00    +0.000 A 
ATOM     13  C   UNL     1       5.836   3.342  12.372  0.00  0.00    +0.000 A 
ATOM     14  C   UNL     1       7.027   4.013  12.117  0.00  0.00    +0.000 A 
ATOM     15  C   UNL     1       7.583   4.833  13.102  0.00  0.00    +0.000 A 
BRANCH  13  16
ATOM     16  O   UNL     1       5.338   2.553  11.380  0.00  0.00    +0.000 OA
ATOM     17  H   UNL     1       5.841   2.732  10.565  0.00  0.00    +0.000 HD
ENDBRANCH  13  16
ENDBRANCH   9  10
ENDBRANCH   8   9
ENDBRANCH   5   8
ENDBRANCH   4   5
ENDBRANCH   2   4
ENDBRANCH   1   2
BRANCH   1  18
ATOM     18  C   UNL     1       9.127   9.447  19.008  0.00  0.00    +0.000 C 
BRANCH  18  22
ATOM     19  C   UNL     1      11.084  13.274  19.076  0.00  0.00    +0.000 A 
ATOM     20  C   UNL     1      10.640  12.703  20.268  0.00  0.00    +0.000 A 
ATOM     21  C   UNL     1      10.004  11.462  20.246  0.00  0.00    +0.000 A 
ATOM     22  C   UNL     1       9.835  10.775  19.035  0.00  0.00    +0.000 A 
ATOM     23  C   UNL     1      10.323  11.337  17.849  0.00  0.00    +0.000 A 
ATOM     24  C   UNL     1      10.958  12.580  17.874  0.00  0.00    +0.000 A 
BRANCH  19  25
ATOM     25  N   UNL     1      11.723  14.557  19.081  0.00  0.00    +0.000 N 
ATOM     26  H   UNL     1      12.604  14.528  18.562  0.00  0.00    +0.000 HD
BRANCH  25  27
ATOM     27  S   UNL     1      10.780  15.824  18.446  0.00  0.00    +0.000 S 
ATOM     28  O   UNL     1      10.741  15.723  17.001  0.00  0.00    +0.000 OA
ATOM     29  O   UNL     1      11.210  17.026  19.125  0.00  0.00    +0.000 OA
BRANCH  27  30
ATOM     30  C   UNL     1       9.169  15.359  19.080  0.00  0.00    +0.000 C 
BRANCH  30  32
ATOM     31  C   UNL     1       7.536  13.921  17.800  0.00  0.00    +0.000 C 
ATOM     32  C   UNL     1       8.138  15.308  17.959  0.00  0.00    +0.000 C 
ENDBRANCH  30  32
ENDBRANCH  27  30
ENDBRANCH  25  27
ENDBRANCH  19  25
ENDBRANCH  18  22
ENDBRANCH   1  18
TORSDOF 14
ENDMDL
MODEL 3
REMARK VINA RESULT:      -6.4      1.833      2.369
REMARK  Name = 
REMARK  15 active torsions:
REMARK  status: ('A' for Active; 'I' for Inactive)
REMARK    1  A    between atoms: C_1  and  C_2
REMARK    2  A    between atoms: C_2  and  C_3
REMARK    3  A    between atoms: C_3  and  S_4
REMARK    4  A    between atoms: S_4  and  N_7
REMARK    5  A    between atoms: N_7  and  C_8
REMARK    6  A    between atoms: C_11  and  C_12
REMARK    7  A    between atoms: C_12  and  C_13
REMARK    8  A    between atoms: C_13  and  N_14
REMARK    9  A    between atoms: N_14  and  C_15
REMARK   10  A    between atoms: C_15  and  C_16
REMARK   11  A    between atoms: C_16  and  O_17
REMARK   12  A    between atoms: C_16  and  C_18
REMARK   13  A    between atoms: C_18  and  O_19
REMARK   14  A    between atoms: O_19  and  C_20
REMARK   15  A    between atoms: C_23  and  O_24
REMARK                            x       y       z     vdW  Elec       q    Type
REMARK                         _______ _______ _______ _____ _____    ______ ____
ROOT
ATOM      1  C   UNL     1       2.120   5.332  19.107  0.00  0.00    +0.000 C 
ENDROOT
BRANCH   1   2
ATOM      2  N   UNL     1       2.070   4.740  20.453  0.00  0.00    +0.000 NA
ATOM      3  H   UNL     1       1.208   5.036  20.912  0.00  0.00    +0.000 HD
BRANCH   2   4
ATOM      4  C   UNL     1       2.128   3.273  20.446  0.00  0.00    +0.000 C 
BRANCH   4   5
ATOM      5  C   UNL     1       2.504   2.630  19.093  0.00  0.00    +0.000 C 
BRANCH   5   6
ATOM      6  O   UNL     1       1.703   1.458  18.890  0.00  0.00    +0.000 OA
ATOM      7  H   UNL     1       0.948   1.698  18.328  0.00  0.00    +0.000 HD
ENDBRANCH   5   6
BRANCH   5   8
ATOM      8  C   UNL     1       4.005   2.315  19.057  0.00  0.00    +0.000 C 
BRANCH   8   9
ATOM      9  O   UNL     1       4.760   3.516  19.241  0.00  0.00    +0.000 OA
BRANCH   9  10
ATOM     10  C   UNL     1       5.375   3.982  18.108  0.00  0.00    +0.000 A 
ATOM     11  C   UNL     1       6.585   4.648  18.321  0.00  0.00    +0.000 A 
ATOM     12  C   UNL     1       7.302   5.171  17.244  0.00  0.00    +0.000 A 
ATOM     13  C   UNL     1       6.814   5.008  15.955  0.00  0.00    +0.000 A 
ATOM     14  C   UNL     1       5.623   4.327  15.726  0.00  0.00    +0.000 A 
ATOM     15  C   UNL     1       4.904   3.809  16.806  0.00  0.00    +0.000 A 
BRANCH  13  16
ATOM     16  O   UNL     1       7.474   5.496  14.868  0.00  0.00    +0.000 OA
ATOM     17  H   UNL     1       7.324   4.889  14.121  0.00  0.00    +0.000 HD
ENDBRANCH  13  16
ENDBRANCH   9  10
ENDBRANCH   8   9
ENDBRANCH   5   8
ENDBRANCH   4   5
ENDBRANCH   2   4
ENDBRANCH   1   2
BRANCH   1  18
ATOM     18  C   UNL     1       2.934   6.631  19.044  0.00  0.00    +0.000 C 
BRANCH  18  22
ATOM     19  C   UNL     1       0.494  10.165  19.240  0.00  0.00    +0.000 A 
ATOM     20  C   UNL     1       0.995   9.738  18.011  0.00  0.00    +0.000 A 
ATOM     21  C   UNL     1       1.787   8.591  17.948  0.00  0.00    +0.000 A 
ATOM     22  C   UNL     1       2.059   7.854  19.108  0.00  0.00    +0.000 A 
ATOM     23  C   UNL     1       1.516   8.267  20.331  0.00  0.00    +0.000 A 
ATOM     24  C   UNL     1       0.724   9.415  20.392  0.00  0.00    +0.000 A 
BRANCH  19  25
ATOM     25  N   UNL     1      -0.306  11.352  19.323  0.00  0.00    +0.000 N 
ATOM     26  H   UNL     1      -1.050  11.242  20.016  0.00  0.00    +0.000 HD
BRANCH  25  27
ATOM     27  S   UNL     1       0.560  12.768  19.701  0.00  0.00    +0.000 S 
ATOM     28  O   UNL     1      -0.025  13.895  19.004  0.00  0.00    +0.000 OA
ATOM     29  O   UNL     1       1.960  12.428  19.579  0.00  0.00    +0.000 OA
BRANCH  27  30
ATOM     30  C   UNL     1       0.161  12.920  21.441  0.00  0.00    +0.000 C 
BRANCH  30  32
ATOM     31  C   UNL     1      -1.197  11.377  22.907  0.00  0.00    +0.000 C 
ATOM     32  C   UNL     1      -1.219  12.344  21.735  0.00  0.00    +0.000 C 
ENDBRANCH  30  32
ENDBRANCH  27  30
ENDBRANCH  25  27
ENDBRANCH  19  25
ENDBRANCH  18  22
ENDBRANCH   1  18
TORSDOF 14
ENDMDL
MODEL 4
REMARK VINA RESULT:      -6.4      2.127      2.656
REMARK  Name = 
REMARK  15 active torsions:
REMARK  status: ('A' for Active; 'I' for Inactive)
REMARK    1  A    between atoms: C_1  and  C_2
REMARK    2  A    between atoms: C_2  and  C_3
REMARK    3  A    between atoms: C_3  and  S_4
REMARK    4  A    between atoms: S_4  and  N_7
REMARK    5  A    between atoms: N_7  and  C_8
REMARK    6  A    between atoms: C_11  and  C_12
REMARK    7  A    between atoms: C_12  and  C_13
REMARK    8  A    between atoms: C_13  and  N_14
REMARK    9  A    between atoms: N_14  and  C_15
REMARK   10  A    between atoms: C_15  and  C_16
REMARK   11  A    between atoms: C_16  and  O_17
REMARK   12  A    between atoms: C_16  and  C_18
REMARK   13  A    between atoms: C_18  and  O_19
REMARK   14  A    between atoms: O_19  and  C_20
REMARK   15  A    between atoms: C_23  and  O_24
REMARK                            x       y       z     vdW  Elec       q    Type
REMARK                         _______ _______ _______ _____ _____    ______ ____
ROOT
ATOM      1  C   UNL     1       1.789   5.134  18.356  0.00  0.00    +0.000 C 
ENDROOT
BRANCH   1   2
ATOM      2  N   UNL     1       1.292   4.250  19.421  0.00  0.00    +0.000 NA
ATOM      3  H   UNL     1       0.286   4.386  19.521  0.00  0.00    +0.000 HD
BRANCH   2   4
ATOM      4  C   UNL     1       1.558   2.828  19.168  0.00  0.00    +0.000 C 
BRANCH   4   5
ATOM      5  C   UNL     1       2.859   2.277  19.790  0.00  0.00    +0.000 C 
BRANCH   5   6
ATOM      6  O   UNL     1       3.059   2.880  21.076  0.00  0.00    +0.000 OA
ATOM      7  H   UNL     1       2.914   3.837  20.989  0.00  0.00    +0.000 HD
ENDBRANCH   5   6
BRANCH   5   8
ATOM      8  C   UNL     1       4.044   2.528  18.846  0.00  0.00    +0.000 C 
BRANCH   8   9
ATOM      9  O   UNL     1       5.034   3.321  19.507  0.00  0.00    +0.000 OA
BRANCH   9  10
ATOM     10  C   UNL     1       5.677   4.221  18.698  0.00  0.00    +0.000 A 
ATOM     11  C   UNL     1       6.542   5.098  19.358  0.00  0.00    +0.000 A 
ATOM     12  C   UNL     1       7.250   6.063  18.640  0.00  0.00    +0.000 A 
ATOM     13  C   UNL     1       7.105   6.132  17.262  0.00  0.00    +0.000 A 
ATOM     14  C   UNL     1       6.266   5.251  16.589  0.00  0.00    +0.000 A 
ATOM     15  C   UNL     1       5.553   4.289  17.311  0.00  0.00    +0.000 A 
BRANCH  13  16
ATOM     16  O   UNL     1       7.775   7.052  16.513  0.00  0.00    +0.000 OA
ATOM     17  H   UNL     1       7.156   7.769  16.283  0.00  0.00    +0.000 HD
ENDBRANCH  13  16
ENDBRANCH   9  10
ENDBRANCH   8   9
ENDBRANCH   5   8
ENDBRANCH   4   5
ENDBRANCH   2   4
ENDBRANCH   1   2
BRANCH   1  18
ATOM     18  C   UNL     1       2.831   6.148  18.844  0.00  0.00    +0.000 C 
BRANCH  18  22
ATOM     19  C   UNL     1       1.110  10.061  19.295  0.00  0.00    +0.000 A 
ATOM     20  C   UNL     1       1.179   9.205  20.394  0.00  0.00    +0.000 A 
ATOM     21  C   UNL     1       1.737   7.935  20.248  0.00  0.00    +0.000 A 
ATOM     22  C   UNL     1       2.252   7.527  19.009  0.00  0.00    +0.000 A 
ATOM     23  C   UNL     1       2.217   8.410  17.923  0.00  0.00    +0.000 A 
ATOM     24  C   UNL     1       1.657   9.680  18.072  0.00  0.00    +0.000 A 
BRANCH  19  25
ATOM     25  N   UNL     1       0.522  11.362  19.427  0.00  0.00    +0.000 N 
ATOM     26  H   UNL     1       1.029  12.049  18.864  0.00  0.00    +0.000 HD
BRANCH  25  27
ATOM     27  S   UNL     1      -1.123  11.445  19.001  0.00  0.00    +0.000 S 
ATOM     28  O   UNL     1      -1.649  10.107  18.828  0.00  0.00    +0.000 OA
ATOM     29  O   UNL     1      -1.222  12.453  17.969  0.00  0.00    +0.000 OA
BRANCH  27  30
ATOM     30  C   UNL     1      -1.802  12.118  20.518  0.00  0.00    +0.000 C 
BRANCH  30  32
ATOM     31  C   UNL     1      -1.072  11.022  22.671  0.00  0.00    +0.000 C 
ATOM     32  C   UNL     1      -0.766  12.090  21.635  0.00  0.00    +0.000 C 
ENDBRANCH  30  32
ENDBRANCH  27  30
ENDBRANCH  25  27
ENDBRANCH  19  25
ENDBRANCH  18  22
ENDBRANCH   1  18
TORSDOF 14
ENDMDL
MODEL 5
REMARK VINA RESULT:      -6.3      1.836      2.095
REMARK  Name = 
REMARK  15 active torsions:
REMARK  status: ('A' for Active; 'I' for Inactive)
REMARK    1  A    between atoms: C_1  and  C_2
REMARK    2  A    between atoms: C_2  and  C_3
REMARK    3  A    between atoms: C_3  and  S_4
REMARK    4  A    between atoms: S_4  and  N_7
REMARK    5  A    between atoms: N_7  and  C_8
REMARK    6  A    between atoms: C_11  and  C_12
REMARK    7  A    between atoms: C_12  and  C_13
REMARK    8  A    between atoms: C_13  and  N_14
REMARK    9  A    between atoms: N_14  and  C_15
REMARK   10  A    between atoms: C_15  and  C_16
REMARK   11  A    between atoms: C_16  and  O_17
REMARK   12  A    between atoms: C_16  and  C_18
REMARK   13  A    between atoms: C_18  and  O_19
REMARK   14  A    between atoms: O_19  and  C_20
REMARK   15  A    between atoms: C_23  and  O_24
REMARK                            x       y       z     vdW  Elec       q    Type
REMARK                         _______ _______ _______ _____ _____    ______ ____
ROOT
ATOM      1  C   UNL     1       2.012   5.358  20.617  0.00  0.00    +0.000 C 
ENDROOT
BRANCH   1   2
ATOM      2  N   UNL     1       1.092   4.287  20.207  0.00  0.00    +0.000 NA
ATOM      3  H   UNL     1       0.135   4.582  20.400  0.00  0.00    +0.000 HD
BRANCH   2   4
ATOM      4  C   UNL     1       1.206   3.934  18.785  0.00  0.00    +0.000 C 
BRANCH   4   5
ATOM      5  C   UNL     1       1.975   2.629  18.486  0.00  0.00    +0.000 C 
BRANCH   5   6
ATOM      6  O   UNL     1       2.402   2.041  19.722  0.00  0.00    +0.000 OA
ATOM      7  H   UNL     1       2.749   1.153  19.533  0.00  0.00    +0.000 HD
ENDBRANCH   5   6
BRANCH   5   8
ATOM      8  C   UNL     1       3.154   2.915  17.546  0.00  0.00    +0.000 C 
BRANCH   8   9
ATOM      9  O   UNL     1       4.360   3.046  18.304  0.00  0.00    +0.000 OA
BRANCH   9  10
ATOM     10  C   UNL     1       5.094   4.169  18.019  0.00  0.00    +0.000 A 
ATOM     11  C   UNL     1       4.829   4.750  16.776  0.00  0.00    +0.000 A 
ATOM     12  C   UNL     1       5.517   5.895  16.372  0.00  0.00    +0.000 A 
ATOM     13  C   UNL     1       6.453   6.465  17.223  0.00  0.00    +0.000 A 
ATOM     14  C   UNL     1       6.710   5.911  18.472  0.00  0.00    +0.000 A 
ATOM     15  C   UNL     1       6.024   4.761  18.873  0.00  0.00    +0.000 A 
BRANCH  13  16
ATOM     16  O   UNL     1       7.151   7.584  16.881  0.00  0.00    +0.000 OA
ATOM     17  H   UNL     1       7.274   7.584  15.914  0.00  0.00    +0.000 HD
ENDBRANCH  13  16
ENDBRANCH   9  10
ENDBRANCH   8   9
ENDBRANCH   5   8
ENDBRANCH   4   5
ENDBRANCH   2   4
ENDBRANCH   1   2
BRANCH   1  18
ATOM     18  C   UNL     1       2.635   6.112  19.435  0.00  0.00    +0.000 C 
BRANCH  18  22
ATOM     19  C   UNL     1       1.213  10.156  19.120  0.00  0.00    +0.000 A 
ATOM     20  C   UNL     1       1.707   9.507  17.990  0.00  0.00    +0.000 A 
ATOM     21  C   UNL     1       2.169   8.195  18.092  0.00  0.00    +0.000 A 
ATOM     22  C   UNL     1       2.114   7.519  19.319  0.00  0.00    +0.000 A 
ATOM     23  C   UNL     1       1.576   8.165  20.438  0.00  0.00    +0.000 A 
ATOM     24  C   UNL     1       1.115   9.479  20.334  0.00  0.00    +0.000 A 
BRANCH  19  25
ATOM     25  N   UNL     1       0.752  11.511  19.034  0.00  0.00    +0.000 N 
ATOM     26  H   UNL     1       1.203  12.001  18.258  0.00  0.00    +0.000 HD
BRANCH  25  27
ATOM     27  S   UNL     1      -0.932  11.679  18.854  0.00  0.00    +0.000 S 
ATOM     28  O   UNL     1      -1.571  10.390  19.028  0.00  0.00    +0.000 OA
ATOM     29  O   UNL     1      -1.132  12.485  17.670  0.00  0.00    +0.000 OA
BRANCH  27  30
ATOM     30  C   UNL     1      -1.300  12.682  20.293  0.00  0.00    +0.000 C 
BRANCH  30  32
ATOM     31  C   UNL     1      -0.902  12.050  22.705  0.00  0.00    +0.000 C 
ATOM     32  C   UNL     1      -1.744  11.811  21.462  0.00  0.00    +0.000 C 
ENDBRANCH  30  32
ENDBRANCH  27  30
ENDBRANCH  25  27
ENDBRANCH  19  25
ENDBRANCH  18  22
ENDBRANCH   1  18
TORSDOF 14
ENDMDL
MODEL 6
REMARK VINA RESULT:      -6.3      2.206      2.578
REMARK  Name = 
REMARK  15 active torsions:
REMARK  status: ('A' for Active; 'I' for Inactive)
REMARK    1  A    between atoms: C_1  and  C_2
REMARK    2  A    between atoms: C_2  and  C_3
REMARK    3  A    between atoms: C_3  and  S_4
REMARK    4  A    between atoms: S_4  and  N_7
REMARK    5  A    between atoms: N_7  and  C_8
REMARK    6  A    between atoms: C_11  and  C_12
REMARK    7  A    between atoms: C_12  and  C_13
REMARK    8  A    between atoms: C_13  and  N_14
REMARK    9  A    between atoms: N_14  and  C_15
REMARK   10  A    between atoms: C_15  and  C_16
REMARK   11  A    between atoms: C_16  and  O_17
REMARK   12  A    between atoms: C_16  and  C_18
REMARK   13  A    between atoms: C_18  and  O_19
REMARK   14  A    between atoms: O_19  and  C_20
REMARK   15  A    between atoms: C_23  and  O_24
REMARK                            x       y       z     vdW  Elec       q    Type
REMARK                         _______ _______ _______ _____ _____    ______ ____
ROOT
ATOM      1  C   UNL     1       2.104   5.477  18.146  0.00  0.00    +0.000 C 
ENDROOT
BRANCH   1   2
ATOM      2  N   UNL     1       1.536   4.519  19.106  0.00  0.00    +0.000 NA
ATOM      3  H   UNL     1       1.316   3.651  18.616  0.00  0.00    +0.000 HD
BRANCH   2   4
ATOM      4  C   UNL     1       2.434   4.218  20.229  0.00  0.00    +0.000 C 
BRANCH   4   5
ATOM      5  C   UNL     1       2.946   2.764  20.297  0.00  0.00    +0.000 C 
BRANCH   5   6
ATOM      6  O   UNL     1       3.289   2.448  21.654  0.00  0.00    +0.000 OA
ATOM      7  H   UNL     1       2.772   1.672  21.926  0.00  0.00    +0.000 HD
ENDBRANCH   5   6
BRANCH   5   8
ATOM      8  C   UNL     1       4.136   2.577  19.345  0.00  0.00    +0.000 C 
BRANCH   8   9
ATOM      9  O   UNL     1       5.025   3.691  19.452  0.00  0.00    +0.000 OA
BRANCH   9  10
ATOM     10  C   UNL     1       5.589   4.088  18.267  0.00  0.00    +0.000 A 
ATOM     11  C   UNL     1       6.740   4.869  18.391  0.00  0.00    +0.000 A 
ATOM     12  C   UNL     1       7.401   5.337  17.254  0.00  0.00    +0.000 A 
ATOM     13  C   UNL     1       6.916   5.003  15.997  0.00  0.00    +0.000 A 
ATOM     14  C   UNL     1       5.785   4.207  15.858  0.00  0.00    +0.000 A 
ATOM     15  C   UNL     1       5.121   3.745  16.999  0.00  0.00    +0.000 A 
BRANCH  13  16
ATOM     16  O   UNL     1       7.524   5.430  14.855  0.00  0.00    +0.000 OA
ATOM     17  H   UNL     1       7.019   5.089  14.094  0.00  0.00    +0.000 HD
ENDBRANCH  13  16
ENDBRANCH   9  10
ENDBRANCH   8   9
ENDBRANCH   5   8
ENDBRANCH   4   5
ENDBRANCH   2   4
ENDBRANCH   1   2
BRANCH   1  18
ATOM     18  C   UNL     1       2.955   6.569  18.807  0.00  0.00    +0.000 C 
BRANCH  18  22
ATOM     19  C   UNL     1       0.793  10.221  19.487  0.00  0.00    +0.000 A 
ATOM     20  C   UNL     1       1.323   9.957  18.225  0.00  0.00    +0.000 A 
ATOM     21  C   UNL     1       2.025   8.772  18.004  0.00  0.00    +0.000 A 
ATOM     22  C   UNL     1       2.176   7.837  19.037  0.00  0.00    +0.000 A 
ATOM     23  C   UNL     1       1.603   8.092  20.289  0.00  0.00    +0.000 A 
ATOM     24  C   UNL     1       0.902   9.279  20.507  0.00  0.00    +0.000 A 
BRANCH  19  25
ATOM     25  N   UNL     1       0.084  11.444  19.733  0.00  0.00    +0.000 N 
ATOM     26  H   UNL     1       0.674  12.254  19.528  0.00  0.00    +0.000 HD
BRANCH  25  27
ATOM     27  S   UNL     1      -1.366  11.614  18.858  0.00  0.00    +0.000 S 
ATOM     28  O   UNL     1      -1.898  10.305  18.540  0.00  0.00    +0.000 OA
ATOM     29  O   UNL     1      -1.109  12.610  17.842  0.00  0.00    +0.000 OA
BRANCH  27  30
ATOM     30  C   UNL     1      -2.405  12.347  20.122  0.00  0.00    +0.000 C 
BRANCH  30  32
ATOM     31  C   UNL     1      -1.775  13.859  22.042  0.00  0.00    +0.000 C 
ATOM     32  C   UNL     1      -1.876  13.716  20.533  0.00  0.00    +0.000 C 
ENDBRANCH  30  32
ENDBRANCH  27  30
ENDBRANCH  25  27
ENDBRANCH  19  25
ENDBRANCH  18  22
ENDBRANCH   1  18
TORSDOF 14
ENDMDL
MODEL 7
REMARK VINA RESULT:      -6.3      2.148      4.377
REMARK  Name = 
REMARK  15 active torsions:
REMARK  status: ('A' for Active; 'I' for Inactive)
REMARK    1  A    between atoms: C_1  and  C_2
REMARK    2  A    between atoms: C_2  and  C_3
REMARK    3  A    between atoms: C_3  and  S_4
REMARK    4  A    between atoms: S_4  and  N_7
REMARK    5  A    between atoms: N_7  and  C_8
REMARK    6  A    between atoms: C_11  and  C_12
REMARK    7  A    between atoms: C_12  and  C_13
REMARK    8  A    between atoms: C_13  and  N_14
REMARK    9  A    between atoms: N_14  and  C_15
REMARK   10  A    between atoms: C_15  and  C_16
REMARK   11  A    between atoms: C_16  and  O_17
REMARK   12  A    between atoms: C_16  and  C_18
REMARK   13  A    between atoms: C_18  and  O_19
REMARK   14  A    between atoms: O_19  and  C_20
REMARK   15  A    between atoms: C_23  and  O_24
REMARK                            x       y       z     vdW  Elec       q    Type
REMARK                         _______ _______ _______ _____ _____    ______ ____
ROOT
ATOM      1  C   UNL     1       4.802   7.667  17.388  0.00  0.00    +0.000 C 
ENDROOT
BRANCH   1   2
ATOM      2  N   UNL     1       5.802   6.790  16.759  0.00  0.00    +0.000 NA
ATOM      3  H   UNL     1       6.232   7.286  15.979  0.00  0.00    +0.000 HD
BRANCH   2   4
ATOM      4  C   UNL     1       6.854   6.349  17.684  0.00  0.00    +0.000 C 
BRANCH   4   5
ATOM      5  C   UNL     1       7.134   4.831  17.693  0.00  0.00    +0.000 C 
BRANCH   5   6
ATOM      6  O   UNL     1       7.929   4.492  16.548  0.00  0.00    +0.000 OA
ATOM      7  H   UNL     1       8.866   4.562  16.796  0.00  0.00    +0.000 HD
ENDBRANCH   5   6
BRANCH   5   8
ATOM      8  C   UNL     1       5.813   4.050  17.728  0.00  0.00    +0.000 C 
BRANCH   8   9
ATOM      9  O   UNL     1       5.375   3.894  19.081  0.00  0.00    +0.000 OA
BRANCH   9  10
ATOM     10  C   UNL     1       4.038   3.623  19.220  0.00  0.00    +0.000 A 
ATOM     11  C   UNL     1       3.520   2.708  18.301  0.00  0.00    +0.000 A 
ATOM     12  C   UNL     1       2.170   2.355  18.340  0.00  0.00    +0.000 A 
ATOM     13  C   UNL     1       1.349   2.907  19.313  0.00  0.00    +0.000 A 
ATOM     14  C   UNL     1       1.856   3.802  20.249  0.00  0.00    +0.000 A 
ATOM     15  C   UNL     1       3.207   4.158  20.204  0.00  0.00    +0.000 A 
BRANCH  13  16
ATOM     16  O   UNL     1       0.025   2.597  19.399  0.00  0.00    +0.000 OA
ATOM     17  H   UNL     1      -0.348   3.058  20.172  0.00  0.00    +0.000 HD
ENDBRANCH  13  16
ENDBRANCH   9  10
ENDBRANCH   8   9
ENDBRANCH   5   8
ENDBRANCH   4   5
ENDBRANCH   2   4
ENDBRANCH   1   2
BRANCH   1  18
ATOM     18  C   UNL     1       3.470   6.963  17.676  0.00  0.00    +0.000 C 
BRANCH  18  22
ATOM     19  C   UNL     1       0.622   9.489  19.671  0.00  0.00    +0.000 A 
ATOM     20  C   UNL     1       1.203   8.426  20.359  0.00  0.00    +0.000 A 
ATOM     21  C   UNL     1       2.128   7.606  19.712  0.00  0.00    +0.000 A 
ATOM     22  C   UNL     1       2.492   7.862  18.383  0.00  0.00    +0.000 A 
ATOM     23  C   UNL     1       1.934   8.959  17.714  0.00  0.00    +0.000 A 
ATOM     24  C   UNL     1       1.008   9.777  18.364  0.00  0.00    +0.000 A 
BRANCH  19  25
ATOM     25  N   UNL     1      -0.344  10.329  20.318  0.00  0.00    +0.000 N 
ATOM     26  H   UNL     1      -1.001   9.772  20.868  0.00  0.00    +0.000 HD
BRANCH  25  27
ATOM     27  S   UNL     1       0.320  11.519  21.339  0.00  0.00    +0.000 S 
ATOM     28  O   UNL     1       1.695  11.773  20.960  0.00  0.00    +0.000 OA
ATOM     29  O   UNL     1      -0.054  11.148  22.685  0.00  0.00    +0.000 OA
BRANCH  27  30
ATOM     30  C   UNL     1      -0.664  12.934  20.846  0.00  0.00    +0.000 C 
BRANCH  30  32
ATOM     31  C   UNL     1      -3.149  12.868  20.404  0.00  0.00    +0.000 C 
ATOM     32  C   UNL     1      -2.057  12.867  21.461  0.00  0.00    +0.000 C 
ENDBRANCH  30  32
ENDBRANCH  27  30
ENDBRANCH  25  27
ENDBRANCH  19  25
ENDBRANCH  18  22
ENDBRANCH   1  18
TORSDOF 14
ENDMDL
MODEL 8
REMARK VINA RESULT:      -6.3      2.624      4.608
REMARK  Name = 
REMARK  15 active torsions:
REMARK  status: ('A' for Active; 'I' for Inactive)
REMARK    1  A    between atoms: C_1  and  C_2
REMARK    2  A    between atoms: C_2  and  C_3
REMARK    3  A    between atoms: C_3  and  S_4
REMARK    4  A    between atoms: S_4  and  N_7
REMARK    5  A    between atoms: N_7  and  C_8
REMARK    6  A    between atoms: C_11  and  C_12
REMARK    7  A    between atoms: C_12  and  C_13
REMARK    8  A    between atoms: C_13  and  N_14
REMARK    9  A    between atoms: N_14  and  C_15
REMARK   10  A    between atoms: C_15  and  C_16
REMARK   11  A    between atoms: C_16  and  O_17
REMARK   12  A    between atoms: C_16  and  C_18
REMARK   13  A    between atoms: C_18  and  O_19
REMARK   14  A    between atoms: O_19  and  C_20
REMARK   15  A    between atoms: C_23  and  O_24
REMARK                            x       y       z     vdW  Elec       q    Type
REMARK                         _______ _______ _______ _____ _____    ______ ____
ROOT
ATOM      1  C   UNL     1       5.164   7.466  17.362  0.00  0.00    +0.000 C 
ENDROOT
BRANCH   1   2
ATOM      2  N   UNL     1       6.245   6.630  16.818  0.00  0.00    +0.000 NA
ATOM      3  H   UNL     1       6.677   7.119  16.033  0.00  0.00    +0.000 HD
BRANCH   2   4
ATOM      4  C   UNL     1       7.281   6.303  17.806  0.00  0.00    +0.000 C 
BRANCH   4   5
ATOM      5  C   UNL     1       7.266   4.848  18.324  0.00  0.00    +0.000 C 
BRANCH   5   6
ATOM      6  O   UNL     1       8.328   4.115  17.698  0.00  0.00    +0.000 OA
ATOM      7  H   UNL     1       9.024   4.743  17.445  0.00  0.00    +0.000 HD
ENDBRANCH   5   6
BRANCH   5   8
ATOM      8  C   UNL     1       5.895   4.209  18.065  0.00  0.00    +0.000 C 
BRANCH   8   9
ATOM      9  O   UNL     1       5.403   3.607  19.266  0.00  0.00    +0.000 OA
BRANCH   9  10
ATOM     10  C   UNL     1       4.083   3.241  19.222  0.00  0.00    +0.000 A 
ATOM     11  C   UNL     1       3.528   3.179  17.942  0.00  0.00    +0.000 A 
ATOM     12  C   UNL     1       2.190   2.821  17.770  0.00  0.00    +0.000 A 
ATOM     13  C   UNL     1       1.419   2.507  18.880  0.00  0.00    +0.000 A 
ATOM     14  C   UNL     1       1.964   2.542  20.159  0.00  0.00    +0.000 A 
ATOM     15  C   UNL     1       3.303   2.906  20.329  0.00  0.00    +0.000 A 
BRANCH  13  16
ATOM     16  O   UNL     1       0.109   2.149  18.770  0.00  0.00    +0.000 OA
ATOM     17  H   UNL     1      -0.294   2.185  19.656  0.00  0.00    +0.000 HD
ENDBRANCH  13  16
ENDBRANCH   9  10
ENDBRANCH   8   9
ENDBRANCH   5   8
ENDBRANCH   4   5
ENDBRANCH   2   4
ENDBRANCH   1   2
BRANCH   1  18
ATOM     18  C   UNL     1       3.773   6.837  17.211  0.00  0.00    +0.000 C 
BRANCH  18  22
ATOM     19  C   UNL     1       1.131   8.122  20.348  0.00  0.00    +0.000 A 
ATOM     20  C   UNL     1       1.263   8.895  19.196  0.00  0.00    +0.000 A 
ATOM     21  C   UNL     1       2.120   8.478  18.178  0.00  0.00    +0.000 A 
ATOM     22  C   UNL     1       2.828   7.274  18.298  0.00  0.00    +0.000 A 
ATOM     23  C   UNL     1       2.656   6.484  19.441  0.00  0.00    +0.000 A 
ATOM     24  C   UNL     1       1.798   6.904  20.459  0.00  0.00    +0.000 A 
BRANCH  19  25
ATOM     25  N   UNL     1       0.267   8.547  21.411  0.00  0.00    +0.000 N 
ATOM     26  H   UNL     1       0.001   7.756  22.003  0.00  0.00    +0.000 HD
BRANCH  25  27
ATOM     27  S   UNL     1       0.916   9.760  22.413  0.00  0.00    +0.000 S 
ATOM     28  O   UNL     1       2.357   9.623  22.472  0.00  0.00    +0.000 OA
ATOM     29  O   UNL     1       0.093   9.783  23.602  0.00  0.00    +0.000 OA
BRANCH  27  30
ATOM     30  C   UNL     1       0.534  11.210  21.431  0.00  0.00    +0.000 C 
BRANCH  30  32
ATOM     31  C   UNL     1      -1.516  12.642  21.782  0.00  0.00    +0.000 C 
ATOM     32  C   UNL     1      -0.970  11.341  21.217  0.00  0.00    +0.000 C 
ENDBRANCH  30  32
ENDBRANCH  27  30
ENDBRANCH  25  27
ENDBRANCH  19  25
ENDBRANCH  18  22
ENDBRANCH   1  18
TORSDOF 14
ENDMDL
MODEL 9
REMARK VINA RESULT:      -6.3      2.284      4.169
REMARK  Name = 
REMARK  15 active torsions:
REMARK  status: ('A' for Active; 'I' for Inactive)
REMARK    1  A    between atoms: C_1  and  C_2
REMARK    2  A    between atoms: C_2  and  C_3
REMARK    3  A    between atoms: C_3  and  S_4
REMARK    4  A    between atoms: S_4  and  N_7
REMARK    5  A    between atoms: N_7  and  C_8
REMARK    6  A    between atoms: C_11  and  C_12
REMARK    7  A    between atoms: C_12  and  C_13
REMARK    8  A    between atoms: C_13  and  N_14
REMARK    9  A    between atoms: N_14  and  C_15
REMARK   10  A    between atoms: C_15  and  C_16
REMARK   11  A    between atoms: C_16  and  O_17
REMARK   12  A    between atoms: C_16  and  C_18
REMARK   13  A    between atoms: C_18  and  O_19
REMARK   14  A    between atoms: O_19  and  C_20
REMARK   15  A    between atoms: C_23  and  O_24
REMARK                            x       y       z     vdW  Elec       q    Type
REMARK                         _______ _______ _______ _____ _____    ______ ____
ROOT
ATOM      1  C   UNL     1       3.868   6.059  19.442  0.00  0.00    +0.000 C 
ENDROOT
BRANCH   1   2
ATOM      2  N   UNL     1       5.139   5.523  18.929  0.00  0.00    +0.000 NA
ATOM      3  H   UNL     1       5.050   4.513  18.816  0.00  0.00    +0.000 HD
BRANCH   2   4
ATOM      4  C   UNL     1       5.544   6.114  17.647  0.00  0.00    +0.000 C 
BRANCH   4   5
ATOM      5  C   UNL     1       6.002   5.107  16.570  0.00  0.00    +0.000 C 
BRANCH   5   6
ATOM      6  O   UNL     1       6.554   5.826  15.458  0.00  0.00    +0.000 OA
ATOM      7  H   UNL     1       6.453   5.281  14.661  0.00  0.00    +0.000 HD
ENDBRANCH   5   6
BRANCH   5   8
ATOM      8  C   UNL     1       4.829   4.211  16.150  0.00  0.00    +0.000 C 
BRANCH   8   9
ATOM      9  O   UNL     1       4.792   3.040  16.970  0.00  0.00    +0.000 OA
BRANCH   9  10
ATOM     10  C   UNL     1       3.649   2.900  17.714  0.00  0.00    +0.000 A 
ATOM     11  C   UNL     1       2.515   3.517  17.180  0.00  0.00    +0.000 A 
ATOM     12  C   UNL     1       1.293   3.446  17.850  0.00  0.00    +0.000 A 
ATOM     13  C   UNL     1       1.207   2.741  19.042  0.00  0.00    +0.000 A 
ATOM     14  C   UNL     1       2.322   2.102  19.573  0.00  0.00    +0.000 A 
ATOM     15  C   UNL     1       3.547   2.179  18.903  0.00  0.00    +0.000 A 
BRANCH  13  16
ATOM     16  O   UNL     1       0.039   2.638  19.735  0.00  0.00    +0.000 OA
ATOM     17  H   UNL     1       0.237   2.277  20.618  0.00  0.00    +0.000 HD
ENDBRANCH  13  16
ENDBRANCH   9  10
ENDBRANCH   8   9
ENDBRANCH   5   8
ENDBRANCH   4   5
ENDBRANCH   2   4
ENDBRANCH   1   2
BRANCH   1  18
ATOM     18  C   UNL     1       2.953   6.611  18.342  0.00  0.00    +0.000 C 
BRANCH  18  22
ATOM     19  C   UNL     1       1.084  10.291  19.543  0.00  0.00    +0.000 A 
ATOM     20  C   UNL     1       1.585  10.161  18.248  0.00  0.00    +0.000 A 
ATOM     21  C   UNL     1       2.192   8.967  17.859  0.00  0.00    +0.000 A 
ATOM     22  C   UNL     1       2.276   7.891  18.754  0.00  0.00    +0.000 A 
ATOM     23  C   UNL     1       1.731   8.018  20.037  0.00  0.00    +0.000 A 
ATOM     24  C   UNL     1       1.125   9.214  20.425  0.00  0.00    +0.000 A 
BRANCH  19  25
ATOM     25  N   UNL     1       0.474  11.519  19.963  0.00  0.00    +0.000 N 
ATOM     26  H   UNL     1       1.033  12.324  19.667  0.00  0.00    +0.000 HD
BRANCH  25  27
ATOM     27  S   UNL     1      -1.117  11.750  19.405  0.00  0.00    +0.000 S 
ATOM     28  O   UNL     1      -1.669  10.483  18.970  0.00  0.00    +0.000 OA
ATOM     29  O   UNL     1      -1.078  12.911  18.544  0.00  0.00    +0.000 OA
BRANCH  27  30
ATOM     30  C   UNL     1      -1.920  12.209  20.941  0.00  0.00    +0.000 C 
BRANCH  30  32
ATOM     31  C   UNL     1      -1.260  11.000  23.056  0.00  0.00    +0.000 C 
ATOM     32  C   UNL     1      -0.940  12.142  22.107  0.00  0.00    +0.000 C 
ENDBRANCH  30  32
ENDBRANCH  27  30
ENDBRANCH  25  27
ENDBRANCH  19  25
ENDBRANCH  18  22
ENDBRANCH   1  18
TORSDOF 14
ENDMDL
