MODEL 1
REMARK VINA RESULT:      -8.8      0.000      0.000
REMARK  Name = 
REMARK  9 active torsions:
REMARK  status: ('A' for Active; 'I' for Inactive)
REMARK    1  A    between atoms: C_1  and  C_2
REMARK    2  A    between atoms: C_2  and  C_3
REMARK    3  A    between atoms: C_2  and  C_4
REMARK    4  A    between atoms: C_2  and  C_6
REMARK    5  A    between atoms: C_4  and  O_5
REMARK    6  A    between atoms: C_6  and  N_7
REMARK    7  A    between atoms: C_9  and  C_10
REMARK    8  A    between atoms: C_15  and  O_16
REMARK    9  A    between atoms: O_16  and  C_17
REMARK                            x       y       z     vdW  Elec       q    Type
REMARK                         _______ _______ _______ _____ _____    ______ ____
ROOT
ATOM      1  N   UNL     1       3.924   4.520  17.229  0.00  0.00    +0.000 N 
ATOM      2  N   UNL     1       3.709   5.816  17.524  0.00  0.00    +0.000 NA
ATOM      3  C   UNL     1       2.796   5.805  18.524  0.00  0.00    +0.000 A 
ATOM      4  C   UNL     1       2.365   4.470  18.788  0.00  0.00    +0.000 A 
ATOM      5  C   UNL     1       1.458   3.797  19.615  0.00  0.00    +0.000 A 
ATOM      6  N   UNL     1       0.544   4.415  20.461  0.00  0.00    +0.000 N 
ATOM      7  N   UNL     1       1.415   2.450  19.574  0.00  0.00    +0.000 NA
ATOM      8  C   UNL     1       2.231   1.803  18.720  0.00  0.00    +0.000 A 
ATOM      9  N   UNL     1       3.105   2.333  17.855  0.00  0.00    +0.000 NA
ATOM     10  C   UNL     1       3.131   3.675  17.947  0.00  0.00    +0.000 A 
ATOM     11  H   UNL     1       0.169   5.281  20.093  0.00  0.00    +0.000 HD
ATOM     12  H   UNL     1      -0.157   3.740  20.749  0.00  0.00    +0.000 HD
ENDROOT
BRANCH   3  13
ATOM     13  C   UNL     1       2.516   7.078  19.213  0.00  0.00    +0.000 A 
ATOM     14  C   UNL     1       2.011   7.012  20.511  0.00  0.00    +0.000 A 
ATOM     15  C   UNL     1       1.121   7.967  20.957  0.00  0.00    +0.000 A 
ATOM     16  C   UNL     1       0.758   9.024  20.133  0.00  0.00    +0.000 A 
ATOM     17  N   UNL     1      -0.415   9.642  20.316  0.00  0.00    +0.000 NA
ATOM     18  C   UNL     1      -0.732  10.593  19.418  0.00  0.00    +0.000 A 
ATOM     19  C   UNL     1       0.188  11.218  18.601  0.00  0.00    +0.000 A 
ATOM     20  C   UNL     1       1.379  10.541  18.391  0.00  0.00    +0.000 A 
ATOM     21  C   UNL     1       1.583   9.308  19.037  0.00  0.00    +0.000 A 
ATOM     22  C   UNL     1       2.434   8.303  18.541  0.00  0.00    +0.000 A 
BRANCH  18  23
ATOM     23  O   UNL     1      -2.066  10.761  19.068  0.00  0.00    +0.000 OA
BRANCH  23  24
ATOM     24  C   UNL     1      -2.240  11.025  17.640  0.00  0.00    +0.000 C 
ATOM     25  C   UNL     1      -2.656   9.803  16.870  0.00  0.00    +0.000 C 
ATOM     26  C   UNL     1      -3.638  10.915  17.078  0.00  0.00    +0.000 C 
ENDBRANCH  23  24
ENDBRANCH  18  23
ENDBRANCH   3  13
BRANCH   1  27
ATOM     27  C   UNL     1       4.783   4.173  16.111  0.00  0.00    +0.000 C 
BRANCH  27  29
ATOM     28  C   UNL     1       7.145   4.525  17.045  0.00  0.00    +0.000 C 
ATOM     29  C   UNL     1       6.134   4.932  15.958  0.00  0.00    +0.000 C 
ATOM     30  C   UNL     1       5.921   6.455  16.032  0.00  0.00    +0.000 C 
BRANCH  29  31
ATOM     31  C   UNL     1       6.716   4.537  14.575  0.00  0.00    +0.000 C 
BRANCH  31  32
ATOM     32  O   UNL     1       7.782   5.384  14.164  0.00  0.00    +0.000 OA
ATOM     33  H   UNL     1       7.724   6.212  14.670  0.00  0.00    +0.000 HD
ENDBRANCH  31  32
ENDBRANCH  29  31
ENDBRANCH  27  29
ENDBRANCH   1  27
TORSDOF 7
ENDMDL
MODEL 2
REMARK VINA RESULT:      -8.6      0.772      1.141
REMARK  Name = 
REMARK  9 active torsions:
REMARK  status: ('A' for Active; 'I' for Inactive)
REMARK    1  A    between atoms: C_1  and  C_2
REMARK    2  A    between atoms: C_2  and  C_3
REMARK    3  A    between atoms: C_2  and  C_4
REMARK    4  A    between atoms: C_2  and  C_6
REMARK    5  A    between atoms: C_4  and  O_5
REMARK    6  A    between atoms: C_6  and  N_7
REMARK    7  A    between atoms: C_9  and  C_10
REMARK    8  A    between atoms: C_15  and  O_16
REMARK    9  A    between atoms: O_16  and  C_17
REMARK                            x       y       z     vdW  Elec       q    Type
REMARK                         _______ _______ _______ _____ _____    ______ ____
ROOT
ATOM      1  N   UNL     1       3.893   4.301  17.154  0.00  0.00    +0.000 N 
ATOM      2  N   UNL     1       3.728   5.610  17.425  0.00  0.00    +0.000 NA
ATOM      3  C   UNL     1       2.835   5.652  18.442  0.00  0.00    +0.000 A 
ATOM      4  C   UNL     1       2.364   4.339  18.743  0.00  0.00    +0.000 A 
ATOM      5  C   UNL     1       1.450   3.716  19.600  0.00  0.00    +0.000 A 
ATOM      6  N   UNL     1       0.575   4.383  20.449  0.00  0.00    +0.000 N 
ATOM      7  N   UNL     1       1.359   2.371  19.590  0.00  0.00    +0.000 NA
ATOM      8  C   UNL     1       2.136   1.678  18.736  0.00  0.00    +0.000 A 
ATOM      9  N   UNL     1       3.011   2.158  17.843  0.00  0.00    +0.000 NA
ATOM     10  C   UNL     1       3.085   3.500  17.905  0.00  0.00    +0.000 A 
ATOM     11  H   UNL     1       0.223   5.253  20.070  0.00  0.00    +0.000 HD
ATOM     12  H   UNL     1      -0.144   3.740  20.765  0.00  0.00    +0.000 HD
ENDROOT
BRANCH   3  13
ATOM     13  C   UNL     1       2.612   6.949  19.107  0.00  0.00    +0.000 A 
ATOM     14  C   UNL     1       2.144   6.928  20.421  0.00  0.00    +0.000 A 
ATOM     15  C   UNL     1       1.296   7.919  20.868  0.00  0.00    +0.000 A 
ATOM     16  C   UNL     1       0.940   8.966  20.030  0.00  0.00    +0.000 A 
ATOM     17  N   UNL     1      -0.209   9.623  20.232  0.00  0.00    +0.000 NA
ATOM     18  C   UNL     1      -0.524  10.563  19.320  0.00  0.00    +0.000 A 
ATOM     19  C   UNL     1       0.389  11.141  18.463  0.00  0.00    +0.000 A 
ATOM     20  C   UNL     1       1.553  10.424  18.236  0.00  0.00    +0.000 A 
ATOM     21  C   UNL     1       1.740   9.201  18.904  0.00  0.00    +0.000 A 
ATOM     22  C   UNL     1       2.546   8.160  18.409  0.00  0.00    +0.000 A 
BRANCH  18  23
ATOM     23  O   UNL     1      -1.863  10.762  19.005  0.00  0.00    +0.000 OA
BRANCH  23  24
ATOM     24  C   UNL     1      -2.258  10.067  17.781  0.00  0.00    +0.000 C 
ATOM     25  C   UNL     1      -3.746  10.068  17.567  0.00  0.00    +0.000 C 
ATOM     26  C   UNL     1      -2.870  10.896  16.676  0.00  0.00    +0.000 C 
ENDBRANCH  23  24
ENDBRANCH  18  23
ENDBRANCH   3  13
BRANCH   1  27
ATOM     27  C   UNL     1       4.718   3.901  16.028  0.00  0.00    +0.000 C 
BRANCH  27  29
ATOM     28  C   UNL     1       5.426   6.285  15.405  0.00  0.00    +0.000 C 
ATOM     29  C   UNL     1       5.893   4.833  15.609  0.00  0.00    +0.000 C 
ATOM     30  C   UNL     1       6.548   4.340  14.306  0.00  0.00    +0.000 C 
BRANCH  29  31
ATOM     31  C   UNL     1       6.921   4.808  16.771  0.00  0.00    +0.000 C 
BRANCH  31  32
ATOM     32  O   UNL     1       6.842   5.959  17.602  0.00  0.00    +0.000 OA
ATOM     33  H   UNL     1       6.328   5.726  18.393  0.00  0.00    +0.000 HD
ENDBRANCH  31  32
ENDBRANCH  29  31
ENDBRANCH  27  29
ENDBRANCH   1  27
TORSDOF 7
ENDMDL
MODEL 3
REMARK VINA RESULT:      -8.5      2.304      3.266
REMARK  Name = 
REMARK  9 active torsions:
REMARK  status: ('A' for Active; 'I' for Inactive)
REMARK    1  A    between atoms: C_1  and  C_2
REMARK    2  A    between atoms: C_2  and  C_3
REMARK    3  A    between atoms: C_2  and  C_4
REMARK    4  A    between atoms: C_2  and  C_6
REMARK    5  A    between atoms: C_4  and  O_5
REMARK    6  A    between atoms: C_6  and  N_7
REMARK    7  A    between atoms: C_9  and  C_10
REMARK    8  A    between atoms: C_15  and  O_16
REMARK    9  A    between atoms: O_16  and  C_17
REMARK                            x       y       z     vdW  Elec       q    Type
REMARK                         _______ _______ _______ _____ _____    ______ ____
ROOT
ATOM      1  N   UNL     1       4.978   5.476  19.095  0.00  0.00    +0.000 N 
ATOM      2  N   UNL     1       4.193   6.533  18.818  0.00  0.00    +0.000 NA
ATOM      3  C   UNL     1       2.949   6.162  19.205  0.00  0.00    +0.000 A 
ATOM      4  C   UNL     1       2.951   4.804  19.643  0.00  0.00    +0.000 A 
ATOM      5  C   UNL     1       2.044   3.842  20.102  0.00  0.00    +0.000 A 
ATOM      6  N   UNL     1       0.665   4.013  20.160  0.00  0.00    +0.000 N 
ATOM      7  N   UNL     1       2.510   2.635  20.479  0.00  0.00    +0.000 NA
ATOM      8  C   UNL     1       3.831   2.392  20.377  0.00  0.00    +0.000 A 
ATOM      9  N   UNL     1       4.786   3.210  19.917  0.00  0.00    +0.000 NA
ATOM     10  C   UNL     1       4.279   4.408  19.574  0.00  0.00    +0.000 A 
ATOM     11  H   UNL     1       0.291   4.572  19.403  0.00  0.00    +0.000 HD
ATOM     12  H   UNL     1       0.219   3.109  20.277  0.00  0.00    +0.000 HD
ENDROOT
BRANCH   3  13
ATOM     13  C   UNL     1       1.899   7.198  19.226  0.00  0.00    +0.000 A 
ATOM     14  C   UNL     1       1.716   7.955  18.069  0.00  0.00    +0.000 A 
ATOM     15  C   UNL     1       1.334   9.276  18.162  0.00  0.00    +0.000 A 
ATOM     16  C   UNL     1       1.085   9.848  19.402  0.00  0.00    +0.000 A 
ATOM     17  N   UNL     1       1.209  11.171  19.566  0.00  0.00    +0.000 NA
ATOM     18  C   UNL     1       1.041  11.633  20.819  0.00  0.00    +0.000 A 
ATOM     19  C   UNL     1       0.395  10.933  21.818  0.00  0.00    +0.000 A 
ATOM     20  C   UNL     1       0.313   9.560  21.648  0.00  0.00    +0.000 A 
ATOM     21  C   UNL     1       0.850   8.986  20.481  0.00  0.00    +0.000 A 
ATOM     22  C   UNL     1       1.311   7.659  20.410  0.00  0.00    +0.000 A 
BRANCH  18  23
ATOM     23  O   UNL     1       1.795  12.724  21.235  0.00  0.00    +0.000 OA
BRANCH  23  24
ATOM     24  C   UNL     1       2.408  13.438  20.116  0.00  0.00    +0.000 C 
ATOM     25  C   UNL     1       1.947  14.865  20.015  0.00  0.00    +0.000 C 
ATOM     26  C   UNL     1       3.352  14.570  20.446  0.00  0.00    +0.000 C 
ENDBRANCH  23  24
ENDBRANCH  18  23
ENDBRANCH   3  13
BRANCH   1  27
ATOM     27  C   UNL     1       6.376   5.499  18.700  0.00  0.00    +0.000 C 
BRANCH  27  29
ATOM     28  C   UNL     1       7.549   7.142  17.120  0.00  0.00    +0.000 C 
ATOM     29  C   UNL     1       6.718   5.850  17.223  0.00  0.00    +0.000 C 
ATOM     30  C   UNL     1       5.437   6.023  16.387  0.00  0.00    +0.000 C 
BRANCH  29  31
ATOM     31  C   UNL     1       7.567   4.676  16.668  0.00  0.00    +0.000 C 
BRANCH  31  32
ATOM     32  O   UNL     1       8.303   4.001  17.680  0.00  0.00    +0.000 OA
ATOM     33  H   UNL     1       7.810   4.077  18.514  0.00  0.00    +0.000 HD
ENDBRANCH  31  32
ENDBRANCH  29  31
ENDBRANCH  27  29
ENDBRANCH   1  27
TORSDOF 7
ENDMDL
MODEL 4
REMARK VINA RESULT:      -8.5      0.922      1.196
REMARK  Name = 
REMARK  9 active torsions:
REMARK  status: ('A' for Active; 'I' for Inactive)
REMARK    1  A    between atoms: C_1  and  C_2
REMARK    2  A    between atoms: C_2  and  C_3
REMARK    3  A    between atoms: C_2  and  C_4
REMARK    4  A    between atoms: C_2  and  C_6
REMARK    5  A    between atoms: C_4  and  O_5
REMARK    6  A    between atoms: C_6  and  N_7
REMARK    7  A    between atoms: C_9  and  C_10
REMARK    8  A    between atoms: C_15  and  O_16
REMARK    9  A    between atoms: O_16  and  C_17
REMARK                            x       y       z     vdW  Elec       q    Type
REMARK                         _______ _______ _______ _____ _____    ______ ____
ROOT
ATOM      1  N   UNL     1       4.084   5.298  17.243  0.00  0.00    +0.000 N 
ATOM      2  N   UNL     1       3.727   6.552  17.578  0.00  0.00    +0.000 NA
ATOM      3  C   UNL     1       2.807   6.408  18.561  0.00  0.00    +0.000 A 
ATOM      4  C   UNL     1       2.519   5.026  18.772  0.00  0.00    +0.000 A 
ATOM      5  C   UNL     1       1.677   4.231  19.559  0.00  0.00    +0.000 A 
ATOM      6  N   UNL     1       0.691   4.719  20.409  0.00  0.00    +0.000 N 
ATOM      7  N   UNL     1       1.779   2.890  19.472  0.00  0.00    +0.000 NA
ATOM      8  C   UNL     1       2.672   2.365  18.611  0.00  0.00    +0.000 A 
ATOM      9  N   UNL     1       3.495   3.015  17.780  0.00  0.00    +0.000 NA
ATOM     10  C   UNL     1       3.376   4.348  17.917  0.00  0.00    +0.000 A 
ATOM     11  H   UNL     1       0.230   5.552  20.064  0.00  0.00    +0.000 HD
ATOM     12  H   UNL     1       0.061   3.963  20.662  0.00  0.00    +0.000 HD
ENDROOT
BRANCH   3  13
ATOM     13  C   UNL     1       2.383   7.620  19.287  0.00  0.00    +0.000 A 
ATOM     14  C   UNL     1       1.757   7.445  20.521  0.00  0.00    +0.000 A 
ATOM     15  C   UNL     1       0.771   8.320  20.926  0.00  0.00    +0.000 A 
ATOM     16  C   UNL     1       0.427   9.404  20.129  0.00  0.00    +0.000 A 
ATOM     17  N   UNL     1      -0.795   9.943  20.226  0.00  0.00    +0.000 NA
ATOM     18  C   UNL     1      -1.079  10.929  19.354  0.00  0.00    +0.000 A 
ATOM     19  C   UNL     1      -0.123  11.653  18.671  0.00  0.00    +0.000 A 
ATOM     20  C   UNL     1       1.122  11.058  18.548  0.00  0.00    +0.000 A 
ATOM     21  C   UNL     1       1.337   9.801  19.141  0.00  0.00    +0.000 A 
ATOM     22  C   UNL     1       2.292   8.877  18.680  0.00  0.00    +0.000 A 
BRANCH  18  23
ATOM     23  O   UNL     1      -2.380  11.044  18.879  0.00  0.00    +0.000 OA
BRANCH  23  24
ATOM     24  C   UNL     1      -2.434  11.191  17.426  0.00  0.00    +0.000 C 
ATOM     25  C   UNL     1      -2.407   9.871  16.707  0.00  0.00    +0.000 C 
ATOM     26  C   UNL     1      -3.668  10.681  16.720  0.00  0.00    +0.000 C 
ENDBRANCH  23  24
ENDBRANCH  18  23
ENDBRANCH   3  13
BRANCH   1  27
ATOM     27  C   UNL     1       4.991   5.085  16.129  0.00  0.00    +0.000 C 
BRANCH  27  29
ATOM     28  C   UNL     1       6.855   6.762  16.663  0.00  0.00    +0.000 C 
ATOM     29  C   UNL     1       6.515   5.289  16.371  0.00  0.00    +0.000 C 
ATOM     30  C   UNL     1       7.333   4.830  15.151  0.00  0.00    +0.000 C 
BRANCH  29  31
ATOM     31  C   UNL     1       6.889   4.444  17.618  0.00  0.00    +0.000 C 
BRANCH  31  32
ATOM     32  O   UNL     1       8.249   4.029  17.615  0.00  0.00    +0.000 OA
ATOM     33  H   UNL     1       8.460   3.675  18.495  0.00  0.00    +0.000 HD
ENDBRANCH  31  32
ENDBRANCH  29  31
ENDBRANCH  27  29
ENDBRANCH   1  27
TORSDOF 7
ENDMDL
MODEL 5
REMARK VINA RESULT:      -8.4      2.590      8.631
REMARK  Name = 
REMARK  9 active torsions:
REMARK  status: ('A' for Active; 'I' for Inactive)
REMARK    1  A    between atoms: C_1  and  C_2
REMARK    2  A    between atoms: C_2  and  C_3
REMARK    3  A    between atoms: C_2  and  C_4
REMARK    4  A    between atoms: C_2  and  C_6
REMARK    5  A    between atoms: C_4  and  O_5
REMARK    6  A    between atoms: C_6  and  N_7
REMARK    7  A    between atoms: C_9  and  C_10
REMARK    8  A    between atoms: C_15  and  O_16
REMARK    9  A    between atoms: O_16  and  C_17
REMARK                            x       y       z     vdW  Elec       q    Type
REMARK                         _______ _______ _______ _____ _____    ______ ____
ROOT
ATOM      1  N   UNL     1      -1.459  11.100  18.143  0.00  0.00    +0.000 N 
ATOM      2  N   UNL     1      -0.359  10.361  17.907  0.00  0.00    +0.000 NA
ATOM      3  C   UNL     1       0.201  10.160  19.123  0.00  0.00    +0.000 A 
ATOM      4  C   UNL     1      -0.520  10.876  20.126  0.00  0.00    +0.000 A 
ATOM      5  C   UNL     1      -0.451  11.124  21.501  0.00  0.00    +0.000 A 
ATOM      6  N   UNL     1       0.586  10.714  22.332  0.00  0.00    +0.000 N 
ATOM      7  N   UNL     1      -1.427  11.850  22.082  0.00  0.00    +0.000 NA
ATOM      8  C   UNL     1      -2.421  12.331  21.310  0.00  0.00    +0.000 A 
ATOM      9  N   UNL     1      -2.573  12.199  19.987  0.00  0.00    +0.000 NA
ATOM     10  C   UNL     1      -1.591  11.449  19.454  0.00  0.00    +0.000 A 
ATOM     11  H   UNL     1       1.495  10.729  21.887  0.00  0.00    +0.000 HD
ATOM     12  H   UNL     1       0.537  11.224  23.208  0.00  0.00    +0.000 HD
ENDROOT
BRANCH   3  13
ATOM     13  C   UNL     1       1.313   9.196  19.217  0.00  0.00    +0.000 A 
ATOM     14  C   UNL     1       2.159   9.078  18.113  0.00  0.00    +0.000 A 
ATOM     15  C   UNL     1       2.721   7.858  17.801  0.00  0.00    +0.000 A 
ATOM     16  C   UNL     1       2.486   6.752  18.607  0.00  0.00    +0.000 A 
ATOM     17  N   UNL     1       2.577   5.520  18.094  0.00  0.00    +0.000 NA
ATOM     18  C   UNL     1       2.244   4.507  18.916  0.00  0.00    +0.000 A 
ATOM     19  C   UNL     1       2.200   4.615  20.291  0.00  0.00    +0.000 A 
ATOM     20  C   UNL     1       2.063   5.897  20.800  0.00  0.00    +0.000 A 
ATOM     21  C   UNL     1       2.015   6.982  19.907  0.00  0.00    +0.000 A 
ATOM     22  C   UNL     1       1.375   8.200  20.198  0.00  0.00    +0.000 A 
BRANCH  18  23
ATOM     23  O   UNL     1       1.628   3.385  18.376  0.00  0.00    +0.000 OA
BRANCH  23  24
ATOM     24  C   UNL     1       2.542   2.580  17.567  0.00  0.00    +0.000 C 
ATOM     25  C   UNL     1       3.986   2.824  17.907  0.00  0.00    +0.000 C 
ATOM     26  C   UNL     1       3.349   1.519  18.277  0.00  0.00    +0.000 C 
ENDBRANCH  23  24
ENDBRANCH  18  23
ENDBRANCH   3  13
BRANCH   1  27
ATOM     27  C   UNL     1      -2.247  11.589  17.025  0.00  0.00    +0.000 C 
BRANCH  27  29
ATOM     28  C   UNL     1      -3.689   9.515  17.463  0.00  0.00    +0.000 C 
ATOM     29  C   UNL     1      -3.483  10.756  16.576  0.00  0.00    +0.000 C 
ATOM     30  C   UNL     1      -3.335  10.295  15.115  0.00  0.00    +0.000 C 
BRANCH  29  31
ATOM     31  C   UNL     1      -4.723  11.677  16.726  0.00  0.00    +0.000 C 
BRANCH  31  32
ATOM     32  O   UNL     1      -4.755  12.358  17.974  0.00  0.00    +0.000 OA
ATOM     33  H   UNL     1      -5.674  12.364  18.291  0.00  0.00    +0.000 HD
ENDBRANCH  31  32
ENDBRANCH  29  31
ENDBRANCH  27  29
ENDBRANCH   1  27
TORSDOF 7
ENDMDL
MODEL 6
REMARK VINA RESULT:      -8.2      0.846      1.194
REMARK  Name = 
REMARK  9 active torsions:
REMARK  status: ('A' for Active; 'I' for Inactive)
REMARK    1  A    between atoms: C_1  and  C_2
REMARK    2  A    between atoms: C_2  and  C_3
REMARK    3  A    between atoms: C_2  and  C_4
REMARK    4  A    between atoms: C_2  and  C_6
REMARK    5  A    between atoms: C_4  and  O_5
REMARK    6  A    between atoms: C_6  and  N_7
REMARK    7  A    between atoms: C_9  and  C_10
REMARK    8  A    between atoms: C_15  and  O_16
REMARK    9  A    between atoms: O_16  and  C_17
REMARK                            x       y       z     vdW  Elec       q    Type
REMARK                         _______ _______ _______ _____ _____    ______ ____
ROOT
ATOM      1  N   UNL     1       3.991   4.381  17.150  0.00  0.00    +0.000 N 
ATOM      2  N   UNL     1       3.769   5.686  17.393  0.00  0.00    +0.000 NA
ATOM      3  C   UNL     1       2.874   5.711  18.409  0.00  0.00    +0.000 A 
ATOM      4  C   UNL     1       2.460   4.385  18.737  0.00  0.00    +0.000 A 
ATOM      5  C   UNL     1       1.573   3.741  19.607  0.00  0.00    +0.000 A 
ATOM      6  N   UNL     1       0.668   4.388  20.442  0.00  0.00    +0.000 N 
ATOM      7  N   UNL     1       1.541   2.393  19.626  0.00  0.00    +0.000 NA
ATOM      8  C   UNL     1       2.349   1.717  18.786  0.00  0.00    +0.000 A 
ATOM      9  N   UNL     1       3.203   2.216  17.884  0.00  0.00    +0.000 NA
ATOM     10  C   UNL     1       3.218   3.561  17.917  0.00  0.00    +0.000 A 
ATOM     11  H   UNL     1       0.279   5.233  20.044  0.00  0.00    +0.000 HD
ATOM     12  H   UNL     1      -0.022   3.720  20.771  0.00  0.00    +0.000 HD
ENDROOT
BRANCH   3  13
ATOM     13  C   UNL     1       2.594   7.011  19.046  0.00  0.00    +0.000 A 
ATOM     14  C   UNL     1       2.252   7.005  20.399  0.00  0.00    +0.000 A 
ATOM     15  C   UNL     1       1.361   7.935  20.890  0.00  0.00    +0.000 A 
ATOM     16  C   UNL     1       0.833   8.910  20.053  0.00  0.00    +0.000 A 
ATOM     17  N   UNL     1      -0.348   9.470  20.341  0.00  0.00    +0.000 NA
ATOM     18  C   UNL     1      -0.832  10.337  19.431  0.00  0.00    +0.000 A 
ATOM     19  C   UNL     1      -0.059  10.956  18.470  0.00  0.00    +0.000 A 
ATOM     20  C   UNL     1       1.141  10.336  18.159  0.00  0.00    +0.000 A 
ATOM     21  C   UNL     1       1.502   9.165  18.849  0.00  0.00    +0.000 A 
ATOM     22  C   UNL     1       2.352   8.180  18.316  0.00  0.00    +0.000 A 
BRANCH  18  23
ATOM     23  O   UNL     1      -2.206  10.402  19.238  0.00  0.00    +0.000 OA
BRANCH  23  24
ATOM     24  C   UNL     1      -2.634  11.693  18.701  0.00  0.00    +0.000 C 
ATOM     25  C   UNL     1      -3.811  11.575  17.773  0.00  0.00    +0.000 C 
ATOM     26  C   UNL     1      -3.992  12.206  19.120  0.00  0.00    +0.000 C 
ENDBRANCH  23  24
ENDBRANCH  18  23
ENDBRANCH   3  13
BRANCH   1  27
ATOM     27  C   UNL     1       4.834   3.994  16.033  0.00  0.00    +0.000 C 
BRANCH  27  29
ATOM     28  C   UNL     1       6.858   4.346  14.500  0.00  0.00    +0.000 C 
ATOM     29  C   UNL     1       6.144   4.797  15.787  0.00  0.00    +0.000 C 
ATOM     30  C   UNL     1       7.118   4.639  16.969  0.00  0.00    +0.000 C 
BRANCH  29  31
ATOM     31  C   UNL     1       5.734   6.285  15.624  0.00  0.00    +0.000 C 
BRANCH  31  32
ATOM     32  O   UNL     1       6.304   7.125  16.620  0.00  0.00    +0.000 OA
ATOM     33  H   UNL     1       5.742   7.914  16.708  0.00  0.00    +0.000 HD
ENDBRANCH  31  32
ENDBRANCH  29  31
ENDBRANCH  27  29
ENDBRANCH   1  27
TORSDOF 7
ENDMDL
MODEL 7
REMARK VINA RESULT:      -8.2      2.352      3.345
REMARK  Name = 
REMARK  9 active torsions:
REMARK  status: ('A' for Active; 'I' for Inactive)
REMARK    1  A    between atoms: C_1  and  C_2
REMARK    2  A    between atoms: C_2  and  C_3
REMARK    3  A    between atoms: C_2  and  C_4
REMARK    4  A    between atoms: C_2  and  C_6
REMARK    5  A    between atoms: C_4  and  O_5
REMARK    6  A    between atoms: C_6  and  N_7
REMARK    7  A    between atoms: C_9  and  C_10
REMARK    8  A    between atoms: C_15  and  O_16
REMARK    9  A    between atoms: O_16  and  C_17
REMARK                            x       y       z     vdW  Elec       q    Type
REMARK                         _______ _______ _______ _____ _____    ______ ____
ROOT
ATOM      1  N   UNL     1       5.006   5.455  19.027  0.00  0.00    +0.000 N 
ATOM      2  N   UNL     1       4.217   6.509  18.748  0.00  0.00    +0.000 NA
ATOM      3  C   UNL     1       2.978   6.143  19.155  0.00  0.00    +0.000 A 
ATOM      4  C   UNL     1       2.985   4.790  19.610  0.00  0.00    +0.000 A 
ATOM      5  C   UNL     1       2.084   3.834  20.092  0.00  0.00    +0.000 A 
ATOM      6  N   UNL     1       0.707   4.006  20.166  0.00  0.00    +0.000 N 
ATOM      7  N   UNL     1       2.556   2.631  20.478  0.00  0.00    +0.000 NA
ATOM      8  C   UNL     1       3.875   2.387  20.362  0.00  0.00    +0.000 A 
ATOM      9  N   UNL     1       4.823   3.199  19.879  0.00  0.00    +0.000 NA
ATOM     10  C   UNL     1       4.312   4.393  19.528  0.00  0.00    +0.000 A 
ATOM     11  H   UNL     1       0.323   4.555  19.407  0.00  0.00    +0.000 HD
ATOM     12  H   UNL     1       0.262   3.103  20.300  0.00  0.00    +0.000 HD
ENDROOT
BRANCH   3  13
ATOM     13  C   UNL     1       1.928   7.179  19.178  0.00  0.00    +0.000 A 
ATOM     14  C   UNL     1       1.747   7.939  18.022  0.00  0.00    +0.000 A 
ATOM     15  C   UNL     1       1.365   9.260  18.117  0.00  0.00    +0.000 A 
ATOM     16  C   UNL     1       1.114   9.829  19.359  0.00  0.00    +0.000 A 
ATOM     17  N   UNL     1       1.239  11.151  19.526  0.00  0.00    +0.000 NA
ATOM     18  C   UNL     1       1.069  11.610  20.780  0.00  0.00    +0.000 A 
ATOM     19  C   UNL     1       0.421  10.908  21.776  0.00  0.00    +0.000 A 
ATOM     20  C   UNL     1       0.340   9.535  21.602  0.00  0.00    +0.000 A 
ATOM     21  C   UNL     1       0.878   8.964  20.435  0.00  0.00    +0.000 A 
ATOM     22  C   UNL     1       1.338   7.637  20.361  0.00  0.00    +0.000 A 
BRANCH  18  23
ATOM     23  O   UNL     1       1.823  12.700  21.199  0.00  0.00    +0.000 OA
BRANCH  23  24
ATOM     24  C   UNL     1       2.472  13.391  20.087  0.00  0.00    +0.000 C 
ATOM     25  C   UNL     1       1.912  14.766  19.851  0.00  0.00    +0.000 C 
ATOM     26  C   UNL     1       3.293  14.617  20.413  0.00  0.00    +0.000 C 
ENDBRANCH  23  24
ENDBRANCH  18  23
ENDBRANCH   3  13
BRANCH   1  27
ATOM     27  C   UNL     1       6.398   5.473  18.614  0.00  0.00    +0.000 C 
BRANCH  27  29
ATOM     28  C   UNL     1       5.440   6.015  16.299  0.00  0.00    +0.000 C 
ATOM     29  C   UNL     1       6.720   5.792  17.125  0.00  0.00    +0.000 C 
ATOM     30  C   UNL     1       7.528   4.651  16.480  0.00  0.00    +0.000 C 
BRANCH  29  31
ATOM     31  C   UNL     1       7.544   7.106  17.116  0.00  0.00    +0.000 C 
BRANCH  31  32
ATOM     32  O   UNL     1       8.115   7.407  18.382  0.00  0.00    +0.000 OA
ATOM     33  H   UNL     1       7.769   6.771  19.030  0.00  0.00    +0.000 HD
ENDBRANCH  31  32
ENDBRANCH  29  31
ENDBRANCH  27  29
ENDBRANCH   1  27
TORSDOF 7
ENDMDL
MODEL 8
REMARK VINA RESULT:      -8.1      2.722      8.592
REMARK  Name = 
REMARK  9 active torsions:
REMARK  status: ('A' for Active; 'I' for Inactive)
REMARK    1  A    between atoms: C_1  and  C_2
REMARK    2  A    between atoms: C_2  and  C_3
REMARK    3  A    between atoms: C_2  and  C_4
REMARK    4  A    between atoms: C_2  and  C_6
REMARK    5  A    between atoms: C_4  and  O_5
REMARK    6  A    between atoms: C_6  and  N_7
REMARK    7  A    between atoms: C_9  and  C_10
REMARK    8  A    between atoms: C_15  and  O_16
REMARK    9  A    between atoms: O_16  and  C_17
REMARK                            x       y       z     vdW  Elec       q    Type
REMARK                         _______ _______ _______ _____ _____    ______ ____
ROOT
ATOM      1  N   UNL     1      -1.692  11.173  17.975  0.00  0.00    +0.000 N 
ATOM      2  N   UNL     1      -0.563  10.465  17.785  0.00  0.00    +0.000 NA
ATOM      3  C   UNL     1       0.014  10.383  19.008  0.00  0.00    +0.000 A 
ATOM      4  C   UNL     1      -0.731  11.142  19.960  0.00  0.00    +0.000 A 
ATOM      5  C   UNL     1      -0.664  11.498  21.311  0.00  0.00    +0.000 A 
ATOM      6  N   UNL     1       0.395  11.197  22.160  0.00  0.00    +0.000 N 
ATOM      7  N   UNL     1      -1.667  12.224  21.844  0.00  0.00    +0.000 NA
ATOM      8  C   UNL     1      -2.685  12.602  21.048  0.00  0.00    +0.000 A 
ATOM      9  N   UNL     1      -2.840  12.362  19.740  0.00  0.00    +0.000 NA
ATOM     10  C   UNL     1      -1.830  11.616  19.257  0.00  0.00    +0.000 A 
ATOM     11  H   UNL     1       1.300  11.217  21.707  0.00  0.00    +0.000 HD
ATOM     12  H   UNL     1       0.330  11.771  22.995  0.00  0.00    +0.000 HD
ENDROOT
BRANCH   3  13
ATOM     13  C   UNL     1       1.167   9.477  19.164  0.00  0.00    +0.000 A 
ATOM     14  C   UNL     1       2.067   9.390  18.102  0.00  0.00    +0.000 A 
ATOM     15  C   UNL     1       2.703   8.197  17.831  0.00  0.00    +0.000 A 
ATOM     16  C   UNL     1       2.487   7.089  18.639  0.00  0.00    +0.000 A 
ATOM     17  N   UNL     1       2.663   5.858  18.145  0.00  0.00    +0.000 NA
ATOM     18  C   UNL     1       2.343   4.838  18.965  0.00  0.00    +0.000 A 
ATOM     19  C   UNL     1       2.231   4.958  20.335  0.00  0.00    +0.000 A 
ATOM     20  C   UNL     1       2.007   6.236  20.821  0.00  0.00    +0.000 A 
ATOM     21  C   UNL     1       1.946   7.308  19.913  0.00  0.00    +0.000 A 
ATOM     22  C   UNL     1       1.233   8.495  20.159  0.00  0.00    +0.000 A 
BRANCH  18  23
ATOM     23  O   UNL     1       1.810   3.681  18.411  0.00  0.00    +0.000 OA
BRANCH  23  24
ATOM     24  C   UNL     1       2.792   2.930  17.631  0.00  0.00    +0.000 C 
ATOM     25  C   UNL     1       4.102   2.766  18.350  0.00  0.00    +0.000 C 
ATOM     26  C   UNL     1       3.211   1.577  18.156  0.00  0.00    +0.000 C 
ENDBRANCH  23  24
ENDBRANCH  18  23
ENDBRANCH   3  13
BRANCH   1  27
ATOM     27  C   UNL     1      -2.508  11.540  16.831  0.00  0.00    +0.000 C 
BRANCH  27  29
ATOM     28  C   UNL     1      -5.065  11.722  16.842  0.00  0.00    +0.000 C 
ATOM     29  C   UNL     1      -3.857  10.794  16.619  0.00  0.00    +0.000 C 
ATOM     30  C   UNL     1      -3.978   9.593  17.574  0.00  0.00    +0.000 C 
BRANCH  29  31
ATOM     31  C   UNL     1      -3.876  10.311  15.144  0.00  0.00    +0.000 C 
BRANCH  31  32
ATOM     32  O   UNL     1      -2.593  10.358  14.533  0.00  0.00    +0.000 OA
ATOM     33  H   UNL     1      -1.934  10.535  15.225  0.00  0.00    +0.000 HD
ENDBRANCH  31  32
ENDBRANCH  29  31
ENDBRANCH  27  29
ENDBRANCH   1  27
TORSDOF 7
ENDMDL
MODEL 9
REMARK VINA RESULT:      -8.1      2.260      3.199
REMARK  Name = 
REMARK  9 active torsions:
REMARK  status: ('A' for Active; 'I' for Inactive)
REMARK    1  A    between atoms: C_1  and  C_2
REMARK    2  A    between atoms: C_2  and  C_3
REMARK    3  A    between atoms: C_2  and  C_4
REMARK    4  A    between atoms: C_2  and  C_6
REMARK    5  A    between atoms: C_4  and  O_5
REMARK    6  A    between atoms: C_6  and  N_7
REMARK    7  A    between atoms: C_9  and  C_10
REMARK    8  A    between atoms: C_15  and  O_16
REMARK    9  A    between atoms: O_16  and  C_17
REMARK                            x       y       z     vdW  Elec       q    Type
REMARK                         _______ _______ _______ _____ _____    ______ ____
ROOT
ATOM      1  N   UNL     1       4.871   5.640  18.213  0.00  0.00    +0.000 N 
ATOM      2  N   UNL     1       3.998   6.647  18.021  0.00  0.00    +0.000 NA
ATOM      3  C   UNL     1       2.923   6.335  18.783  0.00  0.00    +0.000 A 
ATOM      4  C   UNL     1       3.099   5.054  19.388  0.00  0.00    +0.000 A 
ATOM      5  C   UNL     1       2.392   4.168  20.209  0.00  0.00    +0.000 A 
ATOM      6  N   UNL     1       1.076   4.346  20.621  0.00  0.00    +0.000 N 
ATOM      7  N   UNL     1       2.992   3.029  20.607  0.00  0.00    +0.000 NA
ATOM      8  C   UNL     1       4.243   2.774  20.179  0.00  0.00    +0.000 A 
ATOM      9  N   UNL     1       5.001   3.517  19.363  0.00  0.00    +0.000 NA
ATOM     10  C   UNL     1       4.373   4.653  19.011  0.00  0.00    +0.000 A 
ATOM     11  H   UNL     1       0.487   4.789  19.927  0.00  0.00    +0.000 HD
ATOM     12  H   UNL     1       0.715   3.468  20.982  0.00  0.00    +0.000 HD
ENDROOT
BRANCH   3  13
ATOM     13  C   UNL     1       1.878   7.362  18.950  0.00  0.00    +0.000 A 
ATOM     14  C   UNL     1       1.577   8.161  17.847  0.00  0.00    +0.000 A 
ATOM     15  C   UNL     1       1.202   9.475  18.027  0.00  0.00    +0.000 A 
ATOM     16  C   UNL     1       1.079   9.999  19.307  0.00  0.00    +0.000 A 
ATOM     17  N   UNL     1       1.217  11.316  19.506  0.00  0.00    +0.000 NA
ATOM     18  C   UNL     1       1.176  11.730  20.786  0.00  0.00    +0.000 A 
ATOM     19  C   UNL     1       0.636  10.990  21.818  0.00  0.00    +0.000 A 
ATOM     20  C   UNL     1       0.541   9.624  21.606  0.00  0.00    +0.000 A 
ATOM     21  C   UNL     1       0.958   9.097  20.371  0.00  0.00    +0.000 A 
ATOM     22  C   UNL     1       1.412   7.776  20.203  0.00  0.00    +0.000 A 
BRANCH  18  23
ATOM     23  O   UNL     1       1.965  12.810  21.163  0.00  0.00    +0.000 OA
BRANCH  23  24
ATOM     24  C   UNL     1       2.470  13.560  20.015  0.00  0.00    +0.000 C 
ATOM     25  C   UNL     1       1.759  14.870  19.818  0.00  0.00    +0.000 C 
ATOM     26  C   UNL     1       3.180  14.865  20.293  0.00  0.00    +0.000 C 
ENDBRANCH  23  24
ENDBRANCH  18  23
ENDBRANCH   3  13
BRANCH   1  27
ATOM     27  C   UNL     1       6.105   5.607  17.449  0.00  0.00    +0.000 C 
BRANCH  27  29
ATOM     28  C   UNL     1       7.392   5.106  15.289  0.00  0.00    +0.000 C 
ATOM     29  C   UNL     1       6.012   5.391  15.911  0.00  0.00    +0.000 C 
ATOM     30  C   UNL     1       5.407   6.624  15.217  0.00  0.00    +0.000 C 
BRANCH  29  31
ATOM     31  C   UNL     1       5.108   4.150  15.685  0.00  0.00    +0.000 C 
BRANCH  31  32
ATOM     32  O   UNL     1       5.658   2.960  16.235  0.00  0.00    +0.000 OA
ATOM     33  H   UNL     1       6.066   2.453  15.512  0.00  0.00    +0.000 HD
ENDBRANCH  31  32
ENDBRANCH  29  31
ENDBRANCH  27  29
ENDBRANCH   1  27
TORSDOF 7
ENDMDL
