MODEL 1
REMARK VINA RESULT:      -7.9      0.000      0.000
REMARK  Name = 
REMARK  6 active torsions:
REMARK  status: ('A' for Active; 'I' for Inactive)
REMARK    1  A    between atoms: C_1  and  C_2
REMARK    2  A    between atoms: C_2  and  C_3
REMARK    3  A    between atoms: C_3  and  N_4
REMARK    4  A    between atoms: N_14  and  C_15
REMARK    5  A    between atoms: N_16  and  C_17
REMARK    6  A    between atoms: C_17  and  C_18
REMARK                            x       y       z     vdW  Elec       q    Type
REMARK                         _______ _______ _______ _____ _____    ______ ____
ROOT
ATOM      1  N   UNL     1       2.133   8.064  18.093  0.00  0.00    +0.000 N 
ATOM      2  C   UNL     1       3.151   7.194  17.910  0.00  0.00    +0.000 A 
ATOM      3  N   UNL     1       4.448   7.449  17.911  0.00  0.00    +0.000 NA
ATOM      4  C   UNL     1       5.045   6.266  17.603  0.00  0.00    +0.000 A 
ATOM      5  C   UNL     1       4.128   5.285  17.374  0.00  0.00    +0.000 A 
ATOM      6  C   UNL     1       4.496   3.996  16.904  0.00  0.00    +0.000 A 
ATOM      7  O   UNL     1       3.727   3.166  16.433  0.00  0.00    +0.000 OA
ATOM      8  N   UNL     1       5.855   3.783  16.966  0.00  0.00    +0.000 N 
ATOM      9  C   UNL     1       6.824   4.754  17.130  0.00  0.00    +0.000 A 
ATOM     10  O   UNL     1       8.003   4.438  16.949  0.00  0.00    +0.000 OA
ATOM     11  N   UNL     1       6.397   6.030  17.464  0.00  0.00    +0.000 N 
ATOM     12  C   UNL     1       7.358   7.104  17.618  0.00  0.00    +0.000 C 
ATOM     13  N   UNL     1       2.917   5.854  17.659  0.00  0.00    +0.000 N 
ATOM     14  H   UNL     1       1.195   7.768  17.831  0.00  0.00    +0.000 HD
ATOM     15  H   UNL     1       6.183   2.893  16.624  0.00  0.00    +0.000 HD
ENDROOT
BRANCH   1  16
ATOM     16  C   UNL     1       2.381   9.464  17.767  0.00  0.00    +0.000 C 
BRANCH  16  18
ATOM     17  C   UNL     1      -0.060   9.977  18.240  0.00  0.00    +0.000 C 
ATOM     18  C   UNL     1       1.388  10.363  18.506  0.00  0.00    +0.000 C 
ENDBRANCH  16  18
ENDBRANCH   1  16
BRANCH  13  19
ATOM     19  C   UNL     1       1.650   5.152  17.807  0.00  0.00    +0.000 C 
BRANCH  19  20
ATOM     20  C   UNL     1       1.555   4.280  19.039  0.00  0.00    +0.000 A 
ATOM     21  C   UNL     1       1.216   2.919  18.974  0.00  0.00    +0.000 A 
ATOM     22  C   UNL     1       1.301   2.104  20.101  0.00  0.00    +0.000 A 
ATOM     23  C   UNL     1       1.717   2.645  21.308  0.00  0.00    +0.000 A 
ATOM     24  F   UNL     1       1.841   1.852  22.379  0.00  0.00    +0.000 F 
ATOM     25  C   UNL     1       2.035   3.993  21.411  0.00  0.00    +0.000 A 
ATOM     26  C   UNL     1       1.954   4.811  20.281  0.00  0.00    +0.000 A 
ENDBRANCH  19  20
ENDBRANCH  13  19
TORSDOF 4
ENDMDL
MODEL 2
REMARK VINA RESULT:      -7.8      0.215      1.005
REMARK  Name = 
REMARK  6 active torsions:
REMARK  status: ('A' for Active; 'I' for Inactive)
REMARK    1  A    between atoms: C_1  and  C_2
REMARK    2  A    between atoms: C_2  and  C_3
REMARK    3  A    between atoms: C_3  and  N_4
REMARK    4  A    between atoms: N_14  and  C_15
REMARK    5  A    between atoms: N_16  and  C_17
REMARK    6  A    between atoms: C_17  and  C_18
REMARK                            x       y       z     vdW  Elec       q    Type
REMARK                         _______ _______ _______ _____ _____    ______ ____
ROOT
ATOM      1  N   UNL     1       2.152   8.124  18.144  0.00  0.00    +0.000 N 
ATOM      2  C   UNL     1       3.174   7.272  17.911  0.00  0.00    +0.000 A 
ATOM      3  N   UNL     1       4.462   7.554  17.824  0.00  0.00    +0.000 NA
ATOM      4  C   UNL     1       5.064   6.377  17.499  0.00  0.00    +0.000 A 
ATOM      5  C   UNL     1       4.155   5.374  17.347  0.00  0.00    +0.000 A 
ATOM      6  C   UNL     1       4.520   4.084  16.877  0.00  0.00    +0.000 A 
ATOM      7  O   UNL     1       3.740   3.230  16.471  0.00  0.00    +0.000 OA
ATOM      8  N   UNL     1       5.884   3.899  16.854  0.00  0.00    +0.000 N 
ATOM      9  C   UNL     1       6.841   4.893  16.938  0.00  0.00    +0.000 A 
ATOM     10  O   UNL     1       8.012   4.597  16.686  0.00  0.00    +0.000 OA
ATOM     11  N   UNL     1       6.409   6.166  17.276  0.00  0.00    +0.000 N 
ATOM     12  C   UNL     1       7.354   7.262  17.348  0.00  0.00    +0.000 C 
ATOM     13  N   UNL     1       2.953   5.923  17.700  0.00  0.00    +0.000 N 
ATOM     14  H   UNL     1       1.205   7.805  17.949  0.00  0.00    +0.000 HD
ATOM     15  H   UNL     1       6.208   3.010  16.508  0.00  0.00    +0.000 HD
ENDROOT
BRANCH   1  16
ATOM     16  C   UNL     1       2.347   9.523  17.778  0.00  0.00    +0.000 C 
BRANCH  16  18
ATOM     17  C   UNL     1      -0.100  10.025  18.228  0.00  0.00    +0.000 C 
ATOM     18  C   UNL     1       1.344  10.409  18.518  0.00  0.00    +0.000 C 
ENDBRANCH  16  18
ENDBRANCH   1  16
BRANCH  13  19
ATOM     19  C   UNL     1       1.714   5.199  17.942  0.00  0.00    +0.000 C 
BRANCH  19  20
ATOM     20  C   UNL     1       1.742   4.292  19.152  0.00  0.00    +0.000 A 
ATOM     21  C   UNL     1       2.185   4.729  20.411  0.00  0.00    +0.000 A 
ATOM     22  C   UNL     1       2.040   3.926  21.541  0.00  0.00    +0.000 A 
ATOM     23  C   UNL     1       1.461   2.672  21.420  0.00  0.00    +0.000 A 
ATOM     24  F   UNL     1       1.283   1.920  22.513  0.00  0.00    +0.000 F 
ATOM     25  C   UNL     1       1.037   2.200  20.185  0.00  0.00    +0.000 A 
ATOM     26  C   UNL     1       1.176   3.006  19.052  0.00  0.00    +0.000 A 
ENDBRANCH  19  20
ENDBRANCH  13  19
TORSDOF 4
ENDMDL
MODEL 3
REMARK VINA RESULT:      -7.7      2.760      4.969
REMARK  Name = 
REMARK  6 active torsions:
REMARK  status: ('A' for Active; 'I' for Inactive)
REMARK    1  A    between atoms: C_1  and  C_2
REMARK    2  A    between atoms: C_2  and  C_3
REMARK    3  A    between atoms: C_3  and  N_4
REMARK    4  A    between atoms: N_14  and  C_15
REMARK    5  A    between atoms: N_16  and  C_17
REMARK    6  A    between atoms: C_17  and  C_18
REMARK                            x       y       z     vdW  Elec       q    Type
REMARK                         _______ _______ _______ _____ _____    ______ ____
ROOT
ATOM      1  N   UNL     1       2.625   3.749  18.211  0.00  0.00    +0.000 N 
ATOM      2  C   UNL     1       3.678   4.241  17.520  0.00  0.00    +0.000 A 
ATOM      3  N   UNL     1       4.101   3.882  16.320  0.00  0.00    +0.000 NA
ATOM      4  C   UNL     1       5.231   4.611  16.108  0.00  0.00    +0.000 A 
ATOM      5  C   UNL     1       5.533   5.392  17.181  0.00  0.00    +0.000 A 
ATOM      6  C   UNL     1       6.737   6.143  17.259  0.00  0.00    +0.000 A 
ATOM      7  O   UNL     1       7.194   6.648  18.278  0.00  0.00    +0.000 OA
ATOM      8  N   UNL     1       7.402   6.195  16.054  0.00  0.00    +0.000 N 
ATOM      9  C   UNL     1       7.174   5.378  14.963  0.00  0.00    +0.000 A 
ATOM     10  O   UNL     1       7.990   5.399  14.038  0.00  0.00    +0.000 OA
ATOM     11  N   UNL     1       6.049   4.569  14.998  0.00  0.00    +0.000 N 
ATOM     12  C   UNL     1       5.767   3.663  13.902  0.00  0.00    +0.000 C 
ATOM     13  N   UNL     1       4.490   5.227  18.051  0.00  0.00    +0.000 N 
ATOM     14  H   UNL     1       2.566   3.953  19.206  0.00  0.00    +0.000 HD
ATOM     15  H   UNL     1       8.277   6.695  16.049  0.00  0.00    +0.000 HD
ENDROOT
BRANCH   1  16
ATOM     16  C   UNL     1       2.197   2.390  17.901  0.00  0.00    +0.000 C 
BRANCH  16  18
ATOM     17  C   UNL     1       0.799   2.956  19.942  0.00  0.00    +0.000 C 
ATOM     18  C   UNL     1       1.008   1.996  18.779  0.00  0.00    +0.000 C 
ENDBRANCH  16  18
ENDBRANCH   1  16
BRANCH  13  19
ATOM     19  C   UNL     1       4.218   6.032  19.232  0.00  0.00    +0.000 C 
BRANCH  19  20
ATOM     20  C   UNL     1       3.108   7.044  19.061  0.00  0.00    +0.000 A 
ATOM     21  C   UNL     1       2.211   7.360  20.094  0.00  0.00    +0.000 A 
ATOM     22  C   UNL     1       1.310   8.414  19.965  0.00  0.00    +0.000 A 
ATOM     23  C   UNL     1       1.290   9.158  18.794  0.00  0.00    +0.000 A 
ATOM     24  F   UNL     1       0.454  10.198  18.688  0.00  0.00    +0.000 F 
ATOM     25  C   UNL     1       2.147   8.855  17.744  0.00  0.00    +0.000 A 
ATOM     26  C   UNL     1       3.054   7.801  17.875  0.00  0.00    +0.000 A 
ENDBRANCH  19  20
ENDBRANCH  13  19
TORSDOF 4
ENDMDL
MODEL 4
REMARK VINA RESULT:      -7.2      3.100      5.244
REMARK  Name = 
REMARK  6 active torsions:
REMARK  status: ('A' for Active; 'I' for Inactive)
REMARK    1  A    between atoms: C_1  and  C_2
REMARK    2  A    between atoms: C_2  and  C_3
REMARK    3  A    between atoms: C_3  and  N_4
REMARK    4  A    between atoms: N_14  and  C_15
REMARK    5  A    between atoms: N_16  and  C_17
REMARK    6  A    between atoms: C_17  and  C_18
REMARK                            x       y       z     vdW  Elec       q    Type
REMARK                         _______ _______ _______ _____ _____    ______ ____
ROOT
ATOM      1  N   UNL     1       2.841   7.985  17.619  0.00  0.00    +0.000 N 
ATOM      2  C   UNL     1       3.173   6.781  18.136  0.00  0.00    +0.000 A 
ATOM      3  N   UNL     1       2.433   5.990  18.893  0.00  0.00    +0.000 NA
ATOM      4  C   UNL     1       3.243   4.945  19.216  0.00  0.00    +0.000 A 
ATOM      5  C   UNL     1       4.492   5.098  18.696  0.00  0.00    +0.000 A 
ATOM      6  C   UNL     1       5.556   4.210  19.003  0.00  0.00    +0.000 A 
ATOM      7  O   UNL     1       6.744   4.425  18.792  0.00  0.00    +0.000 OA
ATOM      8  N   UNL     1       5.123   3.072  19.646  0.00  0.00    +0.000 N 
ATOM      9  C   UNL     1       3.890   2.897  20.246  0.00  0.00    +0.000 A 
ATOM     10  O   UNL     1       3.727   1.908  20.966  0.00  0.00    +0.000 OA
ATOM     11  N   UNL     1       2.925   3.865  20.014  0.00  0.00    +0.000 N 
ATOM     12  C   UNL     1       1.622   3.762  20.639  0.00  0.00    +0.000 C 
ATOM     13  N   UNL     1       4.424   6.228  17.927  0.00  0.00    +0.000 N 
ATOM     14  H   UNL     1       3.588   8.576  17.259  0.00  0.00    +0.000 HD
ATOM     15  H   UNL     1       5.835   2.411  19.913  0.00  0.00    +0.000 HD
ENDROOT
BRANCH   1  16
ATOM     16  C   UNL     1       1.816   8.754  18.316  0.00  0.00    +0.000 C 
BRANCH  16  18
ATOM     17  C   UNL     1       1.260  11.154  18.928  0.00  0.00    +0.000 C 
ATOM     18  C   UNL     1       1.879  10.223  17.894  0.00  0.00    +0.000 C 
ENDBRANCH  16  18
ENDBRANCH   1  16
BRANCH  13  19
ATOM     19  C   UNL     1       5.423   6.678  16.970  0.00  0.00    +0.000 C 
BRANCH  19  20
ATOM     20  C   UNL     1       5.756   5.675  15.889  0.00  0.00    +0.000 A 
ATOM     21  C   UNL     1       4.774   4.897  15.255  0.00  0.00    +0.000 A 
ATOM     22  C   UNL     1       5.087   4.108  14.150  0.00  0.00    +0.000 A 
ATOM     23  C   UNL     1       6.389   4.080  13.674  0.00  0.00    +0.000 A 
ATOM     24  F   UNL     1       6.679   3.356  12.587  0.00  0.00    +0.000 F 
ATOM     25  C   UNL     1       7.388   4.818  14.296  0.00  0.00    +0.000 A 
ATOM     26  C   UNL     1       7.076   5.613  15.400  0.00  0.00    +0.000 A 
ENDBRANCH  19  20
ENDBRANCH  13  19
TORSDOF 4
ENDMDL
MODEL 5
REMARK VINA RESULT:      -7.2      2.779      5.262
REMARK  Name = 
REMARK  6 active torsions:
REMARK  status: ('A' for Active; 'I' for Inactive)
REMARK    1  A    between atoms: C_1  and  C_2
REMARK    2  A    between atoms: C_2  and  C_3
REMARK    3  A    between atoms: C_3  and  N_4
REMARK    4  A    between atoms: N_14  and  C_15
REMARK    5  A    between atoms: N_16  and  C_17
REMARK    6  A    between atoms: C_17  and  C_18
REMARK                            x       y       z     vdW  Elec       q    Type
REMARK                         _______ _______ _______ _____ _____    ______ ____
ROOT
ATOM      1  N   UNL     1       5.865   6.707  17.863  0.00  0.00    +0.000 N 
ATOM      2  C   UNL     1       4.934   5.788  18.205  0.00  0.00    +0.000 A 
ATOM      3  N   UNL     1       5.108   4.674  18.894  0.00  0.00    +0.000 NA
ATOM      4  C   UNL     1       3.891   4.063  18.898  0.00  0.00    +0.000 A 
ATOM      5  C   UNL     1       2.972   4.771  18.185  0.00  0.00    +0.000 A 
ATOM      6  C   UNL     1       1.666   4.276  17.926  0.00  0.00    +0.000 A 
ATOM      7  O   UNL     1       0.890   4.723  17.090  0.00  0.00    +0.000 OA
ATOM      8  N   UNL     1       1.367   3.164  18.681  0.00  0.00    +0.000 N 
ATOM      9  C   UNL     1       2.274   2.377  19.366  0.00  0.00    +0.000 A 
ATOM     10  O   UNL     1       1.886   1.297  19.816  0.00  0.00    +0.000 OA
ATOM     11  N   UNL     1       3.572   2.852  19.477  0.00  0.00    +0.000 N 
ATOM     12  C   UNL     1       4.583   2.063  20.152  0.00  0.00    +0.000 C 
ATOM     13  N   UNL     1       3.613   5.922  17.817  0.00  0.00    +0.000 N 
ATOM     14  H   UNL     1       5.630   7.381  17.138  0.00  0.00    +0.000 HD
ATOM     15  H   UNL     1       0.461   2.750  18.527  0.00  0.00    +0.000 HD
ENDROOT
BRANCH   1  16
ATOM     16  C   UNL     1       7.249   6.256  17.770  0.00  0.00    +0.000 C 
BRANCH  16  18
ATOM     17  C   UNL     1       8.087   8.650  17.852  0.00  0.00    +0.000 C 
ATOM     18  C   UNL     1       8.179   7.256  18.457  0.00  0.00    +0.000 C 
ENDBRANCH  16  18
ENDBRANCH   1  16
BRANCH  13  19
ATOM     19  C   UNL     1       2.991   7.111  17.253  0.00  0.00    +0.000 C 
BRANCH  19  20
ATOM     20  C   UNL     1       2.309   8.004  18.265  0.00  0.00    +0.000 A 
ATOM     21  C   UNL     1       1.659   9.194  17.902  0.00  0.00    +0.000 A 
ATOM     22  C   UNL     1       0.896   9.906  18.826  0.00  0.00    +0.000 A 
ATOM     23  C   UNL     1       0.785   9.438  20.127  0.00  0.00    +0.000 A 
ATOM     24  F   UNL     1       0.017  10.099  21.002  0.00  0.00    +0.000 F 
ATOM     25  C   UNL     1       1.437   8.278  20.524  0.00  0.00    +0.000 A 
ATOM     26  C   UNL     1       2.198   7.561  19.598  0.00  0.00    +0.000 A 
ENDBRANCH  19  20
ENDBRANCH  13  19
TORSDOF 4
ENDMDL
MODEL 6
REMARK VINA RESULT:      -7.2      3.360      6.315
REMARK  Name = 
REMARK  6 active torsions:
REMARK  status: ('A' for Active; 'I' for Inactive)
REMARK    1  A    between atoms: C_1  and  C_2
REMARK    2  A    between atoms: C_2  and  C_3
REMARK    3  A    between atoms: C_3  and  N_4
REMARK    4  A    between atoms: N_14  and  C_15
REMARK    5  A    between atoms: N_16  and  C_17
REMARK    6  A    between atoms: C_17  and  C_18
REMARK                            x       y       z     vdW  Elec       q    Type
REMARK                         _______ _______ _______ _____ _____    ______ ____
ROOT
ATOM      1  N   UNL     1       2.714   4.040  20.109  0.00  0.00    +0.000 N 
ATOM      2  C   UNL     1       2.490   5.362  19.938  0.00  0.00    +0.000 A 
ATOM      3  N   UNL     1       1.871   6.193  20.757  0.00  0.00    +0.000 NA
ATOM      4  C   UNL     1       1.834   7.383  20.098  0.00  0.00    +0.000 A 
ATOM      5  C   UNL     1       2.393   7.288  18.860  0.00  0.00    +0.000 A 
ATOM      6  C   UNL     1       2.355   8.358  17.926  0.00  0.00    +0.000 A 
ATOM      7  O   UNL     1       2.594   8.263  16.728  0.00  0.00    +0.000 OA
ATOM      8  N   UNL     1       1.942   9.540  18.498  0.00  0.00    +0.000 N 
ATOM      9  C   UNL     1       1.311   9.676  19.720  0.00  0.00    +0.000 A 
ATOM     10  O   UNL     1       0.810  10.768  19.999  0.00  0.00    +0.000 OA
ATOM     11  N   UNL     1       1.265   8.560  20.541  0.00  0.00    +0.000 N 
ATOM     12  C   UNL     1       0.591   8.622  21.821  0.00  0.00    +0.000 C 
ATOM     13  N   UNL     1       2.896   6.018  18.790  0.00  0.00    +0.000 N 
ATOM     14  H   UNL     1       2.989   3.490  19.297  0.00  0.00    +0.000 HD
ATOM     15  H   UNL     1       1.872  10.334  17.880  0.00  0.00    +0.000 HD
ENDROOT
BRANCH   1  16
ATOM     16  C   UNL     1       1.802   3.313  20.984  0.00  0.00    +0.000 C 
BRANCH  16  18
ATOM     17  C   UNL     1       0.985   2.451  18.741  0.00  0.00    +0.000 C 
ATOM     18  C   UNL     1       0.616   2.774  20.182  0.00  0.00    +0.000 C 
ENDBRANCH  16  18
ENDBRANCH   1  16
BRANCH  13  19
ATOM     19  C   UNL     1       3.800   5.506  17.771  0.00  0.00    +0.000 C 
BRANCH  19  20
ATOM     20  C   UNL     1       5.242   5.929  17.940  0.00  0.00    +0.000 A 
ATOM     21  C   UNL     1       5.809   6.980  17.202  0.00  0.00    +0.000 A 
ATOM     22  C   UNL     1       7.084   7.458  17.498  0.00  0.00    +0.000 A 
ATOM     23  C   UNL     1       7.810   6.881  18.530  0.00  0.00    +0.000 A 
ATOM     24  F   UNL     1       9.016   7.369  18.841  0.00  0.00    +0.000 F 
ATOM     25  C   UNL     1       7.287   5.823  19.261  0.00  0.00    +0.000 A 
ATOM     26  C   UNL     1       6.007   5.346  18.969  0.00  0.00    +0.000 A 
ENDBRANCH  19  20
ENDBRANCH  13  19
TORSDOF 4
ENDMDL
MODEL 7
REMARK VINA RESULT:      -7.0      2.990      5.184
REMARK  Name = 
REMARK  6 active torsions:
REMARK  status: ('A' for Active; 'I' for Inactive)
REMARK    1  A    between atoms: C_1  and  C_2
REMARK    2  A    between atoms: C_2  and  C_3
REMARK    3  A    between atoms: C_3  and  N_4
REMARK    4  A    between atoms: N_14  and  C_15
REMARK    5  A    between atoms: N_16  and  C_17
REMARK    6  A    between atoms: C_17  and  C_18
REMARK                            x       y       z     vdW  Elec       q    Type
REMARK                         _______ _______ _______ _____ _____    ______ ____
ROOT
ATOM      1  N   UNL     1       2.820   8.022  18.006  0.00  0.00    +0.000 N 
ATOM      2  C   UNL     1       3.186   6.787  18.417  0.00  0.00    +0.000 A 
ATOM      3  N   UNL     1       2.464   5.908  19.089  0.00  0.00    +0.000 NA
ATOM      4  C   UNL     1       3.304   4.865  19.329  0.00  0.00    +0.000 A 
ATOM      5  C   UNL     1       4.553   5.104  18.843  0.00  0.00    +0.000 A 
ATOM      6  C   UNL     1       5.643   4.226  19.085  0.00  0.00    +0.000 A 
ATOM      7  O   UNL     1       6.826   4.498  18.912  0.00  0.00    +0.000 OA
ATOM      8  N   UNL     1       5.240   3.021  19.616  0.00  0.00    +0.000 N 
ATOM      9  C   UNL     1       4.006   2.753  20.179  0.00  0.00    +0.000 A 
ATOM     10  O   UNL     1       3.868   1.699  20.804  0.00  0.00    +0.000 OA
ATOM     11  N   UNL     1       3.013   3.707  20.021  0.00  0.00    +0.000 N 
ATOM     12  C   UNL     1       1.706   3.506  20.614  0.00  0.00    +0.000 C 
ATOM     13  N   UNL     1       4.457   6.296  18.178  0.00  0.00    +0.000 N 
ATOM     14  H   UNL     1       3.551   8.667  17.712  0.00  0.00    +0.000 HD
ATOM     15  H   UNL     1       5.970   2.362  19.832  0.00  0.00    +0.000 HD
ENDROOT
BRANCH   1  16
ATOM     16  C   UNL     1       1.762   8.692  18.754  0.00  0.00    +0.000 C 
BRANCH  16  18
ATOM     17  C   UNL     1      -0.129  10.373  18.557  0.00  0.00    +0.000 C 
ATOM     18  C   UNL     1       0.899   9.533  17.812  0.00  0.00    +0.000 C 
ENDBRANCH  16  18
ENDBRANCH   1  16
BRANCH  13  19
ATOM     19  C   UNL     1       5.452   6.864  17.280  0.00  0.00    +0.000 C 
BRANCH  19  20
ATOM     20  C   UNL     1       5.779   6.003  16.080  0.00  0.00    +0.000 A 
ATOM     21  C   UNL     1       7.099   5.740  15.681  0.00  0.00    +0.000 A 
ATOM     22  C   UNL     1       7.374   4.811  14.679  0.00  0.00    +0.000 A 
ATOM     23  C   UNL     1       6.328   4.143  14.060  0.00  0.00    +0.000 A 
ATOM     24  F   UNL     1       6.595   3.219  13.129  0.00  0.00    +0.000 F 
ATOM     25  C   UNL     1       5.010   4.400  14.414  0.00  0.00    +0.000 A 
ATOM     26  C   UNL     1       4.734   5.327  15.422  0.00  0.00    +0.000 A 
ENDBRANCH  19  20
ENDBRANCH  13  19
TORSDOF 4
ENDMDL
MODEL 8
REMARK VINA RESULT:      -7.0      3.454      6.475
REMARK  Name = 
REMARK  6 active torsions:
REMARK  status: ('A' for Active; 'I' for Inactive)
REMARK    1  A    between atoms: C_1  and  C_2
REMARK    2  A    between atoms: C_2  and  C_3
REMARK    3  A    between atoms: C_3  and  N_4
REMARK    4  A    between atoms: N_14  and  C_15
REMARK    5  A    between atoms: N_16  and  C_17
REMARK    6  A    between atoms: C_17  and  C_18
REMARK                            x       y       z     vdW  Elec       q    Type
REMARK                         _______ _______ _______ _____ _____    ______ ____
ROOT
ATOM      1  N   UNL     1       5.330   2.978  19.390  0.00  0.00    +0.000 N 
ATOM      2  C   UNL     1       4.780   4.188  19.144  0.00  0.00    +0.000 A 
ATOM      3  N   UNL     1       3.713   4.724  19.710  0.00  0.00    +0.000 NA
ATOM      4  C   UNL     1       3.525   5.908  19.065  0.00  0.00    +0.000 A 
ATOM      5  C   UNL     1       4.445   6.095  18.079  0.00  0.00    +0.000 A 
ATOM      6  C   UNL     1       4.379   7.189  17.176  0.00  0.00    +0.000 A 
ATOM      7  O   UNL     1       5.000   7.279  16.123  0.00  0.00    +0.000 OA
ATOM      8  N   UNL     1       3.468   8.143  17.572  0.00  0.00    +0.000 N 
ATOM      9  C   UNL     1       2.476   7.977  18.519  0.00  0.00    +0.000 A 
ATOM     10  O   UNL     1       1.605   8.845  18.611  0.00  0.00    +0.000 OA
ATOM     11  N   UNL     1       2.516   6.823  19.288  0.00  0.00    +0.000 N 
ATOM     12  C   UNL     1       1.488   6.569  20.277  0.00  0.00    +0.000 C 
ATOM     13  N   UNL     1       5.306   5.037  18.188  0.00  0.00    +0.000 N 
ATOM     14  H   UNL     1       5.999   2.609  18.717  0.00  0.00    +0.000 HD
ATOM     15  H   UNL     1       3.358   8.936  16.960  0.00  0.00    +0.000 HD
ENDROOT
BRANCH   1  16
ATOM     16  C   UNL     1       4.455   1.940  19.923  0.00  0.00    +0.000 C 
BRANCH  16  18
ATOM     17  C   UNL     1       2.087   1.786  19.023  0.00  0.00    +0.000 C 
ATOM     18  C   UNL     1       3.545   1.396  18.821  0.00  0.00    +0.000 C 
ENDBRANCH  16  18
ENDBRANCH   1  16
BRANCH  13  19
ATOM     19  C   UNL     1       6.595   4.905  17.525  0.00  0.00    +0.000 C 
BRANCH  19  20
ATOM     20  C   UNL     1       6.517   4.482  16.076  0.00  0.00    +0.000 A 
ATOM     21  C   UNL     1       5.472   3.687  15.579  0.00  0.00    +0.000 A 
ATOM     22  C   UNL     1       5.334   3.456  14.211  0.00  0.00    +0.000 A 
ATOM     23  C   UNL     1       6.248   4.011  13.327  0.00  0.00    +0.000 A 
ATOM     24  F   UNL     1       6.089   3.824  12.012  0.00  0.00    +0.000 F 
ATOM     25  C   UNL     1       7.307   4.781  13.790  0.00  0.00    +0.000 A 
ATOM     26  C   UNL     1       7.443   5.018  15.159  0.00  0.00    +0.000 A 
ENDBRANCH  19  20
ENDBRANCH  13  19
TORSDOF 4
ENDMDL
MODEL 9
REMARK VINA RESULT:      -7.0      3.498      6.454
REMARK  Name = 
REMARK  6 active torsions:
REMARK  status: ('A' for Active; 'I' for Inactive)
REMARK    1  A    between atoms: C_1  and  C_2
REMARK    2  A    between atoms: C_2  and  C_3
REMARK    3  A    between atoms: C_3  and  N_4
REMARK    4  A    between atoms: N_14  and  C_15
REMARK    5  A    between atoms: N_16  and  C_17
REMARK    6  A    between atoms: C_17  and  C_18
REMARK                            x       y       z     vdW  Elec       q    Type
REMARK                         _______ _______ _______ _____ _____    ______ ____
ROOT
ATOM      1  N   UNL     1       2.196   4.442  20.094  0.00  0.00    +0.000 N 
ATOM      2  C   UNL     1       2.069   5.786  20.020  0.00  0.00    +0.000 A 
ATOM      3  N   UNL     1       1.590   6.608  20.937  0.00  0.00    +0.000 NA
ATOM      4  C   UNL     1       1.599   7.838  20.353  0.00  0.00    +0.000 A 
ATOM      5  C   UNL     1       2.045   7.780  19.067  0.00  0.00    +0.000 A 
ATOM      6  C   UNL     1       2.019   8.907  18.204  0.00  0.00    +0.000 A 
ATOM      7  O   UNL     1       2.152   8.871  16.986  0.00  0.00    +0.000 OA
ATOM      8  N   UNL     1       1.755  10.079  18.877  0.00  0.00    +0.000 N 
ATOM      9  C   UNL     1       1.240  10.184  20.155  0.00  0.00    +0.000 A 
ATOM     10  O   UNL     1       0.856  11.292  20.539  0.00  0.00    +0.000 OA
ATOM     11  N   UNL     1       1.168   9.024  20.910  0.00  0.00    +0.000 N 
ATOM     12  C   UNL     1       0.608   9.056  22.246  0.00  0.00    +0.000 C 
ATOM     13  N   UNL     1       2.433   6.481  18.881  0.00  0.00    +0.000 N 
ATOM     14  H   UNL     1       2.356   3.926  19.232  0.00  0.00    +0.000 HD
ATOM     15  H   UNL     1       1.701  10.914  18.314  0.00  0.00    +0.000 HD
ENDROOT
BRANCH   1  16
ATOM     16  C   UNL     1       1.300   3.734  21.002  0.00  0.00    +0.000 C 
BRANCH  16  18
ATOM     17  C   UNL     1       3.403   2.312  21.041  0.00  0.00    +0.000 C 
ATOM     18  C   UNL     1       2.026   2.550  21.645  0.00  0.00    +0.000 C 
ENDBRANCH  16  18
ENDBRANCH   1  16
BRANCH  13  19
ATOM     19  C   UNL     1       3.205   5.966  17.760  0.00  0.00    +0.000 C 
BRANCH  19  20
ATOM     20  C   UNL     1       4.704   6.070  17.928  0.00  0.00    +0.000 A 
ATOM     21  C   UNL     1       5.486   6.961  17.175  0.00  0.00    +0.000 A 
ATOM     22  C   UNL     1       6.834   7.156  17.469  0.00  0.00    +0.000 A 
ATOM     23  C   UNL     1       7.416   6.454  18.514  0.00  0.00    +0.000 A 
ATOM     24  F   UNL     1       8.700   6.675  18.823  0.00  0.00    +0.000 F 
ATOM     25  C   UNL     1       6.676   5.547  19.261  0.00  0.00    +0.000 A 
ATOM     26  C   UNL     1       5.323   5.354  18.971  0.00  0.00    +0.000 A 
ENDBRANCH  19  20
ENDBRANCH  13  19
TORSDOF 4
ENDMDL
