MODEL 1
REMARK VINA RESULT:      -6.3      0.000      0.000
REMARK  Name = 
REMARK  15 active torsions:
REMARK  status: ('A' for Active; 'I' for Inactive)
REMARK    1  A    between atoms: C_1  and  C_2
REMARK    2  A    between atoms: C_2  and  O_3
REMARK    3  A    between atoms: O_3  and  C_4
REMARK    4  A    between atoms: C_4  and  C_5
REMARK    5  A    between atoms: C_5  and  C_6
REMARK    6  A    between atoms: C_6  and  N_7
REMARK    7  A    between atoms: N_7  and  C_8
REMARK    8  A    between atoms: C_8  and  C_9
REMARK    9  A    between atoms: N_11  and  C_12
REMARK   10  A    between atoms: C_15  and  S_16
REMARK   11  A    between atoms: S_16  and  N_19
REMARK   12  A    between atoms: N_19  and  C_20
REMARK   13  A    between atoms: C_20  and  C_21
REMARK   14  A    between atoms: C_20  and  C_22
REMARK   15  A    between atoms: C_22  and  C_23
REMARK                            x       y       z     vdW  Elec       q    Type
REMARK                         _______ _______ _______ _____ _____    ______ ____
ROOT
ATOM      1  C   UNL     1       2.659   6.579  19.051  0.00  0.00    +0.000 A 
ATOM      2  C   UNL     1       2.609   7.546  18.041  0.00  0.00    +0.000 A 
ATOM      3  C   UNL     1       2.012   8.787  18.254  0.00  0.00    +0.000 A 
ATOM      4  C   UNL     1       1.428   9.069  19.486  0.00  0.00    +0.000 A 
ATOM      5  C   UNL     1       1.466   8.127  20.519  0.00  0.00    +0.000 A 
ATOM      6  C   UNL     1       2.074   6.873  20.293  0.00  0.00    +0.000 A 
ENDROOT
BRANCH   1   9
ATOM      7  C   UNL     1       4.587   5.002  19.059  0.00  0.00    +0.000 C 
ATOM      8  O   UNL     1       5.415   5.709  19.630  0.00  0.00    +0.000 OA
ATOM      9  N   UNL     1       3.249   5.316  18.835  0.00  0.00    +0.000 N 
ATOM     10  H   UNL     1       2.667   4.574  18.465  0.00  0.00    +0.000 HD
BRANCH   7  11
ATOM     11  C   UNL     1       5.002   3.630  18.530  0.00  0.00    +0.000 C 
BRANCH  11  12
ATOM     12  N   UNL     1       5.494   3.704  17.141  0.00  0.00    +0.000 NA
ATOM     13  H   UNL     1       5.670   2.749  16.820  0.00  0.00    +0.000 HD
BRANCH  12  14
ATOM     14  C   UNL     1       6.761   4.450  17.063  0.00  0.00    +0.000 C 
BRANCH  14  15
ATOM     15  C   UNL     1       6.786   5.325  15.811  0.00  0.00    +0.000 C 
BRANCH  15  16
ATOM     16  C   UNL     1       5.768   4.828  14.788  0.00  0.00    +0.000 C 
BRANCH  16  17
ATOM     17  O   UNL     1       6.254   3.629  14.186  0.00  0.00    +0.000 OA
BRANCH  17  19
ATOM     18  C   UNL     1       7.082   3.956  11.961  0.00  0.00    +0.000 C 
ATOM     19  C   UNL     1       5.889   3.559  12.808  0.00  0.00    +0.000 C 
ENDBRANCH  17  19
ENDBRANCH  16  17
ENDBRANCH  15  16
ENDBRANCH  14  15
ENDBRANCH  12  14
ENDBRANCH  11  12
ENDBRANCH   7  11
ENDBRANCH   1   9
BRANCH   4  20
ATOM     20  S   UNL     1       0.650  10.650  19.696  0.00  0.00    +0.000 S 
ATOM     21  O   UNL     1       1.532  11.640  19.114  0.00  0.00    +0.000 OA
ATOM     22  O   UNL     1      -0.740  10.552  19.307  0.00  0.00    +0.000 OA
BRANCH  20  23
ATOM     23  N   UNL     1       0.693  10.914  21.365  0.00  0.00    +0.000 NA
ATOM     24  H   UNL     1       1.158  11.808  21.534  0.00  0.00    +0.000 HD
BRANCH  23  25
ATOM     25  C   UNL     1      -0.518  10.663  22.183  0.00  0.00    +0.000 C 
ATOM     26  C   UNL     1      -0.268   9.652  23.295  0.00  0.00    +0.000 C 
BRANCH  25  27
ATOM     27  C   UNL     1      -1.024  11.999  22.764  0.00  0.00    +0.000 C 
ATOM     28  C   UNL     1      -2.504  12.018  23.131  0.00  0.00    +0.000 C 
ENDBRANCH  25  27
ENDBRANCH  23  25
ENDBRANCH  20  23
ENDBRANCH   4  20
TORSDOF 12
ENDMDL
MODEL 2
REMARK VINA RESULT:      -6.2      2.458      3.507
REMARK  Name = 
REMARK  15 active torsions:
REMARK  status: ('A' for Active; 'I' for Inactive)
REMARK    1  A    between atoms: C_1  and  C_2
REMARK    2  A    between atoms: C_2  and  O_3
REMARK    3  A    between atoms: O_3  and  C_4
REMARK    4  A    between atoms: C_4  and  C_5
REMARK    5  A    between atoms: C_5  and  C_6
REMARK    6  A    between atoms: C_6  and  N_7
REMARK    7  A    between atoms: N_7  and  C_8
REMARK    8  A    between atoms: C_8  and  C_9
REMARK    9  A    between atoms: N_11  and  C_12
REMARK   10  A    between atoms: C_15  and  S_16
REMARK   11  A    between atoms: S_16  and  N_19
REMARK   12  A    between atoms: N_19  and  C_20
REMARK   13  A    between atoms: C_20  and  C_21
REMARK   14  A    between atoms: C_20  and  C_22
REMARK   15  A    between atoms: C_22  and  C_23
REMARK                            x       y       z     vdW  Elec       q    Type
REMARK                         _______ _______ _______ _____ _____    ______ ____
ROOT
ATOM      1  C   UNL     1       2.750   6.713  18.952  0.00  0.00    +0.000 A 
ATOM      2  C   UNL     1       2.100   6.934  20.171  0.00  0.00    +0.000 A 
ATOM      3  C   UNL     1       1.427   8.127  20.428  0.00  0.00    +0.000 A 
ATOM      4  C   UNL     1       1.418   9.134  19.469  0.00  0.00    +0.000 A 
ATOM      5  C   UNL     1       2.053   8.944  18.237  0.00  0.00    +0.000 A 
ATOM      6  C   UNL     1       2.732   7.732  17.986  0.00  0.00    +0.000 A 
ENDROOT
BRANCH   1   9
ATOM      7  C   UNL     1       2.903   4.382  18.090  0.00  0.00    +0.000 C 
ATOM      8  O   UNL     1       1.805   4.304  17.542  0.00  0.00    +0.000 OA
ATOM      9  N   UNL     1       3.445   5.513  18.693  0.00  0.00    +0.000 N 
ATOM     10  H   UNL     1       4.413   5.449  18.986  0.00  0.00    +0.000 HD
BRANCH   7  11
ATOM     11  C   UNL     1       3.812   3.154  18.138  0.00  0.00    +0.000 C 
BRANCH  11  12
ATOM     12  N   UNL     1       5.184   3.470  17.696  0.00  0.00    +0.000 NA
ATOM     13  H   UNL     1       5.483   4.318  18.182  0.00  0.00    +0.000 HD
BRANCH  12  14
ATOM     14  C   UNL     1       5.230   3.735  16.249  0.00  0.00    +0.000 C 
BRANCH  14  15
ATOM     15  C   UNL     1       6.399   4.659  15.915  0.00  0.00    +0.000 C 
BRANCH  15  16
ATOM     16  C   UNL     1       7.254   4.912  17.153  0.00  0.00    +0.000 C 
BRANCH  16  17
ATOM     17  O   UNL     1       6.604   5.872  17.985  0.00  0.00    +0.000 OA
BRANCH  17  19
ATOM     18  C   UNL     1       7.682   7.976  17.589  0.00  0.00    +0.000 C 
ATOM     19  C   UNL     1       6.460   7.123  17.313  0.00  0.00    +0.000 C 
ENDBRANCH  17  19
ENDBRANCH  16  17
ENDBRANCH  15  16
ENDBRANCH  14  15
ENDBRANCH  12  14
ENDBRANCH  11  12
ENDBRANCH   7  11
ENDBRANCH   1   9
BRANCH   4  20
ATOM     20  S   UNL     1       0.578  10.648  19.858  0.00  0.00    +0.000 S 
ATOM     21  O   UNL     1      -0.841  10.397  19.711  0.00  0.00    +0.000 OA
ATOM     22  O   UNL     1       1.127  11.199  21.077  0.00  0.00    +0.000 OA
BRANCH  20  23
ATOM     23  N   UNL     1       0.997  11.691  18.596  0.00  0.00    +0.000 NA
ATOM     24  H   UNL     1       0.351  11.529  17.821  0.00  0.00    +0.000 HD
BRANCH  23  25
ATOM     25  C   UNL     1       1.301  13.114  18.883  0.00  0.00    +0.000 C 
ATOM     26  C   UNL     1       2.519  13.613  18.117  0.00  0.00    +0.000 C 
BRANCH  25  27
ATOM     27  C   UNL     1       0.062  13.972  18.560  0.00  0.00    +0.000 C 
ATOM     28  C   UNL     1      -0.140  15.176  19.475  0.00  0.00    +0.000 C 
ENDBRANCH  25  27
ENDBRANCH  23  25
ENDBRANCH  20  23
ENDBRANCH   4  20
TORSDOF 12
ENDMDL
MODEL 3
REMARK VINA RESULT:      -6.1      2.340      9.622
REMARK  Name = 
REMARK  15 active torsions:
REMARK  status: ('A' for Active; 'I' for Inactive)
REMARK    1  A    between atoms: C_1  and  C_2
REMARK    2  A    between atoms: C_2  and  O_3
REMARK    3  A    between atoms: O_3  and  C_4
REMARK    4  A    between atoms: C_4  and  C_5
REMARK    5  A    between atoms: C_5  and  C_6
REMARK    6  A    between atoms: C_6  and  N_7
REMARK    7  A    between atoms: N_7  and  C_8
REMARK    8  A    between atoms: C_8  and  C_9
REMARK    9  A    between atoms: N_11  and  C_12
REMARK   10  A    between atoms: C_15  and  S_16
REMARK   11  A    between atoms: S_16  and  N_19
REMARK   12  A    between atoms: N_19  and  C_20
REMARK   13  A    between atoms: C_20  and  C_21
REMARK   14  A    between atoms: C_20  and  C_22
REMARK   15  A    between atoms: C_22  and  C_23
REMARK                            x       y       z     vdW  Elec       q    Type
REMARK                         _______ _______ _______ _____ _____    ______ ____
ROOT
ATOM      1  C   UNL     1       1.174   9.434  19.215  0.00  0.00    +0.000 A 
ATOM      2  C   UNL     1       1.283   8.373  20.120  0.00  0.00    +0.000 A 
ATOM      3  C   UNL     1       2.084   7.266  19.849  0.00  0.00    +0.000 A 
ATOM      4  C   UNL     1       2.773   7.193  18.643  0.00  0.00    +0.000 A 
ATOM      5  C   UNL     1       2.693   8.239  17.717  0.00  0.00    +0.000 A 
ATOM      6  C   UNL     1       1.878   9.357  18.002  0.00  0.00    +0.000 A 
ENDROOT
BRANCH   1   9
ATOM      7  C   UNL     1      -0.746  10.940  18.721  0.00  0.00    +0.000 C 
ATOM      8  O   UNL     1      -1.274  10.295  17.818  0.00  0.00    +0.000 OA
ATOM      9  N   UNL     1       0.354  10.550  19.480  0.00  0.00    +0.000 N 
ATOM     10  H   UNL     1       0.588  11.137  20.272  0.00  0.00    +0.000 HD
BRANCH   7  11
ATOM     11  C   UNL     1      -1.313  12.308  19.103  0.00  0.00    +0.000 C 
BRANCH  11  12
ATOM     12  N   UNL     1      -2.380  12.197  20.116  0.00  0.00    +0.000 NA
ATOM     13  H   UNL     1      -3.270  12.093  19.623  0.00  0.00    +0.000 HD
BRANCH  12  14
ATOM     14  C   UNL     1      -2.457  13.411  20.944  0.00  0.00    +0.000 C 
BRANCH  14  15
ATOM     15  C   UNL     1      -2.370  13.050  22.425  0.00  0.00    +0.000 C 
BRANCH  15  16
ATOM     16  C   UNL     1      -0.915  12.964  22.873  0.00  0.00    +0.000 C 
BRANCH  16  17
ATOM     17  O   UNL     1      -0.353  11.735  22.415  0.00  0.00    +0.000 OA
BRANCH  17  19
ATOM     18  C   UNL     1       0.020   9.511  23.229  0.00  0.00    +0.000 C 
ATOM     19  C   UNL     1      -0.998  10.616  23.022  0.00  0.00    +0.000 C 
ENDBRANCH  17  19
ENDBRANCH  16  17
ENDBRANCH  15  16
ENDBRANCH  14  15
ENDBRANCH  12  14
ENDBRANCH  11  12
ENDBRANCH   7  11
ENDBRANCH   1   9
BRANCH   4  20
ATOM     20  S   UNL     1       3.752   5.747  18.327  0.00  0.00    +0.000 S 
ATOM     21  O   UNL     1       4.621   5.564  19.471  0.00  0.00    +0.000 OA
ATOM     22  O   UNL     1       2.893   4.685  17.853  0.00  0.00    +0.000 OA
BRANCH  20  23
ATOM     23  N   UNL     1       4.758   6.198  17.047  0.00  0.00    +0.000 NA
ATOM     24  H   UNL     1       5.125   7.131  17.244  0.00  0.00    +0.000 HD
BRANCH  23  25
ATOM     25  C   UNL     1       5.742   5.230  16.505  0.00  0.00    +0.000 C 
ATOM     26  C   UNL     1       5.668   5.116  14.987  0.00  0.00    +0.000 C 
BRANCH  25  27
ATOM     27  C   UNL     1       7.158   5.641  16.954  0.00  0.00    +0.000 C 
ATOM     28  C   UNL     1       7.273   7.064  17.489  0.00  0.00    +0.000 C 
ENDBRANCH  25  27
ENDBRANCH  23  25
ENDBRANCH  20  23
ENDBRANCH   4  20
TORSDOF 12
ENDMDL
MODEL 4
REMARK VINA RESULT:      -6.1      2.300      3.364
REMARK  Name = 
REMARK  15 active torsions:
REMARK  status: ('A' for Active; 'I' for Inactive)
REMARK    1  A    between atoms: C_1  and  C_2
REMARK    2  A    between atoms: C_2  and  O_3
REMARK    3  A    between atoms: O_3  and  C_4
REMARK    4  A    between atoms: C_4  and  C_5
REMARK    5  A    between atoms: C_5  and  C_6
REMARK    6  A    between atoms: C_6  and  N_7
REMARK    7  A    between atoms: N_7  and  C_8
REMARK    8  A    between atoms: C_8  and  C_9
REMARK    9  A    between atoms: N_11  and  C_12
REMARK   10  A    between atoms: C_15  and  S_16
REMARK   11  A    between atoms: S_16  and  N_19
REMARK   12  A    between atoms: N_19  and  C_20
REMARK   13  A    between atoms: C_20  and  C_21
REMARK   14  A    between atoms: C_20  and  C_22
REMARK   15  A    between atoms: C_22  and  C_23
REMARK                            x       y       z     vdW  Elec       q    Type
REMARK                         _______ _______ _______ _____ _____    ______ ____
ROOT
ATOM      1  C   UNL     1       2.443   7.024  19.238  0.00  0.00    +0.000 A 
ATOM      2  C   UNL     1       1.886   7.264  20.499  0.00  0.00    +0.000 A 
ATOM      3  C   UNL     1       1.180   8.434  20.770  0.00  0.00    +0.000 A 
ATOM      4  C   UNL     1       1.042   9.401  19.780  0.00  0.00    +0.000 A 
ATOM      5  C   UNL     1       1.581   9.191  18.506  0.00  0.00    +0.000 A 
ATOM      6  C   UNL     1       2.294   8.002  18.241  0.00  0.00    +0.000 A 
ENDROOT
BRANCH   1   9
ATOM      7  C   UNL     1       2.667   4.719  18.323  0.00  0.00    +0.000 C 
ATOM      8  O   UNL     1       1.582   4.629  17.752  0.00  0.00    +0.000 OA
ATOM      9  N   UNL     1       3.170   5.847  18.963  0.00  0.00    +0.000 N 
ATOM     10  H   UNL     1       4.134   5.799  19.273  0.00  0.00    +0.000 HD
BRANCH   7  11
ATOM     11  C   UNL     1       3.604   3.512  18.359  0.00  0.00    +0.000 C 
BRANCH  11  12
ATOM     12  N   UNL     1       4.918   3.819  17.762  0.00  0.00    +0.000 NA
ATOM     13  H   UNL     1       5.268   4.675  18.199  0.00  0.00    +0.000 HD
BRANCH  12  14
ATOM     14  C   UNL     1       4.802   4.063  16.315  0.00  0.00    +0.000 C 
BRANCH  14  15
ATOM     15  C   UNL     1       6.167   3.928  15.642  0.00  0.00    +0.000 C 
BRANCH  15  16
ATOM     16  C   UNL     1       7.073   5.093  16.029  0.00  0.00    +0.000 C 
BRANCH  16  17
ATOM     17  O   UNL     1       7.787   4.758  17.219  0.00  0.00    +0.000 OA
BRANCH  17  19
ATOM     18  C   UNL     1       7.411   7.105  17.529  0.00  0.00    +0.000 C 
ATOM     19  C   UNL     1       7.636   5.771  18.213  0.00  0.00    +0.000 C 
ENDBRANCH  17  19
ENDBRANCH  16  17
ENDBRANCH  15  16
ENDBRANCH  14  15
ENDBRANCH  12  14
ENDBRANCH  11  12
ENDBRANCH   7  11
ENDBRANCH   1   9
BRANCH   4  20
ATOM     20  S   UNL     1       0.166  10.890  20.184  0.00  0.00    +0.000 S 
ATOM     21  O   UNL     1      -0.255  11.489  18.935  0.00  0.00    +0.000 OA
ATOM     22  O   UNL     1      -0.777  10.615  21.246  0.00  0.00    +0.000 OA
BRANCH  20  23
ATOM     23  N   UNL     1       1.354  11.913  20.812  0.00  0.00    +0.000 NA
ATOM     24  H   UNL     1       2.249  11.421  20.779  0.00  0.00    +0.000 HD
BRANCH  23  25
ATOM     25  C   UNL     1       1.398  13.337  20.397  0.00  0.00    +0.000 C 
ATOM     26  C   UNL     1       1.196  14.289  21.569  0.00  0.00    +0.000 C 
BRANCH  25  27
ATOM     27  C   UNL     1       2.738  13.618  19.689  0.00  0.00    +0.000 C 
ATOM     28  C   UNL     1       2.750  13.309  18.195  0.00  0.00    +0.000 C 
ENDBRANCH  25  27
ENDBRANCH  23  25
ENDBRANCH  20  23
ENDBRANCH   4  20
TORSDOF 12
ENDMDL
MODEL 5
REMARK VINA RESULT:      -6.1      2.592      4.340
REMARK  Name = 
REMARK  15 active torsions:
REMARK  status: ('A' for Active; 'I' for Inactive)
REMARK    1  A    between atoms: C_1  and  C_2
REMARK    2  A    between atoms: C_2  and  O_3
REMARK    3  A    between atoms: O_3  and  C_4
REMARK    4  A    between atoms: C_4  and  C_5
REMARK    5  A    between atoms: C_5  and  C_6
REMARK    6  A    between atoms: C_6  and  N_7
REMARK    7  A    between atoms: N_7  and  C_8
REMARK    8  A    between atoms: C_8  and  C_9
REMARK    9  A    between atoms: N_11  and  C_12
REMARK   10  A    between atoms: C_15  and  S_16
REMARK   11  A    between atoms: S_16  and  N_19
REMARK   12  A    between atoms: N_19  and  C_20
REMARK   13  A    between atoms: C_20  and  C_21
REMARK   14  A    between atoms: C_20  and  C_22
REMARK   15  A    between atoms: C_22  and  C_23
REMARK                            x       y       z     vdW  Elec       q    Type
REMARK                         _______ _______ _______ _____ _____    ______ ____
ROOT
ATOM      1  C   UNL     1       2.384   7.048  18.713  0.00  0.00    +0.000 A 
ATOM      2  C   UNL     1       2.113   7.040  20.085  0.00  0.00    +0.000 A 
ATOM      3  C   UNL     1       1.512   8.129  20.712  0.00  0.00    +0.000 A 
ATOM      4  C   UNL     1       1.194   9.263  19.971  0.00  0.00    +0.000 A 
ATOM      5  C   UNL     1       1.445   9.302  18.595  0.00  0.00    +0.000 A 
ATOM      6  C   UNL     1       2.055   8.193  17.969  0.00  0.00    +0.000 A 
ENDROOT
BRANCH   1   9
ATOM      7  C   UNL     1       4.266   5.973  17.487  0.00  0.00    +0.000 C 
ATOM      8  O   UNL     1       5.096   6.877  17.572  0.00  0.00    +0.000 OA
ATOM      9  N   UNL     1       3.006   5.954  18.076  0.00  0.00    +0.000 N 
ATOM     10  H   UNL     1       2.493   5.082  18.017  0.00  0.00    +0.000 HD
BRANCH   7  11
ATOM     11  C   UNL     1       4.595   4.720  16.677  0.00  0.00    +0.000 C 
BRANCH  11  12
ATOM     12  N   UNL     1       4.810   3.546  17.545  0.00  0.00    +0.000 NA
ATOM     13  H   UNL     1       5.547   2.976  17.123  0.00  0.00    +0.000 HD
BRANCH  12  14
ATOM     14  C   UNL     1       3.594   2.721  17.638  0.00  0.00    +0.000 C 
BRANCH  14  15
ATOM     15  C   UNL     1       3.741   1.684  18.749  0.00  0.00    +0.000 C 
BRANCH  15  16
ATOM     16  C   UNL     1       4.002   2.364  20.089  0.00  0.00    +0.000 C 
BRANCH  16  17
ATOM     17  O   UNL     1       3.317   3.616  20.121  0.00  0.00    +0.000 OA
BRANCH  17  19
ATOM     18  C   UNL     1       0.938   3.555  20.409  0.00  0.00    +0.000 C 
ATOM     19  C   UNL     1       2.284   3.613  21.105  0.00  0.00    +0.000 C 
ENDBRANCH  17  19
ENDBRANCH  16  17
ENDBRANCH  15  16
ENDBRANCH  14  15
ENDBRANCH  12  14
ENDBRANCH  11  12
ENDBRANCH   7  11
ENDBRANCH   1   9
BRANCH   4  20
ATOM     20  S   UNL     1       0.462  10.637  20.822  0.00  0.00    +0.000 S 
ATOM     21  O   UNL     1      -0.840  10.861  20.228  0.00  0.00    +0.000 OA
ATOM     22  O   UNL     1       0.622  10.456  22.247  0.00  0.00    +0.000 OA
BRANCH  20  23
ATOM     23  N   UNL     1       1.412  11.959  20.368  0.00  0.00    +0.000 NA
ATOM     24  H   UNL     1       1.890  11.724  19.495  0.00  0.00    +0.000 HD
BRANCH  23  25
ATOM     25  C   UNL     1       0.850  13.330  20.433  0.00  0.00    +0.000 C 
ATOM     26  C   UNL     1       1.650  14.242  21.355  0.00  0.00    +0.000 C 
BRANCH  25  27
ATOM     27  C   UNL     1       0.779  13.918  19.010  0.00  0.00    +0.000 C 
ATOM     28  C   UNL     1      -0.455  13.512  18.209  0.00  0.00    +0.000 C 
ENDBRANCH  25  27
ENDBRANCH  23  25
ENDBRANCH  20  23
ENDBRANCH   4  20
TORSDOF 12
ENDMDL
MODEL 6
REMARK VINA RESULT:      -6.1      2.764      4.528
REMARK  Name = 
REMARK  15 active torsions:
REMARK  status: ('A' for Active; 'I' for Inactive)
REMARK    1  A    between atoms: C_1  and  C_2
REMARK    2  A    between atoms: C_2  and  O_3
REMARK    3  A    between atoms: O_3  and  C_4
REMARK    4  A    between atoms: C_4  and  C_5
REMARK    5  A    between atoms: C_5  and  C_6
REMARK    6  A    between atoms: C_6  and  N_7
REMARK    7  A    between atoms: N_7  and  C_8
REMARK    8  A    between atoms: C_8  and  C_9
REMARK    9  A    between atoms: N_11  and  C_12
REMARK   10  A    between atoms: C_15  and  S_16
REMARK   11  A    between atoms: S_16  and  N_19
REMARK   12  A    between atoms: N_19  and  C_20
REMARK   13  A    between atoms: C_20  and  C_21
REMARK   14  A    between atoms: C_20  and  C_22
REMARK   15  A    between atoms: C_22  and  C_23
REMARK                            x       y       z     vdW  Elec       q    Type
REMARK                         _______ _______ _______ _____ _____    ______ ____
ROOT
ATOM      1  C   UNL     1       2.598   7.184  18.649  0.00  0.00    +0.000 A 
ATOM      2  C   UNL     1       2.285   8.186  17.723  0.00  0.00    +0.000 A 
ATOM      3  C   UNL     1       1.552   9.311  18.091  0.00  0.00    +0.000 A 
ATOM      4  C   UNL     1       1.093   9.439  19.398  0.00  0.00    +0.000 A 
ATOM      5  C   UNL     1       1.392   8.459  20.351  0.00  0.00    +0.000 A 
ATOM      6  C   UNL     1       2.137   7.323  19.969  0.00  0.00    +0.000 A 
ENDROOT
BRANCH   1   9
ATOM      7  C   UNL     1       4.545   6.039  17.602  0.00  0.00    +0.000 C 
ATOM      8  O   UNL     1       5.250   7.020  17.375  0.00  0.00    +0.000 OA
ATOM      9  N   UNL     1       3.328   6.037  18.278  0.00  0.00    +0.000 N 
ATOM     10  H   UNL     1       2.933   5.129  18.496  0.00  0.00    +0.000 HD
BRANCH   7  11
ATOM     11  C   UNL     1       4.998   4.657  17.131  0.00  0.00    +0.000 C 
BRANCH  11  12
ATOM     12  N   UNL     1       4.673   3.607  18.116  0.00  0.00    +0.000 NA
ATOM     13  H   UNL     1       5.550   3.178  18.417  0.00  0.00    +0.000 HD
BRANCH  12  14
ATOM     14  C   UNL     1       3.834   2.556  17.517  0.00  0.00    +0.000 C 
BRANCH  14  15
ATOM     15  C   UNL     1       3.170   1.720  18.609  0.00  0.00    +0.000 C 
BRANCH  15  16
ATOM     16  C   UNL     1       1.745   2.202  18.864  0.00  0.00    +0.000 C 
BRANCH  16  17
ATOM     17  O   UNL     1       1.770   3.591  19.191  0.00  0.00    +0.000 OA
BRANCH  17  19
ATOM     18  C   UNL     1       2.036   3.545  21.572  0.00  0.00    +0.000 C 
ATOM     19  C   UNL     1       1.094   3.842  20.422  0.00  0.00    +0.000 C 
ENDBRANCH  17  19
ENDBRANCH  16  17
ENDBRANCH  15  16
ENDBRANCH  14  15
ENDBRANCH  12  14
ENDBRANCH  11  12
ENDBRANCH   7  11
ENDBRANCH   1   9
BRANCH   4  20
ATOM     20  S   UNL     1       0.132  10.873  19.809  0.00  0.00    +0.000 S 
ATOM     21  O   UNL     1      -0.528  11.304  18.594  0.00  0.00    +0.000 OA
ATOM     22  O   UNL     1      -0.611  10.617  21.023  0.00  0.00    +0.000 OA
BRANCH  20  23
ATOM     23  N   UNL     1       1.284  12.058  20.157  0.00  0.00    +0.000 NA
ATOM     24  H   UNL     1       2.180  11.594  20.320  0.00  0.00    +0.000 HD
BRANCH  23  25
ATOM     25  C   UNL     1       1.349  13.290  19.334  0.00  0.00    +0.000 C 
ATOM     26  C   UNL     1       1.435  14.552  20.183  0.00  0.00    +0.000 C 
BRANCH  25  27
ATOM     27  C   UNL     1       2.550  13.195  18.372  0.00  0.00    +0.000 C 
ATOM     28  C   UNL     1       3.190  14.532  18.012  0.00  0.00    +0.000 C 
ENDBRANCH  25  27
ENDBRANCH  23  25
ENDBRANCH  20  23
ENDBRANCH   4  20
TORSDOF 12
ENDMDL
MODEL 7
REMARK VINA RESULT:      -6.1      1.708      2.547
REMARK  Name = 
REMARK  15 active torsions:
REMARK  status: ('A' for Active; 'I' for Inactive)
REMARK    1  A    between atoms: C_1  and  C_2
REMARK    2  A    between atoms: C_2  and  O_3
REMARK    3  A    between atoms: O_3  and  C_4
REMARK    4  A    between atoms: C_4  and  C_5
REMARK    5  A    between atoms: C_5  and  C_6
REMARK    6  A    between atoms: C_6  and  N_7
REMARK    7  A    between atoms: N_7  and  C_8
REMARK    8  A    between atoms: C_8  and  C_9
REMARK    9  A    between atoms: N_11  and  C_12
REMARK   10  A    between atoms: C_15  and  S_16
REMARK   11  A    between atoms: S_16  and  N_19
REMARK   12  A    between atoms: N_19  and  C_20
REMARK   13  A    between atoms: C_20  and  C_21
REMARK   14  A    between atoms: C_20  and  C_22
REMARK   15  A    between atoms: C_22  and  C_23
REMARK                            x       y       z     vdW  Elec       q    Type
REMARK                         _______ _______ _______ _____ _____    ______ ____
ROOT
ATOM      1  C   UNL     1       2.543   7.383  18.477  0.00  0.00    +0.000 A 
ATOM      2  C   UNL     1       2.081   7.509  19.791  0.00  0.00    +0.000 A 
ATOM      3  C   UNL     1       1.402   8.649  20.216  0.00  0.00    +0.000 A 
ATOM      4  C   UNL     1       1.198   9.701  19.329  0.00  0.00    +0.000 A 
ATOM      5  C   UNL     1       1.642   9.606  18.006  0.00  0.00    +0.000 A 
ATOM      6  C   UNL     1       2.328   8.447  17.585  0.00  0.00    +0.000 A 
ENDROOT
BRANCH   1   9
ATOM      7  C   UNL     1       2.869   4.921  18.300  0.00  0.00    +0.000 C 
ATOM      8  O   UNL     1       1.801   4.548  18.782  0.00  0.00    +0.000 OA
ATOM      9  N   UNL     1       3.243   6.237  18.046  0.00  0.00    +0.000 N 
ATOM     10  H   UNL     1       4.103   6.371  17.527  0.00  0.00    +0.000 HD
BRANCH   7  11
ATOM     11  C   UNL     1       3.925   3.887  17.911  0.00  0.00    +0.000 C 
BRANCH  11  12
ATOM     12  N   UNL     1       4.387   4.070  16.522  0.00  0.00    +0.000 NA
ATOM     13  H   UNL     1       3.711   3.614  15.905  0.00  0.00    +0.000 HD
BRANCH  12  14
ATOM     14  C   UNL     1       5.697   3.434  16.308  0.00  0.00    +0.000 C 
BRANCH  14  15
ATOM     15  C   UNL     1       6.819   4.453  16.502  0.00  0.00    +0.000 C 
BRANCH  15  16
ATOM     16  C   UNL     1       6.465   5.776  15.829  0.00  0.00    +0.000 C 
BRANCH  16  17
ATOM     17  O   UNL     1       6.003   6.697  16.816  0.00  0.00    +0.000 OA
BRANCH  17  19
ATOM     18  C   UNL     1       7.868   7.970  17.622  0.00  0.00    +0.000 C 
ATOM     19  C   UNL     1       6.933   6.807  17.893  0.00  0.00    +0.000 C 
ENDBRANCH  17  19
ENDBRANCH  16  17
ENDBRANCH  15  16
ENDBRANCH  14  15
ENDBRANCH  12  14
ENDBRANCH  11  12
ENDBRANCH   7  11
ENDBRANCH   1   9
BRANCH   4  20
ATOM     20  S   UNL     1       0.360  11.146  19.927  0.00  0.00    +0.000 S 
ATOM     21  O   UNL     1       1.159  12.291  19.541  0.00  0.00    +0.000 OA
ATOM     22  O   UNL     1      -1.044  11.056  19.594  0.00  0.00    +0.000 OA
BRANCH  20  23
ATOM     23  N   UNL     1       0.492  11.035  21.608  0.00  0.00    +0.000 NA
ATOM     24  H   UNL     1       1.012  11.849  21.942  0.00  0.00    +0.000 HD
BRANCH  23  25
ATOM     25  C   UNL     1      -0.694  10.665  22.419  0.00  0.00    +0.000 C 
ATOM     26  C   UNL     1      -0.379   9.587  23.448  0.00  0.00    +0.000 C 
BRANCH  25  27
ATOM     27  C   UNL     1      -1.255  11.927  23.103  0.00  0.00    +0.000 C 
ATOM     28  C   UNL     1      -2.757  12.134  22.933  0.00  0.00    +0.000 C 
ENDBRANCH  25  27
ENDBRANCH  23  25
ENDBRANCH  20  23
ENDBRANCH   4  20
TORSDOF 12
ENDMDL
MODEL 8
REMARK VINA RESULT:      -6.1      2.234      4.007
REMARK  Name = 
REMARK  15 active torsions:
REMARK  status: ('A' for Active; 'I' for Inactive)
REMARK    1  A    between atoms: C_1  and  C_2
REMARK    2  A    between atoms: C_2  and  O_3
REMARK    3  A    between atoms: O_3  and  C_4
REMARK    4  A    between atoms: C_4  and  C_5
REMARK    5  A    between atoms: C_5  and  C_6
REMARK    6  A    between atoms: C_6  and  N_7
REMARK    7  A    between atoms: N_7  and  C_8
REMARK    8  A    between atoms: C_8  and  C_9
REMARK    9  A    between atoms: N_11  and  C_12
REMARK   10  A    between atoms: C_15  and  S_16
REMARK   11  A    between atoms: S_16  and  N_19
REMARK   12  A    between atoms: N_19  and  C_20
REMARK   13  A    between atoms: C_20  and  C_21
REMARK   14  A    between atoms: C_20  and  C_22
REMARK   15  A    between atoms: C_22  and  C_23
REMARK                            x       y       z     vdW  Elec       q    Type
REMARK                         _______ _______ _______ _____ _____    ______ ____
ROOT
ATOM      1  C   UNL     1       2.722   7.209  18.658  0.00  0.00    +0.000 A 
ATOM      2  C   UNL     1       2.509   8.129  17.625  0.00  0.00    +0.000 A 
ATOM      3  C   UNL     1       1.747   9.278  17.822  0.00  0.00    +0.000 A 
ATOM      4  C   UNL     1       1.159   9.512  19.062  0.00  0.00    +0.000 A 
ATOM      5  C   UNL     1       1.357   8.616  20.118  0.00  0.00    +0.000 A 
ATOM      6  C   UNL     1       2.131   7.455  19.908  0.00  0.00    +0.000 A 
ENDROOT
BRANCH   1   9
ATOM      7  C   UNL     1       4.727   5.979  17.842  0.00  0.00    +0.000 C 
ATOM      8  O   UNL     1       5.431   6.937  17.530  0.00  0.00    +0.000 OA
ATOM      9  N   UNL     1       3.481   6.038  18.459  0.00  0.00    +0.000 N 
ATOM     10  H   UNL     1       3.087   5.156  18.767  0.00  0.00    +0.000 HD
BRANCH   7  11
ATOM     11  C   UNL     1       5.216   4.559  17.560  0.00  0.00    +0.000 C 
BRANCH  11  12
ATOM     12  N   UNL     1       4.156   3.721  16.967  0.00  0.00    +0.000 NA
ATOM     13  H   UNL     1       3.370   4.330  16.733  0.00  0.00    +0.000 HD
BRANCH  12  14
ATOM     14  C   UNL     1       3.679   2.709  17.923  0.00  0.00    +0.000 C 
BRANCH  14  15
ATOM     15  C   UNL     1       2.172   2.509  17.777  0.00  0.00    +0.000 C 
BRANCH  15  16
ATOM     16  C   UNL     1       1.441   3.010  19.018  0.00  0.00    +0.000 C 
BRANCH  16  17
ATOM     17  O   UNL     1       1.628   2.078  20.083  0.00  0.00    +0.000 OA
BRANCH  17  19
ATOM     18  C   UNL     1       2.152   4.016  21.393  0.00  0.00    +0.000 C 
ATOM     19  C   UNL     1       1.410   2.695  21.351  0.00  0.00    +0.000 C 
ENDBRANCH  17  19
ENDBRANCH  16  17
ENDBRANCH  15  16
ENDBRANCH  14  15
ENDBRANCH  12  14
ENDBRANCH  11  12
ENDBRANCH   7  11
ENDBRANCH   1   9
BRANCH   4  20
ATOM     20  S   UNL     1       0.168  10.971  19.253  0.00  0.00    +0.000 S 
ATOM     21  O   UNL     1       1.065  12.051  19.611  0.00  0.00    +0.000 OA
ATOM     22  O   UNL     1      -0.739  11.082  18.132  0.00  0.00    +0.000 OA
BRANCH  20  23
ATOM     23  N   UNL     1      -0.760  10.664  20.630  0.00  0.00    +0.000 NA
ATOM     24  H   UNL     1      -0.416   9.804  21.062  0.00  0.00    +0.000 HD
BRANCH  23  25
ATOM     25  C   UNL     1      -1.071  11.766  21.573  0.00  0.00    +0.000 C 
ATOM     26  C   UNL     1      -2.346  12.510  21.195  0.00  0.00    +0.000 C 
BRANCH  25  27
ATOM     27  C   UNL     1      -1.172  11.199  23.003  0.00  0.00    +0.000 C 
ATOM     28  C   UNL     1      -0.524   9.832  23.197  0.00  0.00    +0.000 C 
ENDBRANCH  25  27
ENDBRANCH  23  25
ENDBRANCH  20  23
ENDBRANCH   4  20
TORSDOF 12
ENDMDL
MODEL 9
REMARK VINA RESULT:      -6.1      2.088      2.735
REMARK  Name = 
REMARK  15 active torsions:
REMARK  status: ('A' for Active; 'I' for Inactive)
REMARK    1  A    between atoms: C_1  and  C_2
REMARK    2  A    between atoms: C_2  and  O_3
REMARK    3  A    between atoms: O_3  and  C_4
REMARK    4  A    between atoms: C_4  and  C_5
REMARK    5  A    between atoms: C_5  and  C_6
REMARK    6  A    between atoms: C_6  and  N_7
REMARK    7  A    between atoms: N_7  and  C_8
REMARK    8  A    between atoms: C_8  and  C_9
REMARK    9  A    between atoms: N_11  and  C_12
REMARK   10  A    between atoms: C_15  and  S_16
REMARK   11  A    between atoms: S_16  and  N_19
REMARK   12  A    between atoms: N_19  and  C_20
REMARK   13  A    between atoms: C_20  and  C_21
REMARK   14  A    between atoms: C_20  and  C_22
REMARK   15  A    between atoms: C_22  and  C_23
REMARK                            x       y       z     vdW  Elec       q    Type
REMARK                         _______ _______ _______ _____ _____    ______ ____
ROOT
ATOM      1  C   UNL     1       2.582   6.597  19.191  0.00  0.00    +0.000 A 
ATOM      2  C   UNL     1       2.563   7.459  18.089  0.00  0.00    +0.000 A 
ATOM      3  C   UNL     1       1.985   8.724  18.167  0.00  0.00    +0.000 A 
ATOM      4  C   UNL     1       1.388   9.138  19.354  0.00  0.00    +0.000 A 
ATOM      5  C   UNL     1       1.394   8.303  20.477  0.00  0.00    +0.000 A 
ATOM      6  C   UNL     1       1.983   7.024  20.388  0.00  0.00    +0.000 A 
ENDROOT
BRANCH   1   9
ATOM      7  C   UNL     1       4.509   5.021  19.239  0.00  0.00    +0.000 C 
ATOM      8  O   UNL     1       5.389   5.800  19.602  0.00  0.00    +0.000 OA
ATOM      9  N   UNL     1       3.154   5.311  19.113  0.00  0.00    +0.000 N 
ATOM     10  H   UNL     1       2.540   4.526  18.927  0.00  0.00    +0.000 HD
BRANCH   7  11
ATOM     11  C   UNL     1       4.874   3.579  18.888  0.00  0.00    +0.000 C 
BRANCH  11  12
ATOM     12  N   UNL     1       4.866   3.350  17.430  0.00  0.00    +0.000 NA
ATOM     13  H   UNL     1       5.034   2.355  17.269  0.00  0.00    +0.000 HD
BRANCH  12  14
ATOM     14  C   UNL     1       5.940   4.107  16.766  0.00  0.00    +0.000 C 
BRANCH  14  15
ATOM     15  C   UNL     1       5.388   4.860  15.557  0.00  0.00    +0.000 C 
BRANCH  15  16
ATOM     16  C   UNL     1       6.352   4.762  14.378  0.00  0.00    +0.000 C 
BRANCH  16  17
ATOM     17  O   UNL     1       6.239   3.469  13.785  0.00  0.00    +0.000 OA
BRANCH  17  19
ATOM     18  C   UNL     1       6.621   2.529  11.613  0.00  0.00    +0.000 C 
ATOM     19  C   UNL     1       5.854   3.563  12.414  0.00  0.00    +0.000 C 
ENDBRANCH  17  19
ENDBRANCH  16  17
ENDBRANCH  15  16
ENDBRANCH  14  15
ENDBRANCH  12  14
ENDBRANCH  11  12
ENDBRANCH   7  11
ENDBRANCH   1   9
BRANCH   4  20
ATOM     20  S   UNL     1       0.633  10.743  19.393  0.00  0.00    +0.000 S 
ATOM     21  O   UNL     1      -0.316  10.741  20.487  0.00  0.00    +0.000 OA
ATOM     22  O   UNL     1       1.659  11.755  19.283  0.00  0.00    +0.000 OA
BRANCH  20  23
ATOM     23  N   UNL     1      -0.291  10.800  17.979  0.00  0.00    +0.000 NA
ATOM     24  H   UNL     1       0.221  10.309  17.243  0.00  0.00    +0.000 HD
BRANCH  23  25
ATOM     25  C   UNL     1      -1.746  10.518  18.036  0.00  0.00    +0.000 C 
ATOM     26  C   UNL     1      -2.572  11.776  18.277  0.00  0.00    +0.000 C 
BRANCH  25  27
ATOM     27  C   UNL     1      -2.180   9.822  16.730  0.00  0.00    +0.000 C 
ATOM     28  C   UNL     1      -2.709  10.759  15.649  0.00  0.00    +0.000 C 
ENDBRANCH  25  27
ENDBRANCH  23  25
ENDBRANCH  20  23
ENDBRANCH   4  20
TORSDOF 12
ENDMDL
