MODEL 1
REMARK VINA RESULT:      -7.8      0.000      0.000
REMARK  Name = 
REMARK  4 active torsions:
REMARK  status: ('A' for Active; 'I' for Inactive)
REMARK    1  A    between atoms: C_1  and  O_2
REMARK    2  A    between atoms: O_2  and  C_3
REMARK    3  A    between atoms: CA_7  and  C_8
REMARK    4  A    between atoms: C_8  and  OXT_10
REMARK                            x       y       z     vdW  Elec       q    Type
REMARK                         _______ _______ _______ _____ _____    ______ ____
ROOT
ATOM      1  C   UNL     1       2.534   4.652  20.543  0.00  0.00    +0.000 A 
ATOM      2  C   UNL     1       1.821   5.777  20.942  0.00  0.00    +0.000 A 
ATOM      3  C   UNL     1       1.820   6.931  20.171  0.00  0.00    +0.000 A 
ATOM      4  N   UNL     1       1.138   8.058  20.661  0.00  0.00    +0.000 N 
ATOM      5  CA  UNL     1       1.066   9.242  19.966  0.00  0.00    +0.000 A 
ATOM      6  C   UNL     1       1.680   9.408  18.794  0.00  0.00    +0.000 A 
ATOM      7  C   UNL     1       2.490   8.300  18.237  0.00  0.00    +0.000 A 
ATOM      8  O   UNL     1       3.048   8.556  17.182  0.00  0.00    +0.000 OA
ATOM      9  C   UNL     1       2.569   6.995  18.964  0.00  0.00    +0.000 A 
ATOM     10  C   UNL     1       3.334   5.857  18.507  0.00  0.00    +0.000 A 
ATOM     11  C   UNL     1       3.279   4.718  19.335  0.00  0.00    +0.000 A 
ATOM     12  S   UNL     1       4.216   3.415  18.719  0.00  0.00    +0.000 S 
ATOM     13  C   UNL     1       4.733   4.289  17.356  0.00  0.00    +0.000 A 
ATOM     14  C   UNL     1       5.590   3.784  16.349  0.00  0.00    +0.000 A 
ATOM     15  C   UNL     1       5.951   4.596  15.279  0.00  0.00    +0.000 A 
ATOM     16  C   UNL     1       5.466   5.883  15.211  0.00  0.00    +0.000 A 
ATOM     17  C   UNL     1       4.615   6.366  16.213  0.00  0.00    +0.000 A 
ATOM     18  C   UNL     1       4.209   5.585  17.333  0.00  0.00    +0.000 A 
ATOM     19  H   UNL     1       0.486   7.965  21.438  0.00  0.00    +0.000 HD
ENDROOT
BRANCH   1  21
ATOM     20  C   UNL     1       1.411   2.730  21.408  0.00  0.00    +0.000 C 
ATOM     21  O   UNL     1       2.604   3.497  21.287  0.00  0.00    +0.000 OA
ENDBRANCH   1  21
BRANCH   5  22
ATOM     22  C   UNL     1       0.205  10.312  20.559  0.00  0.00    +0.000 C 
ATOM     23  O   UNL     1      -0.883  10.589  20.068  0.00  0.00    +0.000 OA
BRANCH  22  24
ATOM     24  OXT UNL     1       0.671  10.910  21.671  0.00  0.00    +0.000 OA
ATOM     25  HXT UNL     1       1.314  11.627  21.540  0.00  0.00    +0.000 HD
ENDBRANCH  22  24
ENDBRANCH   5  22
TORSDOF 3
ENDMDL
MODEL 2
REMARK VINA RESULT:      -7.5      2.842      6.165
REMARK  Name = 
REMARK  4 active torsions:
REMARK  status: ('A' for Active; 'I' for Inactive)
REMARK    1  A    between atoms: C_1  and  O_2
REMARK    2  A    between atoms: O_2  and  C_3
REMARK    3  A    between atoms: CA_7  and  C_8
REMARK    4  A    between atoms: C_8  and  OXT_10
REMARK                            x       y       z     vdW  Elec       q    Type
REMARK                         _______ _______ _______ _____ _____    ______ ____
ROOT
ATOM      1  C   UNL     1       3.827   3.510  19.503  0.00  0.00    +0.000 A 
ATOM      2  C   UNL     1       4.638   3.340  18.386  0.00  0.00    +0.000 A 
ATOM      3  C   UNL     1       4.816   4.367  17.470  0.00  0.00    +0.000 A 
ATOM      4  N   UNL     1       5.591   4.113  16.326  0.00  0.00    +0.000 N 
ATOM      5  CA  UNL     1       5.838   5.068  15.370  0.00  0.00    +0.000 A 
ATOM      6  C   UNL     1       5.318   6.294  15.449  0.00  0.00    +0.000 A 
ATOM      7  C   UNL     1       4.421   6.629  16.579  0.00  0.00    +0.000 A 
ATOM      8  O   UNL     1       3.959   7.758  16.547  0.00  0.00    +0.000 OA
ATOM      9  C   UNL     1       4.152   5.613  17.644  0.00  0.00    +0.000 A 
ATOM     10  C   UNL     1       3.290   5.840  18.783  0.00  0.00    +0.000 A 
ATOM     11  C   UNL     1       3.167   4.756  19.675  0.00  0.00    +0.000 A 
ATOM     12  S   UNL     1       2.126   5.111  20.996  0.00  0.00    +0.000 S 
ATOM     13  C   UNL     1       1.793   6.686  20.451  0.00  0.00    +0.000 A 
ATOM     14  C   UNL     1       0.945   7.607  21.110  0.00  0.00    +0.000 A 
ATOM     15  C   UNL     1       0.743   8.871  20.566  0.00  0.00    +0.000 A 
ATOM     16  C   UNL     1       1.374   9.212  19.390  0.00  0.00    +0.000 A 
ATOM     17  C   UNL     1       2.214   8.290  18.752  0.00  0.00    +0.000 A 
ATOM     18  C   UNL     1       2.462   6.982  19.259  0.00  0.00    +0.000 A 
ATOM     19  H   UNL     1       6.182   3.284  16.282  0.00  0.00    +0.000 HD
ENDROOT
BRANCH   1  21
ATOM     20  C   UNL     1       4.665   1.645  20.737  0.00  0.00    +0.000 C 
ATOM     21  O   UNL     1       3.583   2.514  20.419  0.00  0.00    +0.000 OA
ENDBRANCH   1  21
BRANCH   5  22
ATOM     22  C   UNL     1       6.779   4.685  14.271  0.00  0.00    +0.000 C 
ATOM     23  O   UNL     1       7.771   5.361  14.027  0.00  0.00    +0.000 OA
BRANCH  22  24
ATOM     24  OXT UNL     1       6.496   3.548  13.609  0.00  0.00    +0.000 OA
ATOM     25  HXT UNL     1       5.877   3.625  12.863  0.00  0.00    +0.000 HD
ENDBRANCH  22  24
ENDBRANCH   5  22
TORSDOF 3
ENDMDL
MODEL 3
REMARK VINA RESULT:      -7.4      3.073      6.860
REMARK  Name = 
REMARK  4 active torsions:
REMARK  status: ('A' for Active; 'I' for Inactive)
REMARK    1  A    between atoms: C_1  and  O_2
REMARK    2  A    between atoms: O_2  and  C_3
REMARK    3  A    between atoms: CA_7  and  C_8
REMARK    4  A    between atoms: C_8  and  OXT_10
REMARK                            x       y       z     vdW  Elec       q    Type
REMARK                         _______ _______ _______ _____ _____    ______ ____
ROOT
ATOM      1  C   UNL     1       3.463   7.607  17.756  0.00  0.00    +0.000 A 
ATOM      2  C   UNL     1       4.361   7.449  16.706  0.00  0.00    +0.000 A 
ATOM      3  C   UNL     1       4.814   6.190  16.338  0.00  0.00    +0.000 A 
ATOM      4  N   UNL     1       5.773   6.100  15.316  0.00  0.00    +0.000 N 
ATOM      5  CA  UNL     1       6.273   4.900  14.869  0.00  0.00    +0.000 A 
ATOM      6  C   UNL     1       5.905   3.740  15.413  0.00  0.00    +0.000 A 
ATOM      7  C   UNL     1       4.958   3.741  16.553  0.00  0.00    +0.000 A 
ATOM      8  O   UNL     1       4.711   2.638  17.012  0.00  0.00    +0.000 OA
ATOM      9  C   UNL     1       4.385   5.033  17.044  0.00  0.00    +0.000 A 
ATOM     10  C   UNL     1       3.459   5.141  18.149  0.00  0.00    +0.000 A 
ATOM     11  C   UNL     1       3.034   6.449  18.458  0.00  0.00    +0.000 A 
ATOM     12  S   UNL     1       1.938   6.486  19.782  0.00  0.00    +0.000 S 
ATOM     13  C   UNL     1       1.982   4.801  20.005  0.00  0.00    +0.000 A 
ATOM     14  C   UNL     1       1.258   4.098  20.997  0.00  0.00    +0.000 A 
ATOM     15  C   UNL     1       1.377   2.715  21.089  0.00  0.00    +0.000 A 
ATOM     16  C   UNL     1       2.198   2.046  20.208  0.00  0.00    +0.000 A 
ATOM     17  C   UNL     1       2.904   2.756  19.228  0.00  0.00    +0.000 A 
ATOM     18  C   UNL     1       2.825   4.171  19.083  0.00  0.00    +0.000 A 
ATOM     19  H   UNL     1       5.961   6.904  14.717  0.00  0.00    +0.000 HD
ENDROOT
BRANCH   1  21
ATOM     20  C   UNL     1       1.738   9.258  17.723  0.00  0.00    +0.000 C 
ATOM     21  O   UNL     1       3.014   8.832  18.189  0.00  0.00    +0.000 OA
ENDBRANCH   1  21
BRANCH   5  22
ATOM     22  C   UNL     1       7.197   4.957  13.694  0.00  0.00    +0.000 C 
ATOM     23  O   UNL     1       8.193   5.669  13.711  0.00  0.00    +0.000 OA
BRANCH  22  24
ATOM     24  OXT UNL     1       6.895   4.158  12.654  0.00  0.00    +0.000 OA
ATOM     25  HXT UNL     1       6.280   3.427  12.834  0.00  0.00    +0.000 HD
ENDBRANCH  22  24
ENDBRANCH   5  22
TORSDOF 3
ENDMDL
MODEL 4
REMARK VINA RESULT:      -7.0      1.873      4.226
REMARK  Name = 
REMARK  4 active torsions:
REMARK  status: ('A' for Active; 'I' for Inactive)
REMARK    1  A    between atoms: C_1  and  O_2
REMARK    2  A    between atoms: O_2  and  C_3
REMARK    3  A    between atoms: CA_7  and  C_8
REMARK    4  A    between atoms: C_8  and  OXT_10
REMARK                            x       y       z     vdW  Elec       q    Type
REMARK                         _______ _______ _______ _____ _____    ______ ____
ROOT
ATOM      1  C   UNL     1       4.329   6.392  17.024  0.00  0.00    +0.000 A 
ATOM      2  C   UNL     1       3.791   7.674  17.004  0.00  0.00    +0.000 A 
ATOM      3  C   UNL     1       2.912   8.095  17.993  0.00  0.00    +0.000 A 
ATOM      4  N   UNL     1       2.348   9.376  17.881  0.00  0.00    +0.000 N 
ATOM      5  CA  UNL     1       1.480   9.890  18.815  0.00  0.00    +0.000 A 
ATOM      6  C   UNL     1       1.084   9.179  19.872  0.00  0.00    +0.000 A 
ATOM      7  C   UNL     1       1.563   7.787  20.030  0.00  0.00    +0.000 A 
ATOM      8  O   UNL     1       1.117   7.200  21.003  0.00  0.00    +0.000 OA
ATOM      9  C   UNL     1       2.524   7.211  19.038  0.00  0.00    +0.000 A 
ATOM     10  C   UNL     1       3.047   5.865  19.101  0.00  0.00    +0.000 A 
ATOM     11  C   UNL     1       3.941   5.513  18.070  0.00  0.00    +0.000 A 
ATOM     12  S   UNL     1       4.512   3.898  18.222  0.00  0.00    +0.000 S 
ATOM     13  C   UNL     1       3.609   3.597  19.631  0.00  0.00    +0.000 A 
ATOM     14  C   UNL     1       3.607   2.374  20.343  0.00  0.00    +0.000 A 
ATOM     15  C   UNL     1       2.822   2.241  21.483  0.00  0.00    +0.000 A 
ATOM     16  C   UNL     1       2.058   3.305  21.908  0.00  0.00    +0.000 A 
ATOM     17  C   UNL     1       2.076   4.511  21.195  0.00  0.00    +0.000 A 
ATOM     18  C   UNL     1       2.858   4.710  20.021  0.00  0.00    +0.000 A 
ATOM     19  H   UNL     1       2.738  10.053  17.226  0.00  0.00    +0.000 HD
ENDROOT
BRANCH   1  21
ATOM     20  C   UNL     1       6.569   6.019  16.287  0.00  0.00    +0.000 C 
ATOM     21  O   UNL     1       5.170   5.910  16.049  0.00  0.00    +0.000 OA
ENDBRANCH   1  21
BRANCH   5  22
ATOM     22  C   UNL     1       1.057  11.312  18.623  0.00  0.00    +0.000 C 
ATOM     23  O   UNL     1       0.012  11.728  19.107  0.00  0.00    +0.000 OA
BRANCH  22  24
ATOM     24  OXT UNL     1       1.902  12.101  17.935  0.00  0.00    +0.000 OA
ATOM     25  HXT UNL     1       1.513  12.633  17.220  0.00  0.00    +0.000 HD
ENDBRANCH  22  24
ENDBRANCH   5  22
TORSDOF 3
ENDMDL
MODEL 5
REMARK VINA RESULT:      -7.0      2.691      5.979
REMARK  Name = 
REMARK  4 active torsions:
REMARK  status: ('A' for Active; 'I' for Inactive)
REMARK    1  A    between atoms: C_1  and  O_2
REMARK    2  A    between atoms: O_2  and  C_3
REMARK    3  A    between atoms: CA_7  and  C_8
REMARK    4  A    between atoms: C_8  and  OXT_10
REMARK                            x       y       z     vdW  Elec       q    Type
REMARK                         _______ _______ _______ _____ _____    ______ ____
ROOT
ATOM      1  C   UNL     1       2.731   4.844  20.439  0.00  0.00    +0.000 A 
ATOM      2  C   UNL     1       3.657   4.293  19.561  0.00  0.00    +0.000 A 
ATOM      3  C   UNL     1       4.108   5.007  18.459  0.00  0.00    +0.000 A 
ATOM      4  N   UNL     1       4.991   4.371  17.570  0.00  0.00    +0.000 N 
ATOM      5  CA  UNL     1       5.506   4.997  16.460  0.00  0.00    +0.000 A 
ATOM      6  C   UNL     1       5.162   6.244  16.134  0.00  0.00    +0.000 A 
ATOM      7  C   UNL     1       4.174   6.966  16.968  0.00  0.00    +0.000 A 
ATOM      8  O   UNL     1       3.889   8.084  16.571  0.00  0.00    +0.000 OA
ATOM      9  C   UNL     1       3.613   6.313  18.193  0.00  0.00    +0.000 A 
ATOM     10  C   UNL     1       2.643   6.930  19.068  0.00  0.00    +0.000 A 
ATOM     11  C   UNL     1       2.240   6.150  20.171  0.00  0.00    +0.000 A 
ATOM     12  S   UNL     1       1.086   6.958  21.157  0.00  0.00    +0.000 S 
ATOM     13  C   UNL     1       1.065   8.349  20.180  0.00  0.00    +0.000 A 
ATOM     14  C   UNL     1       0.275   9.497  20.426  0.00  0.00    +0.000 A 
ATOM     15  C   UNL     1       0.336  10.578  19.553  0.00  0.00    +0.000 A 
ATOM     16  C   UNL     1       1.168  10.517  18.457  0.00  0.00    +0.000 A 
ATOM     17  C   UNL     1       1.947   9.375  18.230  0.00  0.00    +0.000 A 
ATOM     18  C   UNL     1       1.930   8.237  19.087  0.00  0.00    +0.000 A 
ATOM     19  H   UNL     1       5.456   3.506  17.841  0.00  0.00    +0.000 HD
ENDROOT
BRANCH   1  21
ATOM     20  C   UNL     1       1.452   2.998  21.252  0.00  0.00    +0.000 C 
ATOM     21  O   UNL     1       2.218   4.167  21.521  0.00  0.00    +0.000 OA
ENDBRANCH   1  21
BRANCH   5  22
ATOM     22  C   UNL     1       6.526   4.234  15.676  0.00  0.00    +0.000 C 
ATOM     23  O   UNL     1       6.207   3.604  14.675  0.00  0.00    +0.000 OA
BRANCH  22  24
ATOM     24  OXT UNL     1       7.799   4.318  16.105  0.00  0.00    +0.000 OA
ATOM     25  HXT UNL     1       8.117   5.205  16.343  0.00  0.00    +0.000 HD
ENDBRANCH  22  24
ENDBRANCH   5  22
TORSDOF 3
ENDMDL
MODEL 6
REMARK VINA RESULT:      -6.7      2.854      6.910
REMARK  Name = 
REMARK  4 active torsions:
REMARK  status: ('A' for Active; 'I' for Inactive)
REMARK    1  A    between atoms: C_1  and  O_2
REMARK    2  A    between atoms: O_2  and  C_3
REMARK    3  A    between atoms: CA_7  and  C_8
REMARK    4  A    between atoms: C_8  and  OXT_10
REMARK                            x       y       z     vdW  Elec       q    Type
REMARK                         _______ _______ _______ _____ _____    ______ ____
ROOT
ATOM      1  C   UNL     1       4.382   6.199  17.145  0.00  0.00    +0.000 A 
ATOM      2  C   UNL     1       4.831   4.942  17.536  0.00  0.00    +0.000 A 
ATOM      3  C   UNL     1       4.358   4.345  18.696  0.00  0.00    +0.000 A 
ATOM      4  N   UNL     1       4.900   3.106  19.075  0.00  0.00    +0.000 N 
ATOM      5  CA  UNL     1       4.487   2.427  20.197  0.00  0.00    +0.000 A 
ATOM      6  C   UNL     1       3.569   2.929  21.024  0.00  0.00    +0.000 A 
ATOM      7  C   UNL     1       3.000   4.268  20.749  0.00  0.00    +0.000 A 
ATOM      8  O   UNL     1       2.199   4.663  21.581  0.00  0.00    +0.000 OA
ATOM      9  C   UNL     1       3.417   5.018  19.524  0.00  0.00    +0.000 A 
ATOM     10  C   UNL     1       2.925   6.330  19.169  0.00  0.00    +0.000 A 
ATOM     11  C   UNL     1       3.442   6.868  17.973  0.00  0.00    +0.000 A 
ATOM     12  S   UNL     1       2.805   8.428  17.628  0.00  0.00    +0.000 S 
ATOM     13  C   UNL     1       1.839   8.461  19.027  0.00  0.00    +0.000 A 
ATOM     14  C   UNL     1       0.990   9.531  19.397  0.00  0.00    +0.000 A 
ATOM     15  C   UNL     1       0.248   9.449  20.570  0.00  0.00    +0.000 A 
ATOM     16  C   UNL     1       0.348   8.324  21.358  0.00  0.00    +0.000 A 
ATOM     17  C   UNL     1       1.189   7.271  20.975  0.00  0.00    +0.000 A 
ATOM     18  C   UNL     1       1.973   7.295  19.786  0.00  0.00    +0.000 A 
ATOM     19  H   UNL     1       5.451   2.563  18.412  0.00  0.00    +0.000 HD
ENDROOT
BRANCH   1  21
ATOM     20  C   UNL     1       5.525   6.073  15.052  0.00  0.00    +0.000 C 
ATOM     21  O   UNL     1       4.847   6.855  16.029  0.00  0.00    +0.000 OA
ENDBRANCH   1  21
BRANCH   5  22
ATOM     22  C   UNL     1       5.070   1.064  20.405  0.00  0.00    +0.000 C 
ATOM     23  O   UNL     1       5.580   0.755  21.475  0.00  0.00    +0.000 OA
BRANCH  22  24
ATOM     24  OXT UNL     1       4.960   0.202  19.378  0.00  0.00    +0.000 OA
ATOM     25  HXT UNL     1       4.771  -0.723  19.608  0.00  0.00    +0.000 HD
ENDBRANCH  22  24
ENDBRANCH   5  22
TORSDOF 3
ENDMDL
MODEL 7
REMARK VINA RESULT:      -6.7      7.805     10.351
REMARK  Name = 
REMARK  4 active torsions:
REMARK  status: ('A' for Active; 'I' for Inactive)
REMARK    1  A    between atoms: C_1  and  O_2
REMARK    2  A    between atoms: O_2  and  C_3
REMARK    3  A    between atoms: CA_7  and  C_8
REMARK    4  A    between atoms: C_8  and  OXT_10
REMARK                            x       y       z     vdW  Elec       q    Type
REMARK                         _______ _______ _______ _____ _____    ______ ____
ROOT
ATOM      1  C   UNL     1      -6.093  12.643  18.937  0.00  0.00    +0.000 A 
ATOM      2  C   UNL     1      -5.950  12.101  17.664  0.00  0.00    +0.000 A 
ATOM      3  C   UNL     1      -4.735  11.580  17.243  0.00  0.00    +0.000 A 
ATOM      4  N   UNL     1      -4.634  11.110  15.923  0.00  0.00    +0.000 N 
ATOM      5  CA  UNL     1      -3.480  10.563  15.415  0.00  0.00    +0.000 A 
ATOM      6  C   UNL     1      -2.363  10.482  16.140  0.00  0.00    +0.000 A 
ATOM      7  C   UNL     1      -2.351  11.027  17.517  0.00  0.00    +0.000 A 
ATOM      8  O   UNL     1      -1.276  10.946  18.088  0.00  0.00    +0.000 OA
ATOM      9  C   UNL     1      -3.600  11.610  18.099  0.00  0.00    +0.000 A 
ATOM     10  C   UNL     1      -3.690  12.169  19.429  0.00  0.00    +0.000 A 
ATOM     11  C   UNL     1      -4.957  12.669  19.791  0.00  0.00    +0.000 A 
ATOM     12  S   UNL     1      -4.975  13.315  21.384  0.00  0.00    +0.000 S 
ATOM     13  C   UNL     1      -3.332  12.974  21.657  0.00  0.00    +0.000 A 
ATOM     14  C   UNL     1      -2.635  13.263  22.854  0.00  0.00    +0.000 A 
ATOM     15  C   UNL     1      -1.286  12.942  22.962  0.00  0.00    +0.000 A 
ATOM     16  C   UNL     1      -0.645  12.342  21.901  0.00  0.00    +0.000 A 
ATOM     17  C   UNL     1      -1.351  12.058  20.724  0.00  0.00    +0.000 A 
ATOM     18  C   UNL     1      -2.732  12.362  20.552  0.00  0.00    +0.000 A 
ATOM     19  H   UNL     1      -5.475  10.951  15.370  0.00  0.00    +0.000 HD
ENDROOT
BRANCH   1  21
ATOM     20  C   UNL     1      -7.917  14.128  18.525  0.00  0.00    +0.000 C 
ATOM     21  O   UNL     1      -7.260  13.209  19.392  0.00  0.00    +0.000 OA
ENDBRANCH   1  21
BRANCH   5  22
ATOM     22  C   UNL     1      -3.561   9.997  14.033  0.00  0.00    +0.000 C 
ATOM     23  O   UNL     1      -2.547   9.782  13.380  0.00  0.00    +0.000 OA
BRANCH  22  24
ATOM     24  OXT UNL     1      -4.792   9.703  13.576  0.00  0.00    +0.000 OA
ATOM     25  HXT UNL     1      -5.264   8.987  14.034  0.00  0.00    +0.000 HD
ENDBRANCH  22  24
ENDBRANCH   5  22
TORSDOF 3
ENDMDL
MODEL 8
REMARK VINA RESULT:      -6.7      5.342      9.346
REMARK  Name = 
REMARK  4 active torsions:
REMARK  status: ('A' for Active; 'I' for Inactive)
REMARK    1  A    between atoms: C_1  and  O_2
REMARK    2  A    between atoms: O_2  and  C_3
REMARK    3  A    between atoms: CA_7  and  C_8
REMARK    4  A    between atoms: C_8  and  OXT_10
REMARK                            x       y       z     vdW  Elec       q    Type
REMARK                         _______ _______ _______ _____ _____    ______ ____
ROOT
ATOM      1  C   UNL     1      -0.181  10.687  19.493  0.00  0.00    +0.000 A 
ATOM      2  C   UNL     1      -0.530  10.322  18.197  0.00  0.00    +0.000 A 
ATOM      3  C   UNL     1      -1.767  10.664  17.668  0.00  0.00    +0.000 A 
ATOM      4  N   UNL     1      -2.089  10.208  16.379  0.00  0.00    +0.000 N 
ATOM      5  CA  UNL     1      -3.281  10.506  15.762  0.00  0.00    +0.000 A 
ATOM      6  C   UNL     1      -4.230  11.217  16.372  0.00  0.00    +0.000 A 
ATOM      7  C   UNL     1      -4.012  11.672  17.765  0.00  0.00    +0.000 A 
ATOM      8  O   UNL     1      -4.949  12.280  18.256  0.00  0.00    +0.000 OA
ATOM      9  C   UNL     1      -2.715  11.379  18.452  0.00  0.00    +0.000 A 
ATOM     10  C   UNL     1      -2.407  11.774  19.807  0.00  0.00    +0.000 A 
ATOM     11  C   UNL     1      -1.130  11.402  20.272  0.00  0.00    +0.000 A 
ATOM     12  S   UNL     1      -0.848  11.910  21.890  0.00  0.00    +0.000 S 
ATOM     13  C   UNL     1      -2.381  12.627  22.046  0.00  0.00    +0.000 A 
ATOM     14  C   UNL     1      -2.852  13.282  23.209  0.00  0.00    +0.000 A 
ATOM     15  C   UNL     1      -4.131  13.829  23.223  0.00  0.00    +0.000 A 
ATOM     16  C   UNL     1      -4.924  13.728  22.101  0.00  0.00    +0.000 A 
ATOM     17  C   UNL     1      -4.441  13.081  20.956  0.00  0.00    +0.000 A 
ATOM     18  C   UNL     1      -3.142  12.501  20.879  0.00  0.00    +0.000 A 
ATOM     19  H   UNL     1      -1.362   9.835  15.771  0.00  0.00    +0.000 HD
ENDROOT
BRANCH   1  21
ATOM     20  C   UNL     1       1.160   8.986  20.498  0.00  0.00    +0.000 C 
ATOM     21  O   UNL     1       1.012  10.339  20.081  0.00  0.00    +0.000 OA
ENDBRANCH   1  21
BRANCH   5  22
ATOM     22  C   UNL     1      -3.431  10.052  14.345  0.00  0.00    +0.000 C 
ATOM     23  O   UNL     1      -2.449   9.845  13.643  0.00  0.00    +0.000 OA
BRANCH  22  24
ATOM     24  OXT UNL     1      -4.688   9.846  13.910  0.00  0.00    +0.000 OA
ATOM     25  HXT UNL     1      -5.401  10.037  14.543  0.00  0.00    +0.000 HD
ENDBRANCH  22  24
ENDBRANCH   5  22
TORSDOF 3
ENDMDL
MODEL 9
REMARK VINA RESULT:      -6.5      7.460     10.056
REMARK  Name = 
REMARK  4 active torsions:
REMARK  status: ('A' for Active; 'I' for Inactive)
REMARK    1  A    between atoms: C_1  and  O_2
REMARK    2  A    between atoms: O_2  and  C_3
REMARK    3  A    between atoms: CA_7  and  C_8
REMARK    4  A    between atoms: C_8  and  OXT_10
REMARK                            x       y       z     vdW  Elec       q    Type
REMARK                         _______ _______ _______ _____ _____    ______ ____
ROOT
ATOM      1  C   UNL     1      -3.604  11.120  16.877  0.00  0.00    +0.000 A 
ATOM      2  C   UNL     1      -2.236  11.368  16.888  0.00  0.00    +0.000 A 
ATOM      3  C   UNL     1      -1.619  11.917  18.004  0.00  0.00    +0.000 A 
ATOM      4  N   UNL     1      -0.247  12.209  17.930  0.00  0.00    +0.000 N 
ATOM      5  CA  UNL     1       0.458  12.739  18.984  0.00  0.00    +0.000 A 
ATOM      6  C   UNL     1      -0.134  13.051  20.138  0.00  0.00    +0.000 A 
ATOM      7  C   UNL     1      -1.594  12.854  20.282  0.00  0.00    +0.000 A 
ATOM      8  O   UNL     1      -2.055  13.204  21.356  0.00  0.00    +0.000 OA
ATOM      9  C   UNL     1      -2.381  12.260  19.155  0.00  0.00    +0.000 A 
ATOM     10  C   UNL     1      -3.807  12.031  19.194  0.00  0.00    +0.000 A 
ATOM     11  C   UNL     1      -4.362  11.461  18.030  0.00  0.00    +0.000 A 
ATOM     12  S   UNL     1      -6.059  11.225  18.161  0.00  0.00    +0.000 S 
ATOM     13  C   UNL     1      -6.135  11.863  19.736  0.00  0.00    +0.000 A 
ATOM     14  C   UNL     1      -7.318  11.977  20.505  0.00  0.00    +0.000 A 
ATOM     15  C   UNL     1      -7.259  12.521  21.784  0.00  0.00    +0.000 A 
ATOM     16  C   UNL     1      -6.047  12.940  22.287  0.00  0.00    +0.000 A 
ATOM     17  C   UNL     1      -4.885  12.816  21.515  0.00  0.00    +0.000 A 
ATOM     18  C   UNL     1      -4.880  12.267  20.200  0.00  0.00    +0.000 A 
ATOM     19  H   UNL     1       0.318  11.827  17.172  0.00  0.00    +0.000 HD
ENDROOT
BRANCH   1  21
ATOM     20  C   UNL     1      -3.485  10.205  14.675  0.00  0.00    +0.000 C 
ATOM     21  O   UNL     1      -4.273  10.617  15.786  0.00  0.00    +0.000 OA
ENDBRANCH   1  21
BRANCH   5  22
ATOM     22  C   UNL     1       1.935  12.883  18.796  0.00  0.00    +0.000 C 
ATOM     23  O   UNL     1       2.651  13.271  19.710  0.00  0.00    +0.000 OA
BRANCH  22  24
ATOM     24  OXT UNL     1       2.424  12.524  17.594  0.00  0.00    +0.000 OA
ATOM     25  HXT UNL     1       3.223  11.971  17.600  0.00  0.00    +0.000 HD
ENDBRANCH  22  24
ENDBRANCH   5  22
TORSDOF 3
ENDMDL
