MODEL 1
REMARK VINA RESULT:      -7.6      0.000      0.000
REMARK  Name = 
REMARK  3 active torsions:
REMARK  status: ('A' for Active; 'I' for Inactive)
REMARK    1  A    between atoms: C_2  and  C_3
REMARK    2  A    between atoms: C_13  and  C_14
REMARK    3  A    between atoms: C_14  and  C_15
REMARK                            x       y       z     vdW  Elec       q    Type
REMARK                         _______ _______ _______ _____ _____    ______ ____
ROOT
ATOM      1  O   UNL     1       3.868   6.479  18.704  0.00  0.00    +0.000 OA
ATOM      2  C   UNL     1       3.785   5.454  18.033  0.00  0.00    +0.000 C 
ATOM      3  N   UNL     1       4.502   5.275  16.842  0.00  0.00    +0.000 N 
ATOM      4  C   UNL     1       4.495   4.088  15.982  0.00  0.00    +0.000 C 
ATOM      5  C   UNL     1       5.903   3.551  15.770  0.00  0.00    +0.000 C 
ATOM      6  C   UNL     1       6.854   4.622  15.217  0.00  0.00    +0.000 C 
ATOM      7  C   UNL     1       6.803   5.849  16.149  0.00  0.00    +0.000 C 
ATOM      8  C   UNL     1       5.376   6.358  16.387  0.00  0.00    +0.000 C 
ENDROOT
BRANCH   2   9
ATOM      9  C   UNL     1       2.965   4.358  18.608  0.00  0.00    +0.000 A 
ATOM     10  C   UNL     1       3.504   3.648  19.693  0.00  0.00    +0.000 A 
ATOM     11  C   UNL     1       2.814   2.565  20.244  0.00  0.00    +0.000 A 
ATOM     12  C   UNL     1       1.589   2.174  19.706  0.00  0.00    +0.000 A 
ATOM     13  C   UNL     1       1.025   2.907  18.663  0.00  0.00    +0.000 A 
ATOM     14  C   UNL     1       1.692   4.021  18.154  0.00  0.00    +0.000 A 
ATOM     15  F   UNL     1       1.076   4.744  17.207  0.00  0.00    +0.000 F 
ENDBRANCH   2   9
BRANCH   6  16
ATOM     16  C   UNL     1       6.548   5.022  13.755  0.00  0.00    +0.000 C 
BRANCH  16  17
ATOM     17  C   UNL     1       6.326   3.871  12.799  0.00  0.00    +0.000 A 
ATOM     18  C   UNL     1       5.026   3.516  12.415  0.00  0.00    +0.000 A 
ATOM     19  C   UNL     1       4.810   2.481  11.500  0.00  0.00    +0.000 A 
ATOM     20  C   UNL     1       5.891   1.792  10.960  0.00  0.00    +0.000 A 
ATOM     21  C   UNL     1       7.189   2.134  11.335  0.00  0.00    +0.000 A 
ATOM     22  C   UNL     1       7.406   3.169  12.247  0.00  0.00    +0.000 A 
ENDBRANCH  16  17
ENDBRANCH   6  16
TORSDOF 3
ENDMDL
MODEL 2
REMARK VINA RESULT:      -7.6      0.149      1.038
REMARK  Name = 
REMARK  3 active torsions:
REMARK  status: ('A' for Active; 'I' for Inactive)
REMARK    1  A    between atoms: C_2  and  C_3
REMARK    2  A    between atoms: C_13  and  C_14
REMARK    3  A    between atoms: C_14  and  C_15
REMARK                            x       y       z     vdW  Elec       q    Type
REMARK                         _______ _______ _______ _____ _____    ______ ____
ROOT
ATOM      1  O   UNL     1       3.926   6.431  18.607  0.00  0.00    +0.000 OA
ATOM      2  C   UNL     1       3.843   5.407  17.936  0.00  0.00    +0.000 C 
ATOM      3  N   UNL     1       4.550   5.234  16.738  0.00  0.00    +0.000 N 
ATOM      4  C   UNL     1       4.542   4.047  15.877  0.00  0.00    +0.000 C 
ATOM      5  C   UNL     1       5.951   3.519  15.652  0.00  0.00    +0.000 C 
ATOM      6  C   UNL     1       6.890   4.596  15.091  0.00  0.00    +0.000 C 
ATOM      7  C   UNL     1       6.841   5.821  16.026  0.00  0.00    +0.000 C 
ATOM      8  C   UNL     1       5.413   6.322  16.277  0.00  0.00    +0.000 C 
ENDROOT
BRANCH   2   9
ATOM      9  C   UNL     1       3.034   4.305  18.516  0.00  0.00    +0.000 A 
ATOM     10  C   UNL     1       3.619   3.544  19.541  0.00  0.00    +0.000 A 
ATOM     11  C   UNL     1       2.940   2.454  20.091  0.00  0.00    +0.000 A 
ATOM     12  C   UNL     1       1.678   2.107  19.611  0.00  0.00    +0.000 A 
ATOM     13  C   UNL     1       1.070   2.890  18.631  0.00  0.00    +0.000 A 
ATOM     14  C   UNL     1       1.730   4.010  18.126  0.00  0.00    +0.000 A 
ATOM     15  F   UNL     1       1.076   4.780  17.243  0.00  0.00    +0.000 F 
ENDBRANCH   2   9
BRANCH   6  16
ATOM     16  C   UNL     1       6.569   4.996  13.633  0.00  0.00    +0.000 C 
BRANCH  16  17
ATOM     17  C   UNL     1       6.383   3.845  12.669  0.00  0.00    +0.000 A 
ATOM     18  C   UNL     1       7.500   3.178  12.146  0.00  0.00    +0.000 A 
ATOM     19  C   UNL     1       7.341   2.087  11.288  0.00  0.00    +0.000 A 
ATOM     20  C   UNL     1       6.065   1.651  10.943  0.00  0.00    +0.000 A 
ATOM     21  C   UNL     1       4.947   2.307  11.454  0.00  0.00    +0.000 A 
ATOM     22  C   UNL     1       5.105   3.396  12.314  0.00  0.00    +0.000 A 
ENDBRANCH  16  17
ENDBRANCH   6  16
TORSDOF 3
ENDMDL
MODEL 3
REMARK VINA RESULT:      -7.5      1.050      1.784
REMARK  Name = 
REMARK  3 active torsions:
REMARK  status: ('A' for Active; 'I' for Inactive)
REMARK    1  A    between atoms: C_2  and  C_3
REMARK    2  A    between atoms: C_13  and  C_14
REMARK    3  A    between atoms: C_14  and  C_15
REMARK                            x       y       z     vdW  Elec       q    Type
REMARK                         _______ _______ _______ _____ _____    ______ ____
ROOT
ATOM      1  O   UNL     1       3.987   6.404  18.578  0.00  0.00    +0.000 OA
ATOM      2  C   UNL     1       3.902   5.377  17.911  0.00  0.00    +0.000 C 
ATOM      3  N   UNL     1       4.597   5.205  16.706  0.00  0.00    +0.000 N 
ATOM      4  C   UNL     1       4.587   4.017  15.848  0.00  0.00    +0.000 C 
ATOM      5  C   UNL     1       5.996   3.497  15.608  0.00  0.00    +0.000 C 
ATOM      6  C   UNL     1       6.923   4.578  15.034  0.00  0.00    +0.000 C 
ATOM      7  C   UNL     1       6.876   5.806  15.966  0.00  0.00    +0.000 C 
ATOM      8  C   UNL     1       5.448   6.297  16.232  0.00  0.00    +0.000 C 
ENDROOT
BRANCH   2   9
ATOM      9  C   UNL     1       3.107   4.272  18.503  0.00  0.00    +0.000 A 
ATOM     10  C   UNL     1       1.757   4.176  18.130  0.00  0.00    +0.000 A 
ATOM     11  C   UNL     1       0.934   3.197  18.694  0.00  0.00    +0.000 A 
ATOM     12  C   UNL     1       1.449   2.319  19.647  0.00  0.00    +0.000 A 
ATOM     13  C   UNL     1       2.800   2.377  19.982  0.00  0.00    +0.000 A 
ATOM     14  C   UNL     1       3.630   3.319  19.374  0.00  0.00    +0.000 A 
ATOM     15  F   UNL     1       4.939   3.286  19.666  0.00  0.00    +0.000 F 
ENDBRANCH   2   9
BRANCH   6  16
ATOM     16  C   UNL     1       6.582   4.972  13.578  0.00  0.00    +0.000 C 
BRANCH  16  17
ATOM     17  C   UNL     1       6.396   3.817  12.619  0.00  0.00    +0.000 A 
ATOM     18  C   UNL     1       7.513   3.150  12.096  0.00  0.00    +0.000 A 
ATOM     19  C   UNL     1       7.354   2.056  11.242  0.00  0.00    +0.000 A 
ATOM     20  C   UNL     1       6.078   1.618  10.901  0.00  0.00    +0.000 A 
ATOM     21  C   UNL     1       4.960   2.273  11.412  0.00  0.00    +0.000 A 
ATOM     22  C   UNL     1       5.118   3.365  12.269  0.00  0.00    +0.000 A 
ENDBRANCH  16  17
ENDBRANCH   6  16
TORSDOF 3
ENDMDL
MODEL 4
REMARK VINA RESULT:      -7.5      1.029      1.445
REMARK  Name = 
REMARK  3 active torsions:
REMARK  status: ('A' for Active; 'I' for Inactive)
REMARK    1  A    between atoms: C_2  and  C_3
REMARK    2  A    between atoms: C_13  and  C_14
REMARK    3  A    between atoms: C_14  and  C_15
REMARK                            x       y       z     vdW  Elec       q    Type
REMARK                         _______ _______ _______ _____ _____    ______ ____
ROOT
ATOM      1  O   UNL     1       3.915   6.442  18.655  0.00  0.00    +0.000 OA
ATOM      2  C   UNL     1       3.843   5.418  17.983  0.00  0.00    +0.000 C 
ATOM      3  N   UNL     1       4.564   5.248  16.793  0.00  0.00    +0.000 N 
ATOM      4  C   UNL     1       4.570   4.063  15.931  0.00  0.00    +0.000 C 
ATOM      5  C   UNL     1       5.984   3.539  15.722  0.00  0.00    +0.000 C 
ATOM      6  C   UNL     1       6.926   4.619  15.173  0.00  0.00    +0.000 C 
ATOM      7  C   UNL     1       6.862   5.844  16.108  0.00  0.00    +0.000 C 
ATOM      8  C   UNL     1       5.430   6.339  16.343  0.00  0.00    +0.000 C 
ENDROOT
BRANCH   2   9
ATOM      9  C   UNL     1       3.031   4.313  18.552  0.00  0.00    +0.000 A 
ATOM     10  C   UNL     1       1.696   4.208  18.129  0.00  0.00    +0.000 A 
ATOM     11  C   UNL     1       0.856   3.229  18.669  0.00  0.00    +0.000 A 
ATOM     12  C   UNL     1       1.339   2.361  19.646  0.00  0.00    +0.000 A 
ATOM     13  C   UNL     1       2.677   2.427  20.032  0.00  0.00    +0.000 A 
ATOM     14  C   UNL     1       3.524   3.368  19.448  0.00  0.00    +0.000 A 
ATOM     15  F   UNL     1       4.822   3.344  19.790  0.00  0.00    +0.000 F 
ENDBRANCH   2   9
BRANCH   6  16
ATOM     16  C   UNL     1       6.621   5.019  13.711  0.00  0.00    +0.000 C 
BRANCH  16  17
ATOM     17  C   UNL     1       6.405   3.869  12.754  0.00  0.00    +0.000 A 
ATOM     18  C   UNL     1       5.105   3.491  12.390  0.00  0.00    +0.000 A 
ATOM     19  C   UNL     1       4.892   2.457  11.474  0.00  0.00    +0.000 A 
ATOM     20  C   UNL     1       5.977   1.790  10.913  0.00  0.00    +0.000 A 
ATOM     21  C   UNL     1       7.275   2.154  11.268  0.00  0.00    +0.000 A 
ATOM     22  C   UNL     1       7.488   3.190  12.181  0.00  0.00    +0.000 A 
ENDBRANCH  16  17
ENDBRANCH   6  16
TORSDOF 3
ENDMDL
MODEL 5
REMARK VINA RESULT:      -7.3      1.457      1.972
REMARK  Name = 
REMARK  3 active torsions:
REMARK  status: ('A' for Active; 'I' for Inactive)
REMARK    1  A    between atoms: C_2  and  C_3
REMARK    2  A    between atoms: C_13  and  C_14
REMARK    3  A    between atoms: C_14  and  C_15
REMARK                            x       y       z     vdW  Elec       q    Type
REMARK                         _______ _______ _______ _____ _____    ______ ____
ROOT
ATOM      1  O   UNL     1       4.923   6.026  19.774  0.00  0.00    +0.000 OA
ATOM      2  C   UNL     1       4.405   5.229  18.997  0.00  0.00    +0.000 C 
ATOM      3  N   UNL     1       4.858   5.060  17.682  0.00  0.00    +0.000 N 
ATOM      4  C   UNL     1       4.331   4.125  16.684  0.00  0.00    +0.000 C 
ATOM      5  C   UNL     1       5.426   3.216  16.146  0.00  0.00    +0.000 C 
ATOM      6  C   UNL     1       6.612   4.009  15.579  0.00  0.00    +0.000 C 
ATOM      7  C   UNL     1       7.109   4.986  16.664  0.00  0.00    +0.000 C 
ATOM      8  C   UNL     1       5.989   5.871  17.227  0.00  0.00    +0.000 C 
ENDROOT
BRANCH   2   9
ATOM      9  C   UNL     1       3.335   4.366  19.557  0.00  0.00    +0.000 A 
ATOM     10  C   UNL     1       2.039   4.905  19.625  0.00  0.00    +0.000 A 
ATOM     11  C   UNL     1       0.996   4.171  20.196  0.00  0.00    +0.000 A 
ATOM     12  C   UNL     1       1.241   2.902  20.717  0.00  0.00    +0.000 A 
ATOM     13  C   UNL     1       2.513   2.341  20.605  0.00  0.00    +0.000 A 
ATOM     14  C   UNL     1       3.537   3.056  19.983  0.00  0.00    +0.000 A 
ATOM     15  F   UNL     1       4.722   2.447  19.826  0.00  0.00    +0.000 F 
ENDBRANCH   2   9
BRANCH   6  16
ATOM     16  C   UNL     1       6.281   4.757  14.267  0.00  0.00    +0.000 C 
BRANCH  16  17
ATOM     17  C   UNL     1       5.967   3.876  13.078  0.00  0.00    +0.000 A 
ATOM     18  C   UNL     1       6.977   3.104  12.488  0.00  0.00    +0.000 A 
ATOM     19  C   UNL     1       6.691   2.255  11.415  0.00  0.00    +0.000 A 
ATOM     20  C   UNL     1       5.392   2.168  10.923  0.00  0.00    +0.000 A 
ATOM     21  C   UNL     1       4.379   2.931  11.499  0.00  0.00    +0.000 A 
ATOM     22  C   UNL     1       4.664   3.778  12.573  0.00  0.00    +0.000 A 
ENDBRANCH  16  17
ENDBRANCH   6  16
TORSDOF 3
ENDMDL
MODEL 6
REMARK VINA RESULT:      -7.1      1.237      1.483
REMARK  Name = 
REMARK  3 active torsions:
REMARK  status: ('A' for Active; 'I' for Inactive)
REMARK    1  A    between atoms: C_2  and  C_3
REMARK    2  A    between atoms: C_13  and  C_14
REMARK    3  A    between atoms: C_14  and  C_15
REMARK                            x       y       z     vdW  Elec       q    Type
REMARK                         _______ _______ _______ _____ _____    ______ ____
ROOT
ATOM      1  O   UNL     1       2.863   6.950  19.740  0.00  0.00    +0.000 OA
ATOM      2  C   UNL     1       2.895   5.904  19.099  0.00  0.00    +0.000 C 
ATOM      3  N   UNL     1       3.574   5.792  17.878  0.00  0.00    +0.000 N 
ATOM      4  C   UNL     1       3.695   4.590  17.047  0.00  0.00    +0.000 C 
ATOM      5  C   UNL     1       5.153   4.250  16.777  0.00  0.00    +0.000 C 
ATOM      6  C   UNL     1       5.916   5.426  16.152  0.00  0.00    +0.000 C 
ATOM      7  C   UNL     1       5.736   6.661  17.057  0.00  0.00    +0.000 C 
ATOM      8  C   UNL     1       4.264   6.972  17.355  0.00  0.00    +0.000 C 
ENDROOT
BRANCH   2   9
ATOM      9  C   UNL     1       2.266   4.721  19.739  0.00  0.00    +0.000 A 
ATOM     10  C   UNL     1       2.601   4.455  21.076  0.00  0.00    +0.000 A 
ATOM     11  C   UNL     1       2.093   3.325  21.723  0.00  0.00    +0.000 A 
ATOM     12  C   UNL     1       1.261   2.444  21.034  0.00  0.00    +0.000 A 
ATOM     13  C   UNL     1       0.883   2.731  19.723  0.00  0.00    +0.000 A 
ATOM     14  C   UNL     1       1.348   3.890  19.102  0.00  0.00    +0.000 A 
ATOM     15  F   UNL     1       0.895   4.167  17.869  0.00  0.00    +0.000 F 
ENDBRANCH   2   9
BRANCH   6  16
ATOM     16  C   UNL     1       5.489   5.735  14.698  0.00  0.00    +0.000 C 
BRANCH  16  17
ATOM     17  C   UNL     1       5.971   4.751  13.656  0.00  0.00    +0.000 A 
ATOM     18  C   UNL     1       5.128   3.719  13.220  0.00  0.00    +0.000 A 
ATOM     19  C   UNL     1       5.546   2.828  12.227  0.00  0.00    +0.000 A 
ATOM     20  C   UNL     1       6.810   2.960  11.661  0.00  0.00    +0.000 A 
ATOM     21  C   UNL     1       7.659   3.980  12.087  0.00  0.00    +0.000 A 
ATOM     22  C   UNL     1       7.241   4.872  13.077  0.00  0.00    +0.000 A 
ENDBRANCH  16  17
ENDBRANCH   6  16
TORSDOF 3
ENDMDL
MODEL 7
REMARK VINA RESULT:      -6.9      1.413      1.797
REMARK  Name = 
REMARK  3 active torsions:
REMARK  status: ('A' for Active; 'I' for Inactive)
REMARK    1  A    between atoms: C_2  and  C_3
REMARK    2  A    between atoms: C_13  and  C_14
REMARK    3  A    between atoms: C_14  and  C_15
REMARK                            x       y       z     vdW  Elec       q    Type
REMARK                         _______ _______ _______ _____ _____    ______ ____
ROOT
ATOM      1  O   UNL     1       5.554   5.914  19.781  0.00  0.00    +0.000 OA
ATOM      2  C   UNL     1       4.810   5.282  19.037  0.00  0.00    +0.000 C 
ATOM      3  N   UNL     1       5.117   5.049  17.689  0.00  0.00    +0.000 N 
ATOM      4  C   UNL     1       4.316   4.291  16.723  0.00  0.00    +0.000 C 
ATOM      5  C   UNL     1       5.126   3.167  16.095  0.00  0.00    +0.000 C 
ATOM      6  C   UNL     1       6.421   3.678  15.449  0.00  0.00    +0.000 C 
ATOM      7  C   UNL     1       7.209   4.481  16.503  0.00  0.00    +0.000 C 
ATOM      8  C   UNL     1       6.371   5.586  17.158  0.00  0.00    +0.000 C 
ENDROOT
BRANCH   2   9
ATOM      9  C   UNL     1       3.610   4.677  19.666  0.00  0.00    +0.000 A 
ATOM     10  C   UNL     1       3.669   3.312  19.991  0.00  0.00    +0.000 A 
ATOM     11  C   UNL     1       2.555   2.663  20.531  0.00  0.00    +0.000 A 
ATOM     12  C   UNL     1       1.370   3.368  20.734  0.00  0.00    +0.000 A 
ATOM     13  C   UNL     1       1.321   4.735  20.461  0.00  0.00    +0.000 A 
ATOM     14  C   UNL     1       2.454   5.389  19.977  0.00  0.00    +0.000 A 
ATOM     15  F   UNL     1       2.386   6.718  19.805  0.00  0.00    +0.000 F 
ENDBRANCH   2   9
BRANCH   6  16
ATOM     16  C   UNL     1       6.184   4.518  14.173  0.00  0.00    +0.000 C 
BRANCH  16  17
ATOM     17  C   UNL     1       5.750   3.738  12.952  0.00  0.00    +0.000 A 
ATOM     18  C   UNL     1       6.605   2.780  12.389  0.00  0.00    +0.000 A 
ATOM     19  C   UNL     1       6.201   2.023  11.287  0.00  0.00    +0.000 A 
ATOM     20  C   UNL     1       4.938   2.216  10.735  0.00  0.00    +0.000 A 
ATOM     21  C   UNL     1       4.079   3.166  11.283  0.00  0.00    +0.000 A 
ATOM     22  C   UNL     1       4.482   3.921  12.387  0.00  0.00    +0.000 A 
ENDBRANCH  16  17
ENDBRANCH   6  16
TORSDOF 3
ENDMDL
MODEL 8
REMARK VINA RESULT:      -6.8      1.309      1.895
REMARK  Name = 
REMARK  3 active torsions:
REMARK  status: ('A' for Active; 'I' for Inactive)
REMARK    1  A    between atoms: C_2  and  C_3
REMARK    2  A    between atoms: C_13  and  C_14
REMARK    3  A    between atoms: C_14  and  C_15
REMARK                            x       y       z     vdW  Elec       q    Type
REMARK                         _______ _______ _______ _____ _____    ______ ____
ROOT
ATOM      1  O   UNL     1       2.661   6.960  19.823  0.00  0.00    +0.000 OA
ATOM      2  C   UNL     1       2.741   5.913  19.188  0.00  0.00    +0.000 C 
ATOM      3  N   UNL     1       3.418   5.827  17.963  0.00  0.00    +0.000 N 
ATOM      4  C   UNL     1       3.594   4.628  17.139  0.00  0.00    +0.000 C 
ATOM      5  C   UNL     1       5.066   4.359  16.863  0.00  0.00    +0.000 C 
ATOM      6  C   UNL     1       5.766   5.568  16.226  0.00  0.00    +0.000 C 
ATOM      7  C   UNL     1       5.530   6.798  17.126  0.00  0.00    +0.000 C 
ATOM      8  C   UNL     1       4.046   7.037  17.430  0.00  0.00    +0.000 C 
ENDROOT
BRANCH   2   9
ATOM      9  C   UNL     1       2.175   4.704  19.838  0.00  0.00    +0.000 A 
ATOM     10  C   UNL     1       2.545   4.453  21.169  0.00  0.00    +0.000 A 
ATOM     11  C   UNL     1       2.098   3.302  21.824  0.00  0.00    +0.000 A 
ATOM     12  C   UNL     1       1.292   2.387  21.149  0.00  0.00    +0.000 A 
ATOM     13  C   UNL     1       0.879   2.657  19.846  0.00  0.00    +0.000 A 
ATOM     14  C   UNL     1       1.282   3.834  19.217  0.00  0.00    +0.000 A 
ATOM     15  F   UNL     1       0.796   4.092  17.993  0.00  0.00    +0.000 F 
ENDBRANCH   2   9
BRANCH   6  16
ATOM     16  C   UNL     1       5.317   5.847  14.774  0.00  0.00    +0.000 C 
BRANCH  16  17
ATOM     17  C   UNL     1       5.882   4.912  13.727  0.00  0.00    +0.000 A 
ATOM     18  C   UNL     1       7.223   5.027  13.333  0.00  0.00    +0.000 A 
ATOM     19  C   UNL     1       7.769   4.144  12.398  0.00  0.00    +0.000 A 
ATOM     20  C   UNL     1       6.981   3.137  11.848  0.00  0.00    +0.000 A 
ATOM     21  C   UNL     1       5.647   3.013  12.230  0.00  0.00    +0.000 A 
ATOM     22  C   UNL     1       5.101   3.894  13.167  0.00  0.00    +0.000 A 
ENDBRANCH  16  17
ENDBRANCH   6  16
TORSDOF 3
ENDMDL
MODEL 9
REMARK VINA RESULT:      -6.8      1.284      1.357
REMARK  Name = 
REMARK  3 active torsions:
REMARK  status: ('A' for Active; 'I' for Inactive)
REMARK    1  A    between atoms: C_2  and  C_3
REMARK    2  A    between atoms: C_13  and  C_14
REMARK    3  A    between atoms: C_14  and  C_15
REMARK                            x       y       z     vdW  Elec       q    Type
REMARK                         _______ _______ _______ _____ _____    ______ ____
ROOT
ATOM      1  O   UNL     1       5.191   5.876  19.712  0.00  0.00    +0.000 OA
ATOM      2  C   UNL     1       4.572   5.171  18.921  0.00  0.00    +0.000 C 
ATOM      3  N   UNL     1       5.003   4.964  17.603  0.00  0.00    +0.000 N 
ATOM      4  C   UNL     1       4.356   4.126  16.588  0.00  0.00    +0.000 C 
ATOM      5  C   UNL     1       5.320   3.085  16.037  0.00  0.00    +0.000 C 
ATOM      6  C   UNL     1       6.604   3.719  15.485  0.00  0.00    +0.000 C 
ATOM      7  C   UNL     1       7.226   4.601  16.587  0.00  0.00    +0.000 C 
ATOM      8  C   UNL     1       6.235   5.620  17.163  0.00  0.00    +0.000 C 
ENDROOT
BRANCH   2   9
ATOM      9  C   UNL     1       3.392   4.452  19.464  0.00  0.00    +0.000 A 
ATOM     10  C   UNL     1       3.466   3.052  19.538  0.00  0.00    +0.000 A 
ATOM     11  C   UNL     1       2.370   2.307  19.982  0.00  0.00    +0.000 A 
ATOM     12  C   UNL     1       1.188   2.953  20.340  0.00  0.00    +0.000 A 
ATOM     13  C   UNL     1       1.127   4.346  20.319  0.00  0.00    +0.000 A 
ATOM     14  C   UNL     1       2.242   5.086  19.929  0.00  0.00    +0.000 A 
ATOM     15  F   UNL     1       2.165   6.424  20.000  0.00  0.00    +0.000 F 
ENDBRANCH   2   9
BRANCH   6  16
ATOM     16  C   UNL     1       6.384   4.527  14.185  0.00  0.00    +0.000 C 
BRANCH  16  17
ATOM     17  C   UNL     1       5.867   3.733  13.006  0.00  0.00    +0.000 A 
ATOM     18  C   UNL     1       4.565   3.943  12.533  0.00  0.00    +0.000 A 
ATOM     19  C   UNL     1       4.090   3.246  11.419  0.00  0.00    +0.000 A 
ATOM     20  C   UNL     1       4.912   2.333  10.766  0.00  0.00    +0.000 A 
ATOM     21  C   UNL     1       6.208   2.113  11.227  0.00  0.00    +0.000 A 
ATOM     22  C   UNL     1       6.685   2.811  12.339  0.00  0.00    +0.000 A 
ENDBRANCH  16  17
ENDBRANCH   6  16
TORSDOF 3
ENDMDL
