MODEL 1
REMARK VINA RESULT:      -8.8      0.000      0.000
REMARK  Name = 
REMARK  6 active torsions:
REMARK  status: ('A' for Active; 'I' for Inactive)
REMARK    1  A    between atoms: C_1  and  C_2
REMARK    2  A    between atoms: C_2  and  C_3
REMARK    3  A    between atoms: C_3  and  C_4
REMARK    4  A    between atoms: C_7  and  C_8
REMARK    5  A    between atoms: C_10  and  C_11
REMARK    6  A    between atoms: C_17  and  N_18
REMARK                            x       y       z     vdW  Elec       q    Type
REMARK                         _______ _______ _______ _____ _____    ______ ____
ROOT
ATOM      1  C   UNL     1       1.967   8.209  18.892  0.00  0.00    +0.000 A 
ATOM      2  C   UNL     1       1.301   9.188  18.182  0.00  0.00    +0.000 A 
ATOM      3  C   UNL     1       0.878  10.314  18.867  0.00  0.00    +0.000 A 
ATOM      4  C   UNL     1       0.501  10.141  20.189  0.00  0.00    +0.000 A 
ATOM      5  C   UNL     1      -0.443  10.999  20.784  0.00  0.00    +0.000 A 
ATOM      6  C   UNL     1      -0.797  10.813  22.110  0.00  0.00    +0.000 A 
ATOM      7  C   UNL     1      -0.160   9.813  22.838  0.00  0.00    +0.000 A 
ATOM      8  C   UNL     1       0.783   8.970  22.227  0.00  0.00    +0.000 A 
ATOM      9  C   UNL     1       1.101   9.081  20.876  0.00  0.00    +0.000 A 
ATOM     10  N   UNL     1       1.915   8.191  20.244  0.00  0.00    +0.000 NA
ENDROOT
BRANCH   3  11
ATOM     11  C   UNL     1       1.734  11.537  18.650  0.00  0.00    +0.000 C 
ATOM     12  O   UNL     1       2.672  11.505  17.858  0.00  0.00    +0.000 OA
ATOM     13  N   UNL     1       1.378  12.659  19.372  0.00  0.00    +0.000 N 
ATOM     14  C   UNL     1       2.122  13.834  19.283  0.00  0.00    +0.000 A 
ATOM     15  C   UNL     1       2.529  14.371  18.061  0.00  0.00    +0.000 A 
ATOM     16  C   UNL     1       3.387  15.469  18.065  0.00  0.00    +0.000 A 
ATOM     17  C   UNL     1       3.823  15.961  19.293  0.00  0.00    +0.000 A 
ATOM     18  C   UNL     1       3.330  15.395  20.459  0.00  0.00    +0.000 A 
ATOM     19  N   UNL     1       2.444  14.368  20.474  0.00  0.00    +0.000 NA
ATOM     20  H   UNL     1       0.959  12.518  20.277  0.00  0.00    +0.000 HD
BRANCH  17  21
ATOM     21  N   UNL     1       4.802  17.033  19.378  0.00  0.00    +0.000 N 
ATOM     22  O   UNL     1       5.850  16.909  18.727  0.00  0.00    +0.000 OA
ATOM     23  O   UNL     1       4.531  18.005  20.095  0.00  0.00    +0.000 OA
ENDBRANCH  17  21
ENDBRANCH   3  11
BRANCH   1  27
ATOM     24  C   UNL     1       4.116   4.925  17.111  0.00  0.00    +0.000 A 
ATOM     25  C   UNL     1       2.890   4.706  17.754  0.00  0.00    +0.000 A 
ATOM     26  C   UNL     1       2.164   5.769  18.257  0.00  0.00    +0.000 A 
ATOM     27  C   UNL     1       2.643   7.105  18.182  0.00  0.00    +0.000 A 
ATOM     28  C   UNL     1       3.814   7.315  17.451  0.00  0.00    +0.000 A 
ATOM     29  C   UNL     1       4.546   6.248  16.936  0.00  0.00    +0.000 A 
BRANCH  24  30
ATOM     30  C   UNL     1       4.985   3.779  16.647  0.00  0.00    +0.000 C 
BRANCH  30  32
ATOM     31  C   UNL     1       6.107   3.968  14.370  0.00  0.00    +0.000 C 
ATOM     32  C   UNL     1       6.236   4.191  15.868  0.00  0.00    +0.000 C 
ENDBRANCH  30  32
ENDBRANCH  24  30
ENDBRANCH   1  27
TORSDOF 5
ENDMDL
MODEL 2
REMARK VINA RESULT:      -8.6      0.818      1.255
REMARK  Name = 
REMARK  6 active torsions:
REMARK  status: ('A' for Active; 'I' for Inactive)
REMARK    1  A    between atoms: C_1  and  C_2
REMARK    2  A    between atoms: C_2  and  C_3
REMARK    3  A    between atoms: C_3  and  C_4
REMARK    4  A    between atoms: C_7  and  C_8
REMARK    5  A    between atoms: C_10  and  C_11
REMARK    6  A    between atoms: C_17  and  N_18
REMARK                            x       y       z     vdW  Elec       q    Type
REMARK                         _______ _______ _______ _____ _____    ______ ____
ROOT
ATOM      1  C   UNL     1       2.453   7.834  18.595  0.00  0.00    +0.000 A 
ATOM      2  C   UNL     1       1.806   8.765  17.808  0.00  0.00    +0.000 A 
ATOM      3  C   UNL     1       1.201   9.839  18.437  0.00  0.00    +0.000 A 
ATOM      4  C   UNL     1       0.668   9.613  19.695  0.00  0.00    +0.000 A 
ATOM      5  C   UNL     1      -0.417  10.378  20.164  0.00  0.00    +0.000 A 
ATOM      6  C   UNL     1      -0.926  10.141  21.429  0.00  0.00    +0.000 A 
ATOM      7  C   UNL     1      -0.309   9.186  22.231  0.00  0.00    +0.000 A 
ATOM      8  C   UNL     1       0.776   8.436  21.746  0.00  0.00    +0.000 A 
ATOM      9  C   UNL     1       1.260   8.595  20.450  0.00  0.00    +0.000 A 
ATOM     10  N   UNL     1       2.224   7.788  19.928  0.00  0.00    +0.000 NA
ENDROOT
BRANCH   3  11
ATOM     11  C   UNL     1       1.970  11.133  18.343  0.00  0.00    +0.000 C 
ATOM     12  O   UNL     1       2.745  11.328  17.410  0.00  0.00    +0.000 OA
ATOM     13  N   UNL     1       1.725  12.055  19.342  0.00  0.00    +0.000 N 
ATOM     14  C   UNL     1       2.410  13.268  19.380  0.00  0.00    +0.000 A 
ATOM     15  C   UNL     1       2.568  14.074  18.252  0.00  0.00    +0.000 A 
ATOM     16  C   UNL     1       3.384  15.200  18.342  0.00  0.00    +0.000 A 
ATOM     17  C   UNL     1       4.028  15.453  19.552  0.00  0.00    +0.000 A 
ATOM     18  C   UNL     1       3.775  14.625  20.635  0.00  0.00    +0.000 A 
ATOM     19  N   UNL     1       2.934  13.562  20.583  0.00  0.00    +0.000 NA
ATOM     20  H   UNL     1       1.486  11.702  20.254  0.00  0.00    +0.000 HD
BRANCH  17  21
ATOM     21  N   UNL     1       4.978  16.545  19.693  0.00  0.00    +0.000 N 
ATOM     22  O   UNL     1       4.739  17.599  19.086  0.00  0.00    +0.000 OA
ATOM     23  O   UNL     1       5.969  16.356  20.411  0.00  0.00    +0.000 OA
ENDBRANCH  17  21
ENDBRANCH   3  11
BRANCH   1  27
ATOM     24  C   UNL     1       4.755   4.852  16.501  0.00  0.00    +0.000 A 
ATOM     25  C   UNL     1       5.115   6.205  16.431  0.00  0.00    +0.000 A 
ATOM     26  C   UNL     1       4.424   7.151  17.164  0.00  0.00    +0.000 A 
ATOM     27  C   UNL     1       3.309   6.803  17.975  0.00  0.00    +0.000 A 
ATOM     28  C   UNL     1       3.030   5.442  18.111  0.00  0.00    +0.000 A 
ATOM     29  C   UNL     1       3.728   4.483  17.380  0.00  0.00    +0.000 A 
BRANCH  24  30
ATOM     30  C   UNL     1       5.418   3.809  15.632  0.00  0.00    +0.000 C 
BRANCH  30  32
ATOM     31  C   UNL     1       5.794   3.802  13.113  0.00  0.00    +0.000 C 
ATOM     32  C   UNL     1       6.227   4.365  14.458  0.00  0.00    +0.000 C 
ENDBRANCH  30  32
ENDBRANCH  24  30
ENDBRANCH   1  27
TORSDOF 5
ENDMDL
MODEL 3
REMARK VINA RESULT:      -8.5      0.815      1.181
REMARK  Name = 
REMARK  6 active torsions:
REMARK  status: ('A' for Active; 'I' for Inactive)
REMARK    1  A    between atoms: C_1  and  C_2
REMARK    2  A    between atoms: C_2  and  C_3
REMARK    3  A    between atoms: C_3  and  C_4
REMARK    4  A    between atoms: C_7  and  C_8
REMARK    5  A    between atoms: C_10  and  C_11
REMARK    6  A    between atoms: C_17  and  N_18
REMARK                            x       y       z     vdW  Elec       q    Type
REMARK                         _______ _______ _______ _____ _____    ______ ____
ROOT
ATOM      1  C   UNL     1       1.865   8.385  19.454  0.00  0.00    +0.000 A 
ATOM      2  C   UNL     1       1.260   9.332  18.652  0.00  0.00    +0.000 A 
ATOM      3  C   UNL     1       0.766  10.475  19.256  0.00  0.00    +0.000 A 
ATOM      4  C   UNL     1       0.269  10.342  20.542  0.00  0.00    +0.000 A 
ATOM      5  C   UNL     1      -0.733  11.209  21.018  0.00  0.00    +0.000 A 
ATOM      6  C   UNL     1      -1.207  11.064  22.311  0.00  0.00    +0.000 A 
ATOM      7  C   UNL     1      -0.633  10.096  23.129  0.00  0.00    +0.000 A 
ATOM      8  C   UNL     1       0.370   9.244  22.637  0.00  0.00    +0.000 A 
ATOM      9  C   UNL     1       0.811   9.312  21.318  0.00  0.00    +0.000 A 
ATOM     10  N   UNL     1       1.688   8.411  20.795  0.00  0.00    +0.000 NA
ENDROOT
BRANCH   3  11
ATOM     11  C   UNL     1       1.629  11.699  19.077  0.00  0.00    +0.000 C 
ATOM     12  O   UNL     1       2.227  11.888  18.021  0.00  0.00    +0.000 OA
ATOM     13  N   UNL     1       1.673  12.569  20.149  0.00  0.00    +0.000 N 
ATOM     14  C   UNL     1       2.469  13.711  20.113  0.00  0.00    +0.000 A 
ATOM     15  C   UNL     1       2.489  14.575  19.017  0.00  0.00    +0.000 A 
ATOM     16  C   UNL     1       3.416  15.616  19.001  0.00  0.00    +0.000 A 
ATOM     17  C   UNL     1       4.300  15.727  20.072  0.00  0.00    +0.000 A 
ATOM     18  C   UNL     1       4.178  14.853  21.141  0.00  0.00    +0.000 A 
ATOM     19  N   UNL     1       3.240  13.875  21.202  0.00  0.00    +0.000 NA
ATOM     20  H   UNL     1       1.578  12.177  21.072  0.00  0.00    +0.000 HD
BRANCH  17  21
ATOM     21  N   UNL     1       5.365  16.719  20.078  0.00  0.00    +0.000 N 
ATOM     22  O   UNL     1       5.416  17.514  19.128  0.00  0.00    +0.000 OA
ATOM     23  O   UNL     1       6.155  16.709  21.030  0.00  0.00    +0.000 OA
ENDBRANCH  17  21
ENDBRANCH   3  11
BRANCH   1  27
ATOM     24  C   UNL     1       3.804   5.106  17.437  0.00  0.00    +0.000 A 
ATOM     25  C   UNL     1       4.127   6.430  17.112  0.00  0.00    +0.000 A 
ATOM     26  C   UNL     1       3.563   7.480  17.812  0.00  0.00    +0.000 A 
ATOM     27  C   UNL     1       2.613   7.265  18.848  0.00  0.00    +0.000 A 
ATOM     28  C   UNL     1       2.380   5.942  19.224  0.00  0.00    +0.000 A 
ATOM     29  C   UNL     1       2.951   4.879  18.527  0.00  0.00    +0.000 A 
BRANCH  24  30
ATOM     30  C   UNL     1       4.318   3.941  16.624  0.00  0.00    +0.000 C 
BRANCH  30  32
ATOM     31  C   UNL     1       5.821   4.202  14.586  0.00  0.00    +0.000 C 
ATOM     32  C   UNL     1       5.747   4.099  16.101  0.00  0.00    +0.000 C 
ENDBRANCH  30  32
ENDBRANCH  24  30
ENDBRANCH   1  27
TORSDOF 5
ENDMDL
MODEL 4
REMARK VINA RESULT:      -8.4      1.182      1.807
REMARK  Name = 
REMARK  6 active torsions:
REMARK  status: ('A' for Active; 'I' for Inactive)
REMARK    1  A    between atoms: C_1  and  C_2
REMARK    2  A    between atoms: C_2  and  C_3
REMARK    3  A    between atoms: C_3  and  C_4
REMARK    4  A    between atoms: C_7  and  C_8
REMARK    5  A    between atoms: C_10  and  C_11
REMARK    6  A    between atoms: C_17  and  N_18
REMARK                            x       y       z     vdW  Elec       q    Type
REMARK                         _______ _______ _______ _____ _____    ______ ____
ROOT
ATOM      1  C   UNL     1       1.714   8.501  19.533  0.00  0.00    +0.000 A 
ATOM      2  C   UNL     1       1.227   9.402  18.607  0.00  0.00    +0.000 A 
ATOM      3  C   UNL     1       0.798  10.636  19.064  0.00  0.00    +0.000 A 
ATOM      4  C   UNL     1       0.231  10.676  20.327  0.00  0.00    +0.000 A 
ATOM      5  C   UNL     1      -0.721  11.661  20.655  0.00  0.00    +0.000 A 
ATOM      6  C   UNL     1      -1.267  11.688  21.927  0.00  0.00    +0.000 A 
ATOM      7  C   UNL     1      -0.813  10.771  22.870  0.00  0.00    +0.000 A 
ATOM      8  C   UNL     1       0.141   9.799  22.524  0.00  0.00    +0.000 A 
ATOM      9  C   UNL     1       0.650   9.695  21.232  0.00  0.00    +0.000 A 
ATOM     10  N   UNL     1       1.475   8.681  20.853  0.00  0.00    +0.000 NA
ENDROOT
BRANCH   3  11
ATOM     11  C   UNL     1       1.764  11.767  18.812  0.00  0.00    +0.000 C 
ATOM     12  O   UNL     1       2.490  11.753  17.821  0.00  0.00    +0.000 OA
ATOM     13  N   UNL     1       1.752  12.790  19.740  0.00  0.00    +0.000 N 
ATOM     14  C   UNL     1       2.630  13.865  19.632  0.00  0.00    +0.000 A 
ATOM     15  C   UNL     1       2.838  14.544  18.430  0.00  0.00    +0.000 A 
ATOM     16  C   UNL     1       3.835  15.516  18.373  0.00  0.00    +0.000 A 
ATOM     17  C   UNL     1       4.599  15.744  19.516  0.00  0.00    +0.000 A 
ATOM     18  C   UNL     1       4.292  15.056  20.680  0.00  0.00    +0.000 A 
ATOM     19  N   UNL     1       3.284  14.154  20.771  0.00  0.00    +0.000 NA
ATOM     20  H   UNL     1       1.525  12.553  20.692  0.00  0.00    +0.000 HD
BRANCH  17  21
ATOM     21  N   UNL     1       5.727  16.663  19.504  0.00  0.00    +0.000 N 
ATOM     22  O   UNL     1       5.481  17.877  19.556  0.00  0.00    +0.000 OA
ATOM     23  O   UNL     1       6.864  16.177  19.444  0.00  0.00    +0.000 OA
ENDBRANCH  17  21
ENDBRANCH   3  11
BRANCH   1  27
ATOM     24  C   UNL     1       3.444   4.859  18.010  0.00  0.00    +0.000 A 
ATOM     25  C   UNL     1       3.740   6.091  17.410  0.00  0.00    +0.000 A 
ATOM     26  C   UNL     1       3.247   7.266  17.946  0.00  0.00    +0.000 A 
ATOM     27  C   UNL     1       2.398   7.272  19.086  0.00  0.00    +0.000 A 
ATOM     28  C   UNL     1       2.197   6.049  19.727  0.00  0.00    +0.000 A 
ATOM     29  C   UNL     1       2.697   4.861  19.197  0.00  0.00    +0.000 A 
BRANCH  24  30
ATOM     30  C   UNL     1       3.876   3.550  17.391  0.00  0.00    +0.000 C 
BRANCH  30  32
ATOM     31  C   UNL     1       3.657   1.310  18.581  0.00  0.00    +0.000 C 
ATOM     32  C   UNL     1       2.975   2.355  17.712  0.00  0.00    +0.000 C 
ENDBRANCH  30  32
ENDBRANCH  24  30
ENDBRANCH   1  27
TORSDOF 5
ENDMDL
MODEL 5
REMARK VINA RESULT:      -8.4      1.419      2.017
REMARK  Name = 
REMARK  6 active torsions:
REMARK  status: ('A' for Active; 'I' for Inactive)
REMARK    1  A    between atoms: C_1  and  C_2
REMARK    2  A    between atoms: C_2  and  C_3
REMARK    3  A    between atoms: C_3  and  C_4
REMARK    4  A    between atoms: C_7  and  C_8
REMARK    5  A    between atoms: C_10  and  C_11
REMARK    6  A    between atoms: C_17  and  N_18
REMARK                            x       y       z     vdW  Elec       q    Type
REMARK                         _______ _______ _______ _____ _____    ______ ____
ROOT
ATOM      1  C   UNL     1       0.968   9.517  19.769  0.00  0.00    +0.000 A 
ATOM      2  C   UNL     1       0.371  10.399  18.890  0.00  0.00    +0.000 A 
ATOM      3  C   UNL     1      -0.175  11.561  19.407  0.00  0.00    +0.000 A 
ATOM      4  C   UNL     1      -0.717  11.490  20.679  0.00  0.00    +0.000 A 
ATOM      5  C   UNL     1      -1.759  12.356  21.065  0.00  0.00    +0.000 A 
ATOM      6  C   UNL     1      -2.279  12.273  22.345  0.00  0.00    +0.000 A 
ATOM      7  C   UNL     1      -1.713  11.371  23.240  0.00  0.00    +0.000 A 
ATOM      8  C   UNL     1      -0.670  10.519  22.837  0.00  0.00    +0.000 A 
ATOM      9  C   UNL     1      -0.180  10.523  21.534  0.00  0.00    +0.000 A 
ATOM     10  N   UNL     1       0.738   9.617  21.099  0.00  0.00    +0.000 NA
ENDROOT
BRANCH   3  11
ATOM     11  C   UNL     1       0.663  12.797  19.188  0.00  0.00    +0.000 C 
ATOM     12  O   UNL     1       0.593  13.414  18.128  0.00  0.00    +0.000 OA
ATOM     13  N   UNL     1       1.468  13.175  20.244  0.00  0.00    +0.000 N 
ATOM     14  C   UNL     1       2.316  14.276  20.139  0.00  0.00    +0.000 A 
ATOM     15  C   UNL     1       1.891  15.501  19.623  0.00  0.00    +0.000 A 
ATOM     16  C   UNL     1       2.835  16.507  19.423  0.00  0.00    +0.000 A 
ATOM     17  C   UNL     1       4.167  16.230  19.721  0.00  0.00    +0.000 A 
ATOM     18  C   UNL     1       4.492  15.001  20.274  0.00  0.00    +0.000 A 
ATOM     19  N   UNL     1       3.578  14.034  20.536  0.00  0.00    +0.000 NA
ATOM     20  H   UNL     1       1.830  12.447  20.839  0.00  0.00    +0.000 HD
BRANCH  17  21
ATOM     21  N   UNL     1       5.224  17.188  19.437  0.00  0.00    +0.000 N 
ATOM     22  O   UNL     1       5.153  18.301  19.980  0.00  0.00    +0.000 OA
ATOM     23  O   UNL     1       6.130  16.835  18.672  0.00  0.00    +0.000 OA
ENDBRANCH  17  21
ENDBRANCH   3  11
BRANCH   1  27
ATOM     24  C   UNL     1       3.575   6.353  18.440  0.00  0.00    +0.000 A 
ATOM     25  C   UNL     1       2.873   6.235  19.648  0.00  0.00    +0.000 A 
ATOM     26  C   UNL     1       1.979   7.214  20.036  0.00  0.00    +0.000 A 
ATOM     27  C   UNL     1       1.767   8.386  19.259  0.00  0.00    +0.000 A 
ATOM     28  C   UNL     1       2.397   8.438  18.014  0.00  0.00    +0.000 A 
ATOM     29  C   UNL     1       3.294   7.450  17.614  0.00  0.00    +0.000 A 
BRANCH  24  30
ATOM     30  C   UNL     1       4.638   5.356  18.039  0.00  0.00    +0.000 C 
BRANCH  30  32
ATOM     31  C   UNL     1       3.081   3.507  17.240  0.00  0.00    +0.000 C 
ATOM     32  C   UNL     1       4.246   4.421  16.893  0.00  0.00    +0.000 C 
ENDBRANCH  30  32
ENDBRANCH  24  30
ENDBRANCH   1  27
TORSDOF 5
ENDMDL
MODEL 6
REMARK VINA RESULT:      -8.3      1.497      1.741
REMARK  Name = 
REMARK  6 active torsions:
REMARK  status: ('A' for Active; 'I' for Inactive)
REMARK    1  A    between atoms: C_1  and  C_2
REMARK    2  A    between atoms: C_2  and  C_3
REMARK    3  A    between atoms: C_3  and  C_4
REMARK    4  A    between atoms: C_7  and  C_8
REMARK    5  A    between atoms: C_10  and  C_11
REMARK    6  A    between atoms: C_17  and  N_18
REMARK                            x       y       z     vdW  Elec       q    Type
REMARK                         _______ _______ _______ _____ _____    ______ ____
ROOT
ATOM      1  C   UNL     1       1.479   8.509  19.828  0.00  0.00    +0.000 A 
ATOM      2  C   UNL     1       1.065   9.353  18.817  0.00  0.00    +0.000 A 
ATOM      3  C   UNL     1       0.695  10.642  19.158  0.00  0.00    +0.000 A 
ATOM      4  C   UNL     1       0.101  10.819  20.397  0.00  0.00    +0.000 A 
ATOM      5  C   UNL     1      -0.801  11.878  20.616  0.00  0.00    +0.000 A 
ATOM      6  C   UNL     1      -1.375  12.041  21.866  0.00  0.00    +0.000 A 
ATOM      7  C   UNL     1      -0.996  11.183  22.893  0.00  0.00    +0.000 A 
ATOM      8  C   UNL     1      -0.090  10.135  22.655  0.00  0.00    +0.000 A 
ATOM      9  C   UNL     1       0.443   9.897  21.391  0.00  0.00    +0.000 A 
ATOM     10  N   UNL     1       1.219   8.811  21.121  0.00  0.00    +0.000 NA
ENDROOT
BRANCH   3  11
ATOM     11  C   UNL     1       1.729  11.694  18.841  0.00  0.00    +0.000 C 
ATOM     12  O   UNL     1       2.478  11.557  17.878  0.00  0.00    +0.000 OA
ATOM     13  N   UNL     1       1.749  12.793  19.678  0.00  0.00    +0.000 N 
ATOM     14  C   UNL     1       2.689  13.807  19.507  0.00  0.00    +0.000 A 
ATOM     15  C   UNL     1       2.964  14.368  18.259  0.00  0.00    +0.000 A 
ATOM     16  C   UNL     1       4.016  15.277  18.150  0.00  0.00    +0.000 A 
ATOM     17  C   UNL     1       4.761  15.561  19.292  0.00  0.00    +0.000 A 
ATOM     18  C   UNL     1       4.386  14.994  20.501  0.00  0.00    +0.000 A 
ATOM     19  N   UNL     1       3.328  14.158  20.636  0.00  0.00    +0.000 NA
ATOM     20  H   UNL     1       1.485  12.651  20.640  0.00  0.00    +0.000 HD
BRANCH  17  21
ATOM     21  N   UNL     1       5.938  16.414  19.238  0.00  0.00    +0.000 N 
ATOM     22  O   UNL     1       7.045  15.880  19.403  0.00  0.00    +0.000 OA
ATOM     23  O   UNL     1       5.764  17.622  19.030  0.00  0.00    +0.000 OA
ENDBRANCH  17  21
ENDBRANCH   3  11
BRANCH   1  27
ATOM     24  C   UNL     1       3.580   4.824  19.060  0.00  0.00    +0.000 A 
ATOM     25  C   UNL     1       2.751   4.948  20.184  0.00  0.00    +0.000 A 
ATOM     26  C   UNL     1       2.018   6.102  20.388  0.00  0.00    +0.000 A 
ATOM     27  C   UNL     1       2.103   7.211  19.503  0.00  0.00    +0.000 A 
ATOM     28  C   UNL     1       2.854   7.031  18.340  0.00  0.00    +0.000 A 
ATOM     29  C   UNL     1       3.590   5.868  18.124  0.00  0.00    +0.000 A 
BRANCH  24  30
ATOM     30  C   UNL     1       4.476   3.624  18.864  0.00  0.00    +0.000 C 
BRANCH  30  32
ATOM     31  C   UNL     1       2.581   2.462  17.621  0.00  0.00    +0.000 C 
ATOM     32  C   UNL     1       3.743   2.308  18.591  0.00  0.00    +0.000 C 
ENDBRANCH  30  32
ENDBRANCH  24  30
ENDBRANCH   1  27
TORSDOF 5
ENDMDL
MODEL 7
REMARK VINA RESULT:      -8.3      1.649      2.414
REMARK  Name = 
REMARK  6 active torsions:
REMARK  status: ('A' for Active; 'I' for Inactive)
REMARK    1  A    between atoms: C_1  and  C_2
REMARK    2  A    between atoms: C_2  and  C_3
REMARK    3  A    between atoms: C_3  and  C_4
REMARK    4  A    between atoms: C_7  and  C_8
REMARK    5  A    between atoms: C_10  and  C_11
REMARK    6  A    between atoms: C_17  and  N_18
REMARK                            x       y       z     vdW  Elec       q    Type
REMARK                         _______ _______ _______ _____ _____    ______ ____
ROOT
ATOM      1  C   UNL     1       1.010   9.642  20.162  0.00  0.00    +0.000 A 
ATOM      2  C   UNL     1       0.833  10.759  19.371  0.00  0.00    +0.000 A 
ATOM      3  C   UNL     1       0.431  11.932  19.985  0.00  0.00    +0.000 A 
ATOM      4  C   UNL     1      -0.401  11.813  21.086  0.00  0.00    +0.000 A 
ATOM      5  C   UNL     1      -1.303  12.841  21.419  0.00  0.00    +0.000 A 
ATOM      6  C   UNL     1      -2.118  12.704  22.530  0.00  0.00    +0.000 A 
ATOM      7  C   UNL     1      -1.978  11.572  23.326  0.00  0.00    +0.000 A 
ATOM      8  C   UNL     1      -1.068  10.559  22.980  0.00  0.00    +0.000 A 
ATOM      9  C   UNL     1      -0.292  10.631  21.826  0.00  0.00    +0.000 A 
ATOM     10  N   UNL     1       0.497   9.601  21.413  0.00  0.00    +0.000 NA
ENDROOT
BRANCH   3  11
ATOM     11  C   UNL     1       1.532  12.945  20.181  0.00  0.00    +0.000 C 
ATOM     12  O   UNL     1       1.750  13.416  21.294  0.00  0.00    +0.000 OA
ATOM     13  N   UNL     1       2.261  13.270  19.054  0.00  0.00    +0.000 N 
ATOM     14  C   UNL     1       3.274  14.225  19.108  0.00  0.00    +0.000 A 
ATOM     15  C   UNL     1       4.244  14.231  20.112  0.00  0.00    +0.000 A 
ATOM     16  C   UNL     1       5.137  15.300  20.174  0.00  0.00    +0.000 A 
ATOM     17  C   UNL     1       5.000  16.328  19.244  0.00  0.00    +0.000 A 
ATOM     18  C   UNL     1       4.038  16.215  18.252  0.00  0.00    +0.000 A 
ATOM     19  N   UNL     1       3.204  15.153  18.138  0.00  0.00    +0.000 NA
ATOM     20  H   UNL     1       1.786  13.241  18.167  0.00  0.00    +0.000 HD
BRANCH  17  21
ATOM     21  N   UNL     1       5.822  17.526  19.310  0.00  0.00    +0.000 N 
ATOM     22  O   UNL     1       6.840  17.566  18.604  0.00  0.00    +0.000 OA
ATOM     23  O   UNL     1       5.456  18.434  20.068  0.00  0.00    +0.000 OA
ENDBRANCH  17  21
ENDBRANCH   3  11
BRANCH   1  27
ATOM     24  C   UNL     1       3.196   6.229  18.693  0.00  0.00    +0.000 A 
ATOM     25  C   UNL     1       2.558   6.181  19.940  0.00  0.00    +0.000 A 
ATOM     26  C   UNL     1       1.793   7.246  20.377  0.00  0.00    +0.000 A 
ATOM     27  C   UNL     1       1.657   8.435  19.609  0.00  0.00    +0.000 A 
ATOM     28  C   UNL     1       2.215   8.426  18.330  0.00  0.00    +0.000 A 
ATOM     29  C   UNL     1       2.981   7.352  17.881  0.00  0.00    +0.000 A 
BRANCH  24  30
ATOM     30  C   UNL     1       4.125   5.130  18.234  0.00  0.00    +0.000 C 
BRANCH  30  32
ATOM     31  C   UNL     1       2.111   3.710  17.596  0.00  0.00    +0.000 C 
ATOM     32  C   UNL     1       3.519   4.150  17.228  0.00  0.00    +0.000 C 
ENDBRANCH  30  32
ENDBRANCH  24  30
ENDBRANCH   1  27
TORSDOF 5
ENDMDL
MODEL 8
REMARK VINA RESULT:      -8.3      1.630      2.229
REMARK  Name = 
REMARK  6 active torsions:
REMARK  status: ('A' for Active; 'I' for Inactive)
REMARK    1  A    between atoms: C_1  and  C_2
REMARK    2  A    between atoms: C_2  and  C_3
REMARK    3  A    between atoms: C_3  and  C_4
REMARK    4  A    between atoms: C_7  and  C_8
REMARK    5  A    between atoms: C_10  and  C_11
REMARK    6  A    between atoms: C_17  and  N_18
REMARK                            x       y       z     vdW  Elec       q    Type
REMARK                         _______ _______ _______ _____ _____    ______ ____
ROOT
ATOM      1  C   UNL     1       0.940   9.550  19.934  0.00  0.00    +0.000 A 
ATOM      2  C   UNL     1       0.370  10.398  19.006  0.00  0.00    +0.000 A 
ATOM      3  C   UNL     1      -0.203  11.571  19.464  0.00  0.00    +0.000 A 
ATOM      4  C   UNL     1      -0.792  11.536  20.717  0.00  0.00    +0.000 A 
ATOM      5  C   UNL     1      -1.854  12.404  21.037  0.00  0.00    +0.000 A 
ATOM      6  C   UNL     1      -2.420  12.359  22.300  0.00  0.00    +0.000 A 
ATOM      7  C   UNL     1      -1.880  11.491  23.243  0.00  0.00    +0.000 A 
ATOM      8  C   UNL     1      -0.817  10.635  22.907  0.00  0.00    +0.000 A 
ATOM      9  C   UNL     1      -0.279  10.601  21.623  0.00  0.00    +0.000 A 
ATOM     10  N   UNL     1       0.661   9.690  21.251  0.00  0.00    +0.000 NA
ENDROOT
BRANCH   3  11
ATOM     11  C   UNL     1       0.632  12.806  19.236  0.00  0.00    +0.000 C 
ATOM     12  O   UNL     1       0.552  13.423  18.177  0.00  0.00    +0.000 OA
ATOM     13  N   UNL     1       1.448  13.185  20.284  0.00  0.00    +0.000 N 
ATOM     14  C   UNL     1       2.295  14.285  20.170  0.00  0.00    +0.000 A 
ATOM     15  C   UNL     1       1.865  15.511  19.658  0.00  0.00    +0.000 A 
ATOM     16  C   UNL     1       2.808  16.516  19.447  0.00  0.00    +0.000 A 
ATOM     17  C   UNL     1       4.143  16.238  19.732  0.00  0.00    +0.000 A 
ATOM     18  C   UNL     1       4.473  15.009  20.283  0.00  0.00    +0.000 A 
ATOM     19  N   UNL     1       3.561  14.044  20.554  0.00  0.00    +0.000 NA
ATOM     20  H   UNL     1       1.816  12.457  20.876  0.00  0.00    +0.000 HD
BRANCH  17  21
ATOM     21  N   UNL     1       5.197  17.197  19.438  0.00  0.00    +0.000 N 
ATOM     22  O   UNL     1       6.100  16.841  18.666  0.00  0.00    +0.000 OA
ATOM     23  O   UNL     1       5.129  18.309  19.975  0.00  0.00    +0.000 OA
ENDBRANCH  17  21
ENDBRANCH   3  11
BRANCH   1  27
ATOM     24  C   UNL     1       3.069   6.098  18.475  0.00  0.00    +0.000 A 
ATOM     25  C   UNL     1       3.036   7.281  17.725  0.00  0.00    +0.000 A 
ATOM     26  C   UNL     1       2.420   8.412  18.228  0.00  0.00    +0.000 A 
ATOM     27  C   UNL     1       1.766   8.409  19.490  0.00  0.00    +0.000 A 
ATOM     28  C   UNL     1       1.895   7.255  20.264  0.00  0.00    +0.000 A 
ATOM     29  C   UNL     1       2.522   6.115  19.766  0.00  0.00    +0.000 A 
BRANCH  24  30
ATOM     30  C   UNL     1       3.638   4.817  17.912  0.00  0.00    +0.000 C 
BRANCH  30  32
ATOM     31  C   UNL     1       5.888   5.120  19.065  0.00  0.00    +0.000 C 
ATOM     32  C   UNL     1       4.739   4.172  18.757  0.00  0.00    +0.000 C 
ENDBRANCH  30  32
ENDBRANCH  24  30
ENDBRANCH   1  27
TORSDOF 5
ENDMDL
MODEL 9
REMARK VINA RESULT:      -8.3      1.168      1.348
REMARK  Name = 
REMARK  6 active torsions:
REMARK  status: ('A' for Active; 'I' for Inactive)
REMARK    1  A    between atoms: C_1  and  C_2
REMARK    2  A    between atoms: C_2  and  C_3
REMARK    3  A    between atoms: C_3  and  C_4
REMARK    4  A    between atoms: C_7  and  C_8
REMARK    5  A    between atoms: C_10  and  C_11
REMARK    6  A    between atoms: C_17  and  N_18
REMARK                            x       y       z     vdW  Elec       q    Type
REMARK                         _______ _______ _______ _____ _____    ______ ____
ROOT
ATOM      1  C   UNL     1       1.733   8.548  19.491  0.00  0.00    +0.000 A 
ATOM      2  C   UNL     1       1.167   9.539  18.714  0.00  0.00    +0.000 A 
ATOM      3  C   UNL     1       0.688  10.670  19.351  0.00  0.00    +0.000 A 
ATOM      4  C   UNL     1       0.162  10.501  20.621  0.00  0.00    +0.000 A 
ATOM      5  C   UNL     1      -0.829  11.374  21.109  0.00  0.00    +0.000 A 
ATOM      6  C   UNL     1      -1.333  11.192  22.386  0.00  0.00    +0.000 A 
ATOM      7  C   UNL     1      -0.799  10.181  23.178  0.00  0.00    +0.000 A 
ATOM      8  C   UNL     1       0.193   9.323  22.674  0.00  0.00    +0.000 A 
ATOM      9  C   UNL     1       0.663   9.430  21.368  0.00  0.00    +0.000 A 
ATOM     10  N   UNL     1       1.529   8.528  20.829  0.00  0.00    +0.000 NA
ENDROOT
BRANCH   3  11
ATOM     11  C   UNL     1       1.583  11.879  19.236  0.00  0.00    +0.000 C 
ATOM     12  O   UNL     1       2.108  12.162  18.162  0.00  0.00    +0.000 OA
ATOM     13  N   UNL     1       1.741  12.626  20.387  0.00  0.00    +0.000 N 
ATOM     14  C   UNL     1       2.577  13.739  20.410  0.00  0.00    +0.000 A 
ATOM     15  C   UNL     1       2.550  14.716  19.412  0.00  0.00    +0.000 A 
ATOM     16  C   UNL     1       3.513  15.723  19.435  0.00  0.00    +0.000 A 
ATOM     17  C   UNL     1       4.479  15.689  20.439  0.00  0.00    +0.000 A 
ATOM     18  C   UNL     1       4.401  14.709  21.416  0.00  0.00    +0.000 A 
ATOM     19  N   UNL     1       3.433  13.760  21.446  0.00  0.00    +0.000 NA
ATOM     20  H   UNL     1       1.700  12.139  21.268  0.00  0.00    +0.000 HD
BRANCH  17  21
ATOM     21  N   UNL     1       5.579  16.641  20.466  0.00  0.00    +0.000 N 
ATOM     22  O   UNL     1       5.833  17.257  19.421  0.00  0.00    +0.000 OA
ATOM     23  O   UNL     1       6.195  16.777  21.531  0.00  0.00    +0.000 OA
ENDBRANCH  17  21
ENDBRANCH   3  11
BRANCH   1  27
ATOM     24  C   UNL     1       4.141   5.371  17.853  0.00  0.00    +0.000 A 
ATOM     25  C   UNL     1       3.294   5.130  18.943  0.00  0.00    +0.000 A 
ATOM     26  C   UNL     1       2.465   6.128  19.419  0.00  0.00    +0.000 A 
ATOM     27  C   UNL     1       2.467   7.434  18.858  0.00  0.00    +0.000 A 
ATOM     28  C   UNL     1       3.241   7.626  17.713  0.00  0.00    +0.000 A 
ATOM     29  C   UNL     1       4.073   6.622  17.224  0.00  0.00    +0.000 A 
BRANCH  24  30
ATOM     30  C   UNL     1       5.136   4.338  17.377  0.00  0.00    +0.000 C 
BRANCH  30  32
ATOM     31  C   UNL     1       7.283   5.267  18.383  0.00  0.00    +0.000 C 
ATOM     32  C   UNL     1       6.545   4.872  17.113  0.00  0.00    +0.000 C 
ENDBRANCH  30  32
ENDBRANCH  24  30
ENDBRANCH   1  27
TORSDOF 5
ENDMDL
