MODEL 1
REMARK VINA RESULT:      -8.1      0.000      0.000
REMARK  Name = 
REMARK  4 active torsions:
REMARK  status: ('A' for Active; 'I' for Inactive)
REMARK    1  A    between atoms: S_2  and  C_4
REMARK    2  A    between atoms: S_2  and  N_24
REMARK    3  A    between atoms: N_10  and  C_11
REMARK    4  A    between atoms: C_11  and  C_12
REMARK                            x       y       z     vdW  Elec       q    Type
REMARK                         _______ _______ _______ _____ _____    ______ ____
ROOT
ATOM      1  C   UNL     1       2.076   7.905  18.822  0.00  0.00    +0.000 A 
ATOM      2  C   UNL     1       2.035   7.706  20.216  0.00  0.00    +0.000 A 
ATOM      3  C   UNL     1       2.403   6.474  20.763  0.00  0.00    +0.000 A 
ATOM      4  C   UNL     1       2.783   5.475  19.887  0.00  0.00    +0.000 A 
ATOM      5  C   UNL     1       2.996   5.734  18.520  0.00  0.00    +0.000 A 
ATOM      6  C   UNL     1       2.629   6.947  17.957  0.00  0.00    +0.000 A 
ATOM      7  N   UNL     1       3.306   4.517  17.801  0.00  0.00    +0.000 N 
ATOM      8  C   UNL     1       2.633   3.582  18.741  0.00  0.00    +0.000 C 
ATOM      9  C   UNL     1       1.090   3.495  18.566  0.00  0.00    +0.000 C 
ATOM     10  C   UNL     1       0.512   3.629  19.983  0.00  0.00    +0.000 C 
ATOM     11  C   UNL     1       1.720   3.528  20.911  0.00  0.00    +0.000 C 
ATOM     12  N   UNL     1       2.824   4.065  20.133  0.00  0.00    +0.000 N 
ENDROOT
BRANCH   1  14
ATOM     13  O   UNL     1       2.350  10.157  17.544  0.00  0.00    +0.000 OA
ATOM     14  S   UNL     1       1.308   9.377  18.178  0.00  0.00    +0.000 S 
ATOM     15  O   UNL     1       0.115   8.996  17.459  0.00  0.00    +0.000 OA
BRANCH  14  16
ATOM     16  N   UNL     1       0.825  10.217  19.599  0.00  0.00    +0.000 NA
ATOM     17  C   UNL     1      -0.631  10.168  19.959  0.00  0.00    +0.000 C 
ATOM     18  C   UNL     1      -1.462  11.189  19.160  0.00  0.00    +0.000 C 
ATOM     19  O   UNL     1      -0.922  12.517  19.233  0.00  0.00    +0.000 OA
ATOM     20  C   UNL     1       0.446  12.546  18.793  0.00  0.00    +0.000 C 
ATOM     21  C   UNL     1       1.298  11.639  19.684  0.00  0.00    +0.000 C 
ENDBRANCH  14  16
ENDBRANCH   1  14
BRANCH   7  22
ATOM     22  C   UNL     1       4.774   4.223  17.907  0.00  0.00    +0.000 C 
BRANCH  22  23
ATOM     23  C   UNL     1       5.611   4.459  16.675  0.00  0.00    +0.000 A 
ATOM     24  C   UNL     1       5.098   4.036  15.428  0.00  0.00    +0.000 A 
ATOM     25  C   UNL     1       5.807   4.261  14.250  0.00  0.00    +0.000 A 
ATOM     26  C   UNL     1       7.023   4.934  14.301  0.00  0.00    +0.000 A 
ATOM     27 CL   UNL     1       7.924   5.172  12.854  0.00  0.00    +0.000 Cl
ATOM     28  C   UNL     1       7.505   5.423  15.510  0.00  0.00    +0.000 A 
ATOM     29  C   UNL     1       6.798   5.193  16.698  0.00  0.00    +0.000 A 
ENDBRANCH  22  23
ENDBRANCH   7  22
TORSDOF 4
ENDMDL
MODEL 2
REMARK VINA RESULT:      -7.8      1.714      2.150
REMARK  Name = 
REMARK  4 active torsions:
REMARK  status: ('A' for Active; 'I' for Inactive)
REMARK    1  A    between atoms: S_2  and  C_4
REMARK    2  A    between atoms: S_2  and  N_24
REMARK    3  A    between atoms: N_10  and  C_11
REMARK    4  A    between atoms: C_11  and  C_12
REMARK                            x       y       z     vdW  Elec       q    Type
REMARK                         _______ _______ _______ _____ _____    ______ ____
ROOT
ATOM      1  C   UNL     1       2.237   7.745  18.736  0.00  0.00    +0.000 A 
ATOM      2  C   UNL     1       2.081   7.422  20.098  0.00  0.00    +0.000 A 
ATOM      3  C   UNL     1       2.443   6.158  20.570  0.00  0.00    +0.000 A 
ATOM      4  C   UNL     1       2.935   5.251  19.650  0.00  0.00    +0.000 A 
ATOM      5  C   UNL     1       3.259   5.636  18.334  0.00  0.00    +0.000 A 
ATOM      6  C   UNL     1       2.900   6.883  17.846  0.00  0.00    +0.000 A 
ATOM      7  N   UNL     1       3.676   4.496  17.546  0.00  0.00    +0.000 N 
ATOM      8  C   UNL     1       2.956   3.463  18.336  0.00  0.00    +0.000 C 
ATOM      9  C   UNL     1       1.439   3.349  18.015  0.00  0.00    +0.000 C 
ATOM     10  C   UNL     1       0.733   3.340  19.379  0.00  0.00    +0.000 C 
ATOM     11  C   UNL     1       1.858   3.191  20.402  0.00  0.00    +0.000 C 
ATOM     12  N   UNL     1       3.006   3.826  19.776  0.00  0.00    +0.000 N 
ENDROOT
BRANCH   1  14
ATOM     13  O   UNL     1       2.522  10.044  17.546  0.00  0.00    +0.000 OA
ATOM     14  S   UNL     1       1.477   9.246  18.153  0.00  0.00    +0.000 S 
ATOM     15  O   UNL     1       0.279   8.900  17.424  0.00  0.00    +0.000 OA
BRANCH  14  16
ATOM     16  N   UNL     1       1.003  10.031  19.608  0.00  0.00    +0.000 NA
ATOM     17  C   UNL     1      -0.441   9.925  20.003  0.00  0.00    +0.000 C 
ATOM     18  C   UNL     1      -1.325  10.939  19.252  0.00  0.00    +0.000 C 
ATOM     19  O   UNL     1      -0.826  12.281  19.347  0.00  0.00    +0.000 OA
ATOM     20  C   UNL     1       0.528  12.367  18.874  0.00  0.00    +0.000 C 
ATOM     21  C   UNL     1       1.433  11.466  19.718  0.00  0.00    +0.000 C 
ENDBRANCH  14  16
ENDBRANCH   1  14
BRANCH   7  22
ATOM     22  C   UNL     1       5.138   4.236  17.759  0.00  0.00    +0.000 C 
BRANCH  22  23
ATOM     23  C   UNL     1       6.037   5.441  17.887  0.00  0.00    +0.000 A 
ATOM     24  C   UNL     1       6.973   5.466  18.944  0.00  0.00    +0.000 A 
ATOM     25  C   UNL     1       7.857   6.533  19.092  0.00  0.00    +0.000 A 
ATOM     26  C   UNL     1       7.832   7.574  18.169  0.00  0.00    +0.000 A 
ATOM     27 CL   UNL     1       8.890   8.916  18.375  0.00  0.00    +0.000 Cl
ATOM     28  C   UNL     1       6.968   7.528  17.081  0.00  0.00    +0.000 A 
ATOM     29  C   UNL     1       6.073   6.459  16.933  0.00  0.00    +0.000 A 
ENDBRANCH  22  23
ENDBRANCH   7  22
TORSDOF 4
ENDMDL
MODEL 3
REMARK VINA RESULT:      -7.3      1.109      1.524
REMARK  Name = 
REMARK  4 active torsions:
REMARK  status: ('A' for Active; 'I' for Inactive)
REMARK    1  A    between atoms: S_2  and  C_4
REMARK    2  A    between atoms: S_2  and  N_24
REMARK    3  A    between atoms: N_10  and  C_11
REMARK    4  A    between atoms: C_11  and  C_12
REMARK                            x       y       z     vdW  Elec       q    Type
REMARK                         _______ _______ _______ _____ _____    ______ ____
ROOT
ATOM      1  C   UNL     1       1.479   8.384  19.452  0.00  0.00    +0.000 A 
ATOM      2  C   UNL     1       1.583   7.941  20.786  0.00  0.00    +0.000 A 
ATOM      3  C   UNL     1       2.210   6.727  21.079  0.00  0.00    +0.000 A 
ATOM      4  C   UNL     1       2.696   5.987  20.017  0.00  0.00    +0.000 A 
ATOM      5  C   UNL     1       2.752   6.517  18.713  0.00  0.00    +0.000 A 
ATOM      6  C   UNL     1       2.129   7.716  18.402  0.00  0.00    +0.000 A 
ATOM      7  N   UNL     1       3.222   5.526  17.769  0.00  0.00    +0.000 N 
ATOM      8  C   UNL     1       2.804   4.330  18.546  0.00  0.00    +0.000 C 
ATOM      9  C   UNL     1       1.293   3.979  18.425  0.00  0.00    +0.000 C 
ATOM     10  C   UNL     1       0.812   3.751  19.866  0.00  0.00    +0.000 C 
ATOM     11  C   UNL     1       2.087   3.724  20.706  0.00  0.00    +0.000 C 
ATOM     12  N   UNL     1       3.012   4.591  19.994  0.00  0.00    +0.000 N 
ENDROOT
BRANCH   1  14
ATOM     13  O   UNL     1       0.202   9.820  17.695  0.00  0.00    +0.000 OA
ATOM     14  S   UNL     1       0.410   9.769  19.127  0.00  0.00    +0.000 S 
ATOM     15  O   UNL     1      -0.706   9.714  20.043  0.00  0.00    +0.000 OA
BRANCH  14  16
ATOM     16  N   UNL     1       1.382  11.121  19.557  0.00  0.00    +0.000 NA
ATOM     17  C   UNL     1       1.113  11.759  20.889  0.00  0.00    +0.000 C 
ATOM     18  C   UNL     1      -0.083  12.728  20.838  0.00  0.00    +0.000 C 
ATOM     19  O   UNL     1       0.032  13.690  19.780  0.00  0.00    +0.000 OA
ATOM     20  C   UNL     1       0.195  13.045  18.506  0.00  0.00    +0.000 C 
ATOM     21  C   UNL     1       1.467  12.195  18.512  0.00  0.00    +0.000 C 
ENDBRANCH  14  16
ENDBRANCH   1  14
BRANCH   7  22
ATOM     22  C   UNL     1       4.722   5.507  17.755  0.00  0.00    +0.000 C 
BRANCH  22  23
ATOM     23  C   UNL     1       5.392   5.255  16.427  0.00  0.00    +0.000 A 
ATOM     24  C   UNL     1       6.715   5.716  16.249  0.00  0.00    +0.000 A 
ATOM     25  C   UNL     1       7.401   5.480  15.059  0.00  0.00    +0.000 A 
ATOM     26  C   UNL     1       6.782   4.757  14.045  0.00  0.00    +0.000 A 
ATOM     27 CL   UNL     1       7.607   4.504  12.556  0.00  0.00    +0.000 Cl
ATOM     28  C   UNL     1       5.508   4.232  14.233  0.00  0.00    +0.000 A 
ATOM     29  C   UNL     1       4.813   4.473  15.426  0.00  0.00    +0.000 A 
ENDBRANCH  22  23
ENDBRANCH   7  22
TORSDOF 4
ENDMDL
MODEL 4
REMARK VINA RESULT:      -7.2      4.043      6.042
REMARK  Name = 
REMARK  4 active torsions:
REMARK  status: ('A' for Active; 'I' for Inactive)
REMARK    1  A    between atoms: S_2  and  C_4
REMARK    2  A    between atoms: S_2  and  N_24
REMARK    3  A    between atoms: N_10  and  C_11
REMARK    4  A    between atoms: C_11  and  C_12
REMARK                            x       y       z     vdW  Elec       q    Type
REMARK                         _______ _______ _______ _____ _____    ______ ____
ROOT
ATOM      1  C   UNL     1       3.463   4.706  17.294  0.00  0.00    +0.000 A 
ATOM      2  C   UNL     1       3.573   6.082  17.576  0.00  0.00    +0.000 A 
ATOM      3  C   UNL     1       4.759   6.767  17.297  0.00  0.00    +0.000 A 
ATOM      4  C   UNL     1       5.804   6.039  16.758  0.00  0.00    +0.000 A 
ATOM      5  C   UNL     1       5.628   4.715  16.311  0.00  0.00    +0.000 A 
ATOM      6  C   UNL     1       4.462   4.017  16.587  0.00  0.00    +0.000 A 
ATOM      7  N   UNL     1       6.882   4.146  15.866  0.00  0.00    +0.000 N 
ATOM      8  C   UNL     1       7.770   5.014  16.683  0.00  0.00    +0.000 C 
ATOM      9  C   UNL     1       7.902   4.580  18.171  0.00  0.00    +0.000 C 
ATOM     10  C   UNL     1       7.690   5.862  18.990  0.00  0.00    +0.000 C 
ATOM     11  C   UNL     1       7.705   6.991  17.961  0.00  0.00    +0.000 C 
ATOM     12  N   UNL     1       7.194   6.383  16.744  0.00  0.00    +0.000 N 
ENDROOT
BRANCH   1  14
ATOM     13  O   UNL     1       0.890   4.313  17.233  0.00  0.00    +0.000 OA
ATOM     14  S   UNL     1       2.054   3.841  17.953  0.00  0.00    +0.000 S 
ATOM     15  O   UNL     1       2.371   2.433  18.024  0.00  0.00    +0.000 OA
BRANCH  14  16
ATOM     16  N   UNL     1       1.946   4.441  19.561  0.00  0.00    +0.000 NA
ATOM     17  C   UNL     1       3.181   4.347  20.410  0.00  0.00    +0.000 C 
ATOM     18  C   UNL     1       3.360   2.945  21.022  0.00  0.00    +0.000 C 
ATOM     19  O   UNL     1       2.185   2.489  21.708  0.00  0.00    +0.000 OA
ATOM     20  C   UNL     1       1.039   2.503  20.841  0.00  0.00    +0.000 C 
ATOM     21  C   UNL     1       0.776   3.928  20.349  0.00  0.00    +0.000 C 
ENDBRANCH  14  16
ENDBRANCH   1  14
BRANCH   7  22
ATOM     22  C   UNL     1       7.135   4.525  14.437  0.00  0.00    +0.000 C 
BRANCH  22  23
ATOM     23  C   UNL     1       6.214   3.934  13.398  0.00  0.00    +0.000 A 
ATOM     24  C   UNL     1       4.949   4.533  13.209  0.00  0.00    +0.000 A 
ATOM     25  C   UNL     1       4.070   4.057  12.238  0.00  0.00    +0.000 A 
ATOM     26  C   UNL     1       4.457   2.995  11.428  0.00  0.00    +0.000 A 
ATOM     27 CL   UNL     1       3.356   2.374  10.260  0.00  0.00    +0.000 Cl
ATOM     28  C   UNL     1       5.727   2.443  11.551  0.00  0.00    +0.000 A 
ATOM     29  C   UNL     1       6.611   2.915  12.530  0.00  0.00    +0.000 A 
ENDBRANCH  22  23
ENDBRANCH   7  22
TORSDOF 4
ENDMDL
MODEL 5
REMARK VINA RESULT:      -7.0      1.352      1.796
REMARK  Name = 
REMARK  4 active torsions:
REMARK  status: ('A' for Active; 'I' for Inactive)
REMARK    1  A    between atoms: S_2  and  C_4
REMARK    2  A    between atoms: S_2  and  N_24
REMARK    3  A    between atoms: N_10  and  C_11
REMARK    4  A    between atoms: C_11  and  C_12
REMARK                            x       y       z     vdW  Elec       q    Type
REMARK                         _______ _______ _______ _____ _____    ______ ____
ROOT
ATOM      1  C   UNL     1       1.790   7.618  20.195  0.00  0.00    +0.000 A 
ATOM      2  C   UNL     1       1.784   6.700  21.264  0.00  0.00    +0.000 A 
ATOM      3  C   UNL     1       2.302   5.414  21.093  0.00  0.00    +0.000 A 
ATOM      4  C   UNL     1       2.794   5.086  19.843  0.00  0.00    +0.000 A 
ATOM      5  C   UNL     1       2.964   6.059  18.839  0.00  0.00    +0.000 A 
ATOM      6  C   UNL     1       2.449   7.337  18.988  0.00  0.00    +0.000 A 
ATOM      7  N   UNL     1       3.414   5.456  17.602  0.00  0.00    +0.000 N 
ATOM      8  C   UNL     1       2.866   4.098  17.858  0.00  0.00    +0.000 C 
ATOM      9  C   UNL     1       1.343   3.956  17.574  0.00  0.00    +0.000 C 
ATOM     10  C   UNL     1       0.764   3.248  18.808  0.00  0.00    +0.000 C 
ATOM     11  C   UNL     1       1.982   2.794  19.608  0.00  0.00    +0.000 C 
ATOM     12  N   UNL     1       3.008   3.778  19.302  0.00  0.00    +0.000 N 
ENDROOT
BRANCH   1  14
ATOM     13  O   UNL     1      -0.499   8.724  20.761  0.00  0.00    +0.000 OA
ATOM     14  S   UNL     1       0.845   9.114  20.391  0.00  0.00    +0.000 S 
ATOM     15  O   UNL     1       1.607  10.036  21.202  0.00  0.00    +0.000 OA
BRANCH  14  16
ATOM     16  N   UNL     1       0.780   9.745  18.792  0.00  0.00    +0.000 NA
ATOM     17  C   UNL     1       1.745  10.843  18.451  0.00  0.00    +0.000 C 
ATOM     18  C   UNL     1       1.253  12.220  18.937  0.00  0.00    +0.000 C 
ATOM     19  O   UNL     1      -0.085  12.510  18.507  0.00  0.00    +0.000 OA
ATOM     20  C   UNL     1      -1.000  11.485  18.930  0.00  0.00    +0.000 C 
ATOM     21  C   UNL     1      -0.591  10.140  18.325  0.00  0.00    +0.000 C 
ENDBRANCH  14  16
ENDBRANCH   1  14
BRANCH   7  22
ATOM     22  C   UNL     1       4.907   5.309  17.621  0.00  0.00    +0.000 C 
BRANCH  22  23
ATOM     23  C   UNL     1       5.584   5.014  16.306  0.00  0.00    +0.000 A 
ATOM     24  C   UNL     1       4.806   4.465  15.263  0.00  0.00    +0.000 A 
ATOM     25  C   UNL     1       5.365   4.206  14.013  0.00  0.00    +0.000 A 
ATOM     26  C   UNL     1       6.701   4.517  13.784  0.00  0.00    +0.000 A 
ATOM     27 CL   UNL     1       7.408   4.154  12.258  0.00  0.00    +0.000 Cl
ATOM     28  C   UNL     1       7.461   5.126  14.777  0.00  0.00    +0.000 A 
ATOM     29  C   UNL     1       6.903   5.382  16.037  0.00  0.00    +0.000 A 
ENDBRANCH  22  23
ENDBRANCH   7  22
TORSDOF 4
ENDMDL
MODEL 6
REMARK VINA RESULT:      -7.0      3.555      6.325
REMARK  Name = 
REMARK  4 active torsions:
REMARK  status: ('A' for Active; 'I' for Inactive)
REMARK    1  A    between atoms: S_2  and  C_4
REMARK    2  A    between atoms: S_2  and  N_24
REMARK    3  A    between atoms: N_10  and  C_11
REMARK    4  A    between atoms: C_11  and  C_12
REMARK                            x       y       z     vdW  Elec       q    Type
REMARK                         _______ _______ _______ _____ _____    ______ ____
ROOT
ATOM      1  C   UNL     1      -2.343  11.135  17.810  0.00  0.00    +0.000 A 
ATOM      2  C   UNL     1      -1.839  12.448  17.905  0.00  0.00    +0.000 A 
ATOM      3  C   UNL     1      -0.557  12.676  18.414  0.00  0.00    +0.000 A 
ATOM      4  C   UNL     1       0.170  11.575  18.827  0.00  0.00    +0.000 A 
ATOM      5  C   UNL     1      -0.263  10.262  18.560  0.00  0.00    +0.000 A 
ATOM      6  C   UNL     1      -1.535  10.016  18.065  0.00  0.00    +0.000 A 
ATOM      7  N   UNL     1       0.624   9.289  19.162  0.00  0.00    +0.000 N 
ATOM      8  C   UNL     1       1.147  10.171  20.239  0.00  0.00    +0.000 C 
ATOM      9  C   UNL     1       0.200  10.320  21.464  0.00  0.00    +0.000 C 
ATOM     10  C   UNL     1       0.131  11.830  21.743  0.00  0.00    +0.000 C 
ATOM     11  C   UNL     1       1.215  12.442  20.858  0.00  0.00    +0.000 C 
ATOM     12  N   UNL     1       1.296  11.552  19.712  0.00  0.00    +0.000 N 
ENDROOT
BRANCH   1  14
ATOM     13  O   UNL     1      -4.229  11.086  16.016  0.00  0.00    +0.000 OA
ATOM     14  S   UNL     1      -4.075  10.944  17.448  0.00  0.00    +0.000 S 
ATOM     15  O   UNL     1      -4.563   9.774  18.142  0.00  0.00    +0.000 OA
BRANCH  14  16
ATOM     16  N   UNL     1      -4.782  12.328  18.185  0.00  0.00    +0.000 NA
ATOM     17  C   UNL     1      -5.026  12.265  19.664  0.00  0.00    +0.000 C 
ATOM     18  C   UNL     1      -6.323  11.510  20.008  0.00  0.00    +0.000 C 
ATOM     19  O   UNL     1      -7.458  12.008  19.284  0.00  0.00    +0.000 OA
ATOM     20  C   UNL     1      -7.228  11.967  17.866  0.00  0.00    +0.000 C 
ATOM     21  C   UNL     1      -6.021  12.839  17.510  0.00  0.00    +0.000 C 
ENDBRANCH  14  16
ENDBRANCH   1  14
BRANCH   7  22
ATOM     22  C   UNL     1       1.782   9.022  18.248  0.00  0.00    +0.000 C 
BRANCH  22  23
ATOM     23  C   UNL     1       2.527   7.725  18.444  0.00  0.00    +0.000 A 
ATOM     24  C   UNL     1       3.560   7.404  17.537  0.00  0.00    +0.000 A 
ATOM     25  C   UNL     1       4.309   6.239  17.688  0.00  0.00    +0.000 A 
ATOM     26  C   UNL     1       4.052   5.396  18.764  0.00  0.00    +0.000 A 
ATOM     27 CL   UNL     1       4.942   3.933  18.929  0.00  0.00    +0.000 Cl
ATOM     28  C   UNL     1       3.089   5.735  19.708  0.00  0.00    +0.000 A 
ATOM     29  C   UNL     1       2.329   6.903  19.555  0.00  0.00    +0.000 A 
ENDBRANCH  22  23
ENDBRANCH   7  22
TORSDOF 4
ENDMDL
MODEL 7
REMARK VINA RESULT:      -7.0      1.155      1.200
REMARK  Name = 
REMARK  4 active torsions:
REMARK  status: ('A' for Active; 'I' for Inactive)
REMARK    1  A    between atoms: S_2  and  C_4
REMARK    2  A    between atoms: S_2  and  N_24
REMARK    3  A    between atoms: N_10  and  C_11
REMARK    4  A    between atoms: C_11  and  C_12
REMARK                            x       y       z     vdW  Elec       q    Type
REMARK                         _______ _______ _______ _____ _____    ______ ____
ROOT
ATOM      1  C   UNL     1       1.647   8.258  19.621  0.00  0.00    +0.000 A 
ATOM      2  C   UNL     1       1.639   7.670  20.902  0.00  0.00    +0.000 A 
ATOM      3  C   UNL     1       2.171   6.393  21.095  0.00  0.00    +0.000 A 
ATOM      4  C   UNL     1       2.680   5.739  19.988  0.00  0.00    +0.000 A 
ATOM      5  C   UNL     1       2.852   6.400  18.756  0.00  0.00    +0.000 A 
ATOM      6  C   UNL     1       2.322   7.663  18.542  0.00  0.00    +0.000 A 
ATOM      7  N   UNL     1       3.321   5.485  17.736  0.00  0.00    +0.000 N 
ATOM      8  C   UNL     1       2.783   4.244  18.353  0.00  0.00    +0.000 C 
ATOM      9  C   UNL     1       1.266   4.009  18.107  0.00  0.00    +0.000 C 
ATOM     10  C   UNL     1       0.680   3.662  19.484  0.00  0.00    +0.000 C 
ATOM     11  C   UNL     1       1.894   3.461  20.388  0.00  0.00    +0.000 C 
ATOM     12  N   UNL     1       2.913   4.335  19.830  0.00  0.00    +0.000 N 
ENDROOT
BRANCH   1  14
ATOM     13  O   UNL     1       1.229  10.421  18.234  0.00  0.00    +0.000 OA
ATOM     14  S   UNL     1       0.686   9.738  19.389  0.00  0.00    +0.000 S 
ATOM     15  O   UNL     1      -0.715   9.392  19.465  0.00  0.00    +0.000 OA
BRANCH  14  16
ATOM     16  N   UNL     1       1.075  10.676  20.777  0.00  0.00    +0.000 NA
ATOM     17  C   UNL     1       0.185  10.524  21.976  0.00  0.00    +0.000 C 
ATOM     18  C   UNL     1      -1.100  11.365  21.857  0.00  0.00    +0.000 C 
ATOM     19  O   UNL     1      -0.831  12.739  21.542  0.00  0.00    +0.000 OA
ATOM     20  C   UNL     1      -0.056  12.854  20.337  0.00  0.00    +0.000 C 
ATOM     21  C   UNL     1       1.285  12.138  20.511  0.00  0.00    +0.000 C 
ENDBRANCH  14  16
ENDBRANCH   1  14
BRANCH   7  22
ATOM     22  C   UNL     1       4.815   5.368  17.807  0.00  0.00    +0.000 C 
BRANCH  22  23
ATOM     23  C   UNL     1       5.544   5.103  16.513  0.00  0.00    +0.000 A 
ATOM     24  C   UNL     1       4.809   4.573  15.429  0.00  0.00    +0.000 A 
ATOM     25  C   UNL     1       5.417   4.342  14.197  0.00  0.00    +0.000 A 
ATOM     26  C   UNL     1       6.760   4.663  14.027  0.00  0.00    +0.000 A 
ATOM     27 CL   UNL     1       7.526   4.336  12.521  0.00  0.00    +0.000 Cl
ATOM     28  C   UNL     1       7.478   5.254  15.060  0.00  0.00    +0.000 A 
ATOM     29  C   UNL     1       6.870   5.482  16.303  0.00  0.00    +0.000 A 
ENDBRANCH  22  23
ENDBRANCH   7  22
TORSDOF 4
ENDMDL
MODEL 8
REMARK VINA RESULT:      -7.0      3.891      6.714
REMARK  Name = 
REMARK  4 active torsions:
REMARK  status: ('A' for Active; 'I' for Inactive)
REMARK    1  A    between atoms: S_2  and  C_4
REMARK    2  A    between atoms: S_2  and  N_24
REMARK    3  A    between atoms: N_10  and  C_11
REMARK    4  A    between atoms: C_11  and  C_12
REMARK                            x       y       z     vdW  Elec       q    Type
REMARK                         _______ _______ _______ _____ _____    ______ ____
ROOT
ATOM      1  C   UNL     1      -2.254  11.088  17.962  0.00  0.00    +0.000 A 
ATOM      2  C   UNL     1      -1.693  12.376  17.851  0.00  0.00    +0.000 A 
ATOM      3  C   UNL     1      -0.456  12.659  18.434  0.00  0.00    +0.000 A 
ATOM      4  C   UNL     1       0.171  11.640  19.127  0.00  0.00    +0.000 A 
ATOM      5  C   UNL     1      -0.303  10.315  19.079  0.00  0.00    +0.000 A 
ATOM      6  C   UNL     1      -1.533  10.016  18.513  0.00  0.00    +0.000 A 
ATOM      7  N   UNL     1       0.471   9.454  19.947  0.00  0.00    +0.000 N 
ATOM      8  C   UNL     1       0.935  10.515  20.880  0.00  0.00    +0.000 C 
ATOM      9  C   UNL     1      -0.114  10.936  21.947  0.00  0.00    +0.000 C 
ATOM     10  C   UNL     1      -0.130  12.472  21.918  0.00  0.00    +0.000 C 
ATOM     11  C   UNL     1       1.062  12.861  21.047  0.00  0.00    +0.000 C 
ATOM     12  N   UNL     1       1.205  11.757  20.111  0.00  0.00    +0.000 N 
ENDROOT
BRANCH   1  14
ATOM     13  O   UNL     1      -3.991  10.992  16.025  0.00  0.00    +0.000 OA
ATOM     14  S   UNL     1      -3.952  10.884  17.468  0.00  0.00    +0.000 S 
ATOM     15  O   UNL     1      -4.493   9.730  18.148  0.00  0.00    +0.000 OA
BRANCH  14  16
ATOM     16  N   UNL     1      -4.715  12.284  18.114  0.00  0.00    +0.000 NA
ATOM     17  C   UNL     1      -4.945  12.314  19.596  0.00  0.00    +0.000 C 
ATOM     18  C   UNL     1      -6.204  11.527  20.006  0.00  0.00    +0.000 C 
ATOM     19  O   UNL     1      -7.366  11.921  19.261  0.00  0.00    +0.000 OA
ATOM     20  C   UNL     1      -7.145  11.792  17.847  0.00  0.00    +0.000 C 
ATOM     21  C   UNL     1      -5.982  12.689  17.418  0.00  0.00    +0.000 C 
ENDBRANCH  14  16
ENDBRANCH   1  14
BRANCH   7  22
ATOM     22  C   UNL     1       1.696   8.973  19.227  0.00  0.00    +0.000 C 
BRANCH  22  23
ATOM     23  C   UNL     1       2.019   7.503  19.329  0.00  0.00    +0.000 A 
ATOM     24  C   UNL     1       1.645   6.818  20.507  0.00  0.00    +0.000 A 
ATOM     25  C   UNL     1       1.882   5.451  20.645  0.00  0.00    +0.000 A 
ATOM     26  C   UNL     1       2.469   4.750  19.598  0.00  0.00    +0.000 A 
ATOM     27 CL   UNL     1       2.806   3.072  19.783  0.00  0.00    +0.000 Cl
ATOM     28  C   UNL     1       2.774   5.394  18.404  0.00  0.00    +0.000 A 
ATOM     29  C   UNL     1       2.543   6.769  18.264  0.00  0.00    +0.000 A 
ENDBRANCH  22  23
ENDBRANCH   7  22
TORSDOF 4
ENDMDL
MODEL 9
REMARK VINA RESULT:      -6.9      4.667      9.294
REMARK  Name = 
REMARK  4 active torsions:
REMARK  status: ('A' for Active; 'I' for Inactive)
REMARK    1  A    between atoms: S_2  and  C_4
REMARK    2  A    between atoms: S_2  and  N_24
REMARK    3  A    between atoms: N_10  and  C_11
REMARK    4  A    between atoms: C_11  and  C_12
REMARK                            x       y       z     vdW  Elec       q    Type
REMARK                         _______ _______ _______ _____ _____    ______ ____
ROOT
ATOM      1  C   UNL     1       2.155   7.554  19.429  0.00  0.00    +0.000 A 
ATOM      2  C   UNL     1       2.504   8.252  18.255  0.00  0.00    +0.000 A 
ATOM      3  C   UNL     1       1.942   9.502  17.984  0.00  0.00    +0.000 A 
ATOM      4  C   UNL     1       1.031  10.003  18.895  0.00  0.00    +0.000 A 
ATOM      5  C   UNL     1       0.826   9.391  20.147  0.00  0.00    +0.000 A 
ATOM      6  C   UNL     1       1.368   8.146  20.430  0.00  0.00    +0.000 A 
ATOM      7  N   UNL     1      -0.230  10.052  20.883  0.00  0.00    +0.000 N 
ATOM      8  C   UNL     1      -0.943  10.610  19.704  0.00  0.00    +0.000 C 
ATOM      9  C   UNL     1      -1.860   9.593  18.966  0.00  0.00    +0.000 C 
ATOM     10  C   UNL     1      -1.516   9.742  17.476  0.00  0.00    +0.000 C 
ATOM     11  C   UNL     1      -0.632  10.985  17.400  0.00  0.00    +0.000 C 
ATOM     12  N   UNL     1       0.052  11.025  18.682  0.00  0.00    +0.000 N 
ENDROOT
BRANCH   1  14
ATOM     13  O   UNL     1       4.086   5.854  19.828  0.00  0.00    +0.000 OA
ATOM     14  S   UNL     1       2.664   5.853  19.557  0.00  0.00    +0.000 S 
ATOM     15  O   UNL     1       1.737   5.160  20.422  0.00  0.00    +0.000 OA
BRANCH  14  16
ATOM     16  N   UNL     1       2.442   5.259  17.959  0.00  0.00    +0.000 NA
ATOM     17  C   UNL     1       1.334   4.269  17.746  0.00  0.00    +0.000 C 
ATOM     18  C   UNL     1       1.748   2.839  18.143  0.00  0.00    +0.000 C 
ATOM     19  O   UNL     1       2.977   2.431  17.525  0.00  0.00    +0.000 OA
ATOM     20  C   UNL     1       4.040   3.350  17.825  0.00  0.00    +0.000 C 
ATOM     21  C   UNL     1       3.687   4.743  17.299  0.00  0.00    +0.000 C 
ENDBRANCH  14  16
ENDBRANCH   1  14
BRANCH   7  22
ATOM     22  C   UNL     1       0.327  11.230  21.624  0.00  0.00    +0.000 C 
BRANCH  22  23
ATOM     23  C   UNL     1      -0.663  12.151  22.292  0.00  0.00    +0.000 A 
ATOM     24  C   UNL     1      -1.766  11.575  22.961  0.00  0.00    +0.000 A 
ATOM     25  C   UNL     1      -2.694  12.371  23.629  0.00  0.00    +0.000 A 
ATOM     26  C   UNL     1      -2.516  13.750  23.659  0.00  0.00    +0.000 A 
ATOM     27 CL   UNL     1      -3.685  14.740  24.442  0.00  0.00    +0.000 Cl
ATOM     28  C   UNL     1      -1.396  14.327  23.069  0.00  0.00    +0.000 A 
ATOM     29  C   UNL     1      -0.464  13.529  22.391  0.00  0.00    +0.000 A 
ENDBRANCH  22  23
ENDBRANCH   7  22
TORSDOF 4
ENDMDL
