MODEL 1
REMARK VINA RESULT:      -8.5      0.000      0.000
REMARK  Name = 
REMARK  5 active torsions:
REMARK  status: ('A' for Active; 'I' for Inactive)
REMARK    1  A    between atoms: N_4  and  C_5
REMARK    2  A    between atoms: C_8  and  C_9
REMARK    3  A    between atoms: C_9  and  O_11
REMARK    4  A    between atoms: O_11  and  C_12
REMARK    5  A    between atoms: C_17  and  C_18
REMARK                            x       y       z     vdW  Elec       q    Type
REMARK                         _______ _______ _______ _____ _____    ______ ____
ROOT
ATOM      1  O   UNL     1       6.809   7.942  16.970  0.00  0.00    +0.000 OA
ENDROOT
BRANCH   1   2
ATOM      2  C   UNL     1       6.006   6.809  16.861  0.00  0.00    +0.000 A 
ATOM      3  C   UNL     1       6.360   5.831  15.939  0.00  0.00    +0.000 A 
ATOM      4  C   UNL     1       5.660   4.623  15.937  0.00  0.00    +0.000 A 
ATOM      5  C   UNL     1       4.577   4.439  16.811  0.00  0.00    +0.000 A 
ATOM      6  C   UNL     1       4.070   3.179  17.164  0.00  0.00    +0.000 A 
ATOM      7  C   UNL     1       3.114   3.114  18.183  0.00  0.00    +0.000 A 
ATOM      8  C   UNL     1       2.233   4.186  18.281  0.00  0.00    +0.000 A 
ATOM      9  C   UNL     1       2.782   5.443  18.099  0.00  0.00    +0.000 A 
ATOM     10  C   UNL     1       4.042   5.555  17.487  0.00  0.00    +0.000 A 
ATOM     11  C   UNL     1       4.811   6.716  17.577  0.00  0.00    +0.000 A 
BRANCH   7  12
ATOM     12  C   UNL     1       3.686   2.909  19.588  0.00  0.00    +0.000 C 
ATOM     13  N   UNL     1       4.904   2.504  19.776  0.00  0.00    +0.000 NA
ATOM     14  N   UNL     1       2.882   2.953  20.698  0.00  0.00    +0.000 N 
ATOM     15  H   UNL     1       5.402   2.424  18.886  0.00  0.00    +0.000 HD
ATOM     16  H   UNL     1       1.894   2.772  20.542  0.00  0.00    +0.000 HD
ATOM     17  H   UNL     1       3.241   2.329  21.415  0.00  0.00    +0.000 HD
ENDBRANCH   7  12
ENDBRANCH   1   2
BRANCH   1  18
ATOM     18  C   UNL     1       7.767   7.843  17.969  0.00  0.00    +0.000 C 
ATOM     19  O   UNL     1       8.050   6.860  18.619  0.00  0.00    +0.000 OA
BRANCH  18  23
ATOM     20  C   UNL     1       9.590  11.717  18.484  0.00  0.00    +0.000 A 
ATOM     21  C   UNL     1       8.586  11.506  17.521  0.00  0.00    +0.000 A 
ATOM     22  C   UNL     1       7.951  10.264  17.394  0.00  0.00    +0.000 A 
ATOM     23  C   UNL     1       8.313   9.207  18.230  0.00  0.00    +0.000 A 
ATOM     24  C   UNL     1       9.278   9.419  19.227  0.00  0.00    +0.000 A 
ATOM     25  C   UNL     1       9.892  10.666  19.352  0.00  0.00    +0.000 A 
BRANCH  20  29
ATOM     26  N   UNL     1      12.156  12.753  17.272  0.00  0.00    +0.000 NA
ATOM     27  C   UNL     1      11.294  13.447  17.926  0.00  0.00    +0.000 C 
ATOM     28  N   UNL     1      11.452  14.786  18.061  0.00  0.00    +0.000 N 
ATOM     29  N   UNL     1      10.187  12.991  18.571  0.00  0.00    +0.000 N 
ATOM     30  H   UNL     1      12.884  13.354  16.890  0.00  0.00    +0.000 HD
ATOM     31  H   UNL     1      12.372  15.129  17.816  0.00  0.00    +0.000 HD
ATOM     32  H   UNL     1      11.158  15.161  18.954  0.00  0.00    +0.000 HD
ATOM     33  H   UNL     1       9.554  13.693  18.927  0.00  0.00    +0.000 HD
ENDBRANCH  20  29
ENDBRANCH  18  23
ENDBRANCH   1  18
TORSDOF 5
ENDMDL
MODEL 2
REMARK VINA RESULT:      -8.4      6.005      7.449
REMARK  Name = 
REMARK  5 active torsions:
REMARK  status: ('A' for Active; 'I' for Inactive)
REMARK    1  A    between atoms: N_4  and  C_5
REMARK    2  A    between atoms: C_8  and  C_9
REMARK    3  A    between atoms: C_9  and  O_11
REMARK    4  A    between atoms: O_11  and  C_12
REMARK    5  A    between atoms: C_17  and  C_18
REMARK                            x       y       z     vdW  Elec       q    Type
REMARK                         _______ _______ _______ _____ _____    ______ ____
ROOT
ATOM      1  O   UNL     1       1.564   8.430  21.231  0.00  0.00    +0.000 OA
ENDROOT
BRANCH   1   2
ATOM      2  C   UNL     1       1.826   7.465  20.261  0.00  0.00    +0.000 A 
ATOM      3  C   UNL     1       2.131   7.886  18.972  0.00  0.00    +0.000 A 
ATOM      4  C   UNL     1       2.555   6.941  18.037  0.00  0.00    +0.000 A 
ATOM      5  C   UNL     1       2.604   5.581  18.387  0.00  0.00    +0.000 A 
ATOM      6  C   UNL     1       3.359   4.628  17.689  0.00  0.00    +0.000 A 
ATOM      7  C   UNL     1       3.477   3.347  18.240  0.00  0.00    +0.000 A 
ATOM      8  C   UNL     1       2.379   2.871  18.949  0.00  0.00    +0.000 A 
ATOM      9  C   UNL     1       1.742   3.785  19.771  0.00  0.00    +0.000 A 
ATOM     10  C   UNL     1       1.978   5.156  19.577  0.00  0.00    +0.000 A 
ATOM     11  C   UNL     1       1.670   6.108  20.549  0.00  0.00    +0.000 A 
BRANCH   7  12
ATOM     12  C   UNL     1       4.687   3.150  19.155  0.00  0.00    +0.000 C 
ATOM     13  N   UNL     1       5.721   3.932  19.095  0.00  0.00    +0.000 NA
ATOM     14  N   UNL     1       4.817   2.028  19.933  0.00  0.00    +0.000 N 
ATOM     15  H   UNL     1       5.563   4.693  18.431  0.00  0.00    +0.000 HD
ATOM     16  H   UNL     1       4.297   1.210  19.628  0.00  0.00    +0.000 HD
ATOM     17  H   UNL     1       5.799   1.794  20.048  0.00  0.00    +0.000 HD
ENDBRANCH   7  12
ENDBRANCH   1   2
BRANCH   1  18
ATOM     18  C   UNL     1       0.219   8.758  21.329  0.00  0.00    +0.000 C 
ATOM     19  O   UNL     1      -0.691   8.034  21.672  0.00  0.00    +0.000 OA
BRANCH  18  23
ATOM     20  C   UNL     1      -0.641  12.734  19.895  0.00  0.00    +0.000 A 
ATOM     21  C   UNL     1      -0.178  12.515  21.206  0.00  0.00    +0.000 A 
ATOM     22  C   UNL     1       0.159  11.231  21.653  0.00  0.00    +0.000 A 
ATOM     23  C   UNL     1       0.035  10.139  20.794  0.00  0.00    +0.000 A 
ATOM     24  C   UNL     1      -0.379  10.350  19.469  0.00  0.00    +0.000 A 
ATOM     25  C   UNL     1      -0.697  11.637  19.032  0.00  0.00    +0.000 A 
BRANCH  20  29
ATOM     26  N   UNL     1       1.149  14.946  18.882  0.00  0.00    +0.000 NA
ATOM     27  C   UNL     1      -0.133  14.983  18.953  0.00  0.00    +0.000 C 
ATOM     28  N   UNL     1      -0.815  16.055  18.481  0.00  0.00    +0.000 N 
ATOM     29  N   UNL     1      -0.957  14.048  19.500  0.00  0.00    +0.000 N 
ATOM     30  H   UNL     1       1.507  15.779  18.418  0.00  0.00    +0.000 HD
ATOM     31  H   UNL     1      -0.244  16.869  18.294  0.00  0.00    +0.000 HD
ATOM     32  H   UNL     1      -1.634  16.309  19.020  0.00  0.00    +0.000 HD
ATOM     33  H   UNL     1      -1.947  14.184  19.355  0.00  0.00    +0.000 HD
ENDBRANCH  20  29
ENDBRANCH  18  23
ENDBRANCH   1  18
TORSDOF 5
ENDMDL
MODEL 3
REMARK VINA RESULT:      -8.3      0.531      1.083
REMARK  Name = 
REMARK  5 active torsions:
REMARK  status: ('A' for Active; 'I' for Inactive)
REMARK    1  A    between atoms: N_4  and  C_5
REMARK    2  A    between atoms: C_8  and  C_9
REMARK    3  A    between atoms: C_9  and  O_11
REMARK    4  A    between atoms: O_11  and  C_12
REMARK    5  A    between atoms: C_17  and  C_18
REMARK                            x       y       z     vdW  Elec       q    Type
REMARK                         _______ _______ _______ _____ _____    ______ ____
ROOT
ATOM      1  O   UNL     1       7.098   7.763  16.831  0.00  0.00    +0.000 OA
ENDROOT
BRANCH   1   2
ATOM      2  C   UNL     1       6.239   6.670  16.747  0.00  0.00    +0.000 A 
ATOM      3  C   UNL     1       6.553   5.645  15.862  0.00  0.00    +0.000 A 
ATOM      4  C   UNL     1       5.792   4.475  15.889  0.00  0.00    +0.000 A 
ATOM      5  C   UNL     1       4.689   4.376  16.753  0.00  0.00    +0.000 A 
ATOM      6  C   UNL     1       4.114   3.156  17.140  0.00  0.00    +0.000 A 
ATOM      7  C   UNL     1       3.142   3.174  18.146  0.00  0.00    +0.000 A 
ATOM      8  C   UNL     1       2.317   4.293  18.195  0.00  0.00    +0.000 A 
ATOM      9  C   UNL     1       2.933   5.513  17.981  0.00  0.00    +0.000 A 
ATOM     10  C   UNL     1       4.205   5.540  17.384  0.00  0.00    +0.000 A 
ATOM     11  C   UNL     1       5.032   6.662  17.448  0.00  0.00    +0.000 A 
BRANCH   7  12
ATOM     12  C   UNL     1       3.684   2.987  19.565  0.00  0.00    +0.000 C 
ATOM     13  N   UNL     1       4.898   2.587  19.783  0.00  0.00    +0.000 NA
ATOM     14  N   UNL     1       2.856   3.042  20.656  0.00  0.00    +0.000 N 
ATOM     15  H   UNL     1       5.416   2.498  18.905  0.00  0.00    +0.000 HD
ATOM     16  H   UNL     1       1.872   2.857  20.481  0.00  0.00    +0.000 HD
ATOM     17  H   UNL     1       3.201   2.427  21.388  0.00  0.00    +0.000 HD
ENDBRANCH   7  12
ENDBRANCH   1   2
BRANCH   1  18
ATOM     18  C   UNL     1       7.910   7.739  17.955  0.00  0.00    +0.000 C 
ATOM     19  O   UNL     1       8.098   6.805  18.705  0.00  0.00    +0.000 OA
BRANCH  18  23
ATOM     20  C   UNL     1       9.119  11.779  18.859  0.00  0.00    +0.000 A 
ATOM     21  C   UNL     1       9.563  10.694  19.635  0.00  0.00    +0.000 A 
ATOM     22  C   UNL     1       9.221   9.375  19.307  0.00  0.00    +0.000 A 
ATOM     23  C   UNL     1       8.421   9.121  18.193  0.00  0.00    +0.000 A 
ATOM     24  C   UNL     1       8.012  10.191  17.381  0.00  0.00    +0.000 A 
ATOM     25  C   UNL     1       8.373  11.497  17.712  0.00  0.00    +0.000 A 
BRANCH  20  29
ATOM     26  N   UNL     1      11.603  13.352  18.166  0.00  0.00    +0.000 NA
ATOM     27  C   UNL     1      10.586  13.792  18.817  0.00  0.00    +0.000 C 
ATOM     28  N   UNL     1      10.524  15.092  19.196  0.00  0.00    +0.000 N 
ATOM     29  N   UNL     1       9.503  13.082  19.233  0.00  0.00    +0.000 N 
ATOM     30  H   UNL     1      12.265  14.105  17.984  0.00  0.00    +0.000 HD
ATOM     31  H   UNL     1      11.401  15.593  19.127  0.00  0.00    +0.000 HD
ATOM     32  H   UNL     1      10.091  15.252  20.096  0.00  0.00    +0.000 HD
ATOM     33  H   UNL     1       8.740  13.616  19.622  0.00  0.00    +0.000 HD
ENDBRANCH  20  29
ENDBRANCH  18  23
ENDBRANCH   1  18
TORSDOF 5
ENDMDL
MODEL 4
REMARK VINA RESULT:      -8.3      5.593      6.876
REMARK  Name = 
REMARK  5 active torsions:
REMARK  status: ('A' for Active; 'I' for Inactive)
REMARK    1  A    between atoms: N_4  and  C_5
REMARK    2  A    between atoms: C_8  and  C_9
REMARK    3  A    between atoms: C_9  and  O_11
REMARK    4  A    between atoms: O_11  and  C_12
REMARK    5  A    between atoms: C_17  and  C_18
REMARK                            x       y       z     vdW  Elec       q    Type
REMARK                         _______ _______ _______ _____ _____    ______ ____
ROOT
ATOM      1  O   UNL     1       7.027   6.083  18.148  0.00  0.00    +0.000 OA
ENDROOT
BRANCH   1   2
ATOM      2  C   UNL     1       5.643   5.997  18.282  0.00  0.00    +0.000 A 
ATOM      3  C   UNL     1       4.846   6.804  17.479  0.00  0.00    +0.000 A 
ATOM      4  C   UNL     1       3.465   6.609  17.487  0.00  0.00    +0.000 A 
ATOM      5  C   UNL     1       2.896   5.655  18.347  0.00  0.00    +0.000 A 
ATOM      6  C   UNL     1       1.615   5.113  18.167  0.00  0.00    +0.000 A 
ATOM      7  C   UNL     1       1.232   4.039  18.977  0.00  0.00    +0.000 A 
ATOM      8  C   UNL     1       1.733   4.029  20.275  0.00  0.00    +0.000 A 
ATOM      9  C   UNL     1       3.057   4.404  20.419  0.00  0.00    +0.000 A 
ATOM     10  C   UNL     1       3.687   5.099  19.373  0.00  0.00    +0.000 A 
ATOM     11  C   UNL     1       5.075   5.205  19.282  0.00  0.00    +0.000 A 
BRANCH   7  12
ATOM     12  C   UNL     1       1.537   2.656  18.397  0.00  0.00    +0.000 C 
ATOM     13  N   UNL     1       1.091   1.572  18.951  0.00  0.00    +0.000 NA
ATOM     14  N   UNL     1       2.452   2.493  17.389  0.00  0.00    +0.000 N 
ATOM     15  H   UNL     1       0.481   1.791  19.742  0.00  0.00    +0.000 HD
ATOM     16  H   UNL     1       3.150   3.226  17.295  0.00  0.00    +0.000 HD
ATOM     17  H   UNL     1       2.908   1.588  17.474  0.00  0.00    +0.000 HD
ENDBRANCH   7  12
ENDBRANCH   1   2
BRANCH   1  18
ATOM     18  C   UNL     1       7.612   4.900  17.721  0.00  0.00    +0.000 C 
ATOM     19  O   UNL     1       8.539   4.312  18.235  0.00  0.00    +0.000 OA
BRANCH  18  23
ATOM     20  C   UNL     1       5.636   4.083  13.975  0.00  0.00    +0.000 A 
ATOM     21  C   UNL     1       6.752   4.937  14.041  0.00  0.00    +0.000 A 
ATOM     22  C   UNL     1       7.432   5.156  15.246  0.00  0.00    +0.000 A 
ATOM     23  C   UNL     1       7.002   4.522  16.412  0.00  0.00    +0.000 A 
ATOM     24  C   UNL     1       5.920   3.629  16.352  0.00  0.00    +0.000 A 
ATOM     25  C   UNL     1       5.262   3.410  15.141  0.00  0.00    +0.000 A 
BRANCH  20  29
ATOM     26  N   UNL     1       6.094   1.988  11.848  0.00  0.00    +0.000 NA
ATOM     27  C   UNL     1       5.166   2.877  11.846  0.00  0.00    +0.000 C 
ATOM     28  N   UNL     1       4.229   2.890  10.868  0.00  0.00    +0.000 N 
ATOM     29  N   UNL     1       4.999   3.895  12.733  0.00  0.00    +0.000 N 
ATOM     30  H   UNL     1       5.974   1.344  11.067  0.00  0.00    +0.000 HD
ATOM     31  H   UNL     1       4.451   2.316  10.064  0.00  0.00    +0.000 HD
ATOM     32  H   UNL     1       3.931   3.812  10.576  0.00  0.00    +0.000 HD
ATOM     33  H   UNL     1       4.143   4.424  12.651  0.00  0.00    +0.000 HD
ENDBRANCH  20  29
ENDBRANCH  18  23
ENDBRANCH   1  18
TORSDOF 5
ENDMDL
MODEL 5
REMARK VINA RESULT:      -8.2      5.608      6.998
REMARK  Name = 
REMARK  5 active torsions:
REMARK  status: ('A' for Active; 'I' for Inactive)
REMARK    1  A    between atoms: N_4  and  C_5
REMARK    2  A    between atoms: C_8  and  C_9
REMARK    3  A    between atoms: C_9  and  O_11
REMARK    4  A    between atoms: O_11  and  C_12
REMARK    5  A    between atoms: C_17  and  C_18
REMARK                            x       y       z     vdW  Elec       q    Type
REMARK                         _______ _______ _______ _____ _____    ______ ____
ROOT
ATOM      1  O   UNL     1       7.223   5.881  18.096  0.00  0.00    +0.000 OA
ENDROOT
BRANCH   1   2
ATOM      2  C   UNL     1       5.849   5.892  18.330  0.00  0.00    +0.000 A 
ATOM      3  C   UNL     1       5.076   6.859  17.697  0.00  0.00    +0.000 A 
ATOM      4  C   UNL     1       3.687   6.778  17.793  0.00  0.00    +0.000 A 
ATOM      5  C   UNL     1       3.094   5.772  18.574  0.00  0.00    +0.000 A 
ATOM      6  C   UNL     1       1.760   5.365  18.433  0.00  0.00    +0.000 A 
ATOM      7  C   UNL     1       1.337   4.232  19.135  0.00  0.00    +0.000 A 
ATOM      8  C   UNL     1       1.923   4.014  20.377  0.00  0.00    +0.000 A 
ATOM      9  C   UNL     1       3.284   4.257  20.459  0.00  0.00    +0.000 A 
ATOM     10  C   UNL     1       3.900   5.026  19.458  0.00  0.00    +0.000 A 
ATOM     11  C   UNL     1       5.283   5.028  19.269  0.00  0.00    +0.000 A 
BRANCH   7  12
ATOM     12  C   UNL     1       1.472   2.914  18.369  0.00  0.00    +0.000 C 
ATOM     13  N   UNL     1       2.139   2.837  17.259  0.00  0.00    +0.000 NA
ATOM     14  N   UNL     1       0.735   1.811  18.714  0.00  0.00    +0.000 N 
ATOM     15  H   UNL     1       2.589   3.729  17.042  0.00  0.00    +0.000 HD
ATOM     16  H   UNL     1      -0.122   1.989  19.230  0.00  0.00    +0.000 HD
ATOM     17  H   UNL     1       0.534   1.252  17.888  0.00  0.00    +0.000 HD
ENDBRANCH   7  12
ENDBRANCH   1   2
BRANCH   1  18
ATOM     18  C   UNL     1       7.662   4.728  17.462  0.00  0.00    +0.000 C 
ATOM     19  O   UNL     1       8.562   3.994  17.812  0.00  0.00    +0.000 OA
BRANCH  18  23
ATOM     20  C   UNL     1       5.725   4.061  13.666  0.00  0.00    +0.000 A 
ATOM     21  C   UNL     1       5.187   3.547  14.860  0.00  0.00    +0.000 A 
ATOM     22  C   UNL     1       5.782   3.813  16.101  0.00  0.00    +0.000 A 
ATOM     23  C   UNL     1       6.932   4.600  16.166  0.00  0.00    +0.000 A 
ATOM     24  C   UNL     1       7.451   5.160  14.988  0.00  0.00    +0.000 A 
ATOM     25  C   UNL     1       6.839   4.898  13.761  0.00  0.00    +0.000 A 
BRANCH  20  29
ATOM     26  N   UNL     1       6.095   1.733  11.776  0.00  0.00    +0.000 NA
ATOM     27  C   UNL     1       5.203   2.653  11.678  0.00  0.00    +0.000 C 
ATOM     28  N   UNL     1       4.264   2.597  10.703  0.00  0.00    +0.000 N 
ATOM     29  N   UNL     1       5.078   3.766  12.450  0.00  0.00    +0.000 N 
ATOM     30  H   UNL     1       5.949   1.015  11.069  0.00  0.00    +0.000 HD
ATOM     31  H   UNL     1       4.462   1.932   9.965  0.00  0.00    +0.000 HD
ATOM     32  H   UNL     1       4.001   3.494  10.314  0.00  0.00    +0.000 HD
ATOM     33  H   UNL     1       4.242   4.316  12.311  0.00  0.00    +0.000 HD
ENDBRANCH  20  29
ENDBRANCH  18  23
ENDBRANCH   1  18
TORSDOF 5
ENDMDL
MODEL 6
REMARK VINA RESULT:      -8.2      0.842      1.179
REMARK  Name = 
REMARK  5 active torsions:
REMARK  status: ('A' for Active; 'I' for Inactive)
REMARK    1  A    between atoms: N_4  and  C_5
REMARK    2  A    between atoms: C_8  and  C_9
REMARK    3  A    between atoms: C_9  and  O_11
REMARK    4  A    between atoms: O_11  and  C_12
REMARK    5  A    between atoms: C_17  and  C_18
REMARK                            x       y       z     vdW  Elec       q    Type
REMARK                         _______ _______ _______ _____ _____    ______ ____
ROOT
ATOM      1  O   UNL     1       7.002   7.860  16.889  0.00  0.00    +0.000 OA
ENDROOT
BRANCH   1   2
ATOM      2  C   UNL     1       6.180   6.739  16.792  0.00  0.00    +0.000 A 
ATOM      3  C   UNL     1       6.537   5.730  15.904  0.00  0.00    +0.000 A 
ATOM      4  C   UNL     1       5.815   4.536  15.918  0.00  0.00    +0.000 A 
ATOM      5  C   UNL     1       4.708   4.394  16.770  0.00  0.00    +0.000 A 
ATOM      6  C   UNL     1       4.170   3.154  17.145  0.00  0.00    +0.000 A 
ATOM      7  C   UNL     1       3.189   3.133  18.142  0.00  0.00    +0.000 A 
ATOM      8  C   UNL     1       2.326   4.223  18.190  0.00  0.00    +0.000 A 
ATOM      9  C   UNL     1       2.903   5.465  17.988  0.00  0.00    +0.000 A 
ATOM     10  C   UNL     1       4.179   5.538  17.403  0.00  0.00    +0.000 A 
ATOM     11  C   UNL     1       4.968   6.686  17.481  0.00  0.00    +0.000 A 
BRANCH   7  12
ATOM     12  C   UNL     1       3.724   2.956  19.565  0.00  0.00    +0.000 C 
ATOM     13  N   UNL     1       4.912   2.488  19.793  0.00  0.00    +0.000 NA
ATOM     14  N   UNL     1       2.905   3.096  20.656  0.00  0.00    +0.000 N 
ATOM     15  H   UNL     1       5.419   2.341  18.917  0.00  0.00    +0.000 HD
ATOM     16  H   UNL     1       1.911   2.967  20.489  0.00  0.00    +0.000 HD
ATOM     17  H   UNL     1       3.214   2.483  21.406  0.00  0.00    +0.000 HD
ENDBRANCH   7  12
ENDBRANCH   1   2
BRANCH   1  18
ATOM     18  C   UNL     1       7.860   7.818  17.978  0.00  0.00    +0.000 C 
ATOM     19  O   UNL     1       8.133   6.854  18.662  0.00  0.00    +0.000 OA
BRANCH  18  23
ATOM     20  C   UNL     1       9.394  11.797  18.623  0.00  0.00    +0.000 A 
ATOM     21  C   UNL     1       8.457  11.532  17.608  0.00  0.00    +0.000 A 
ATOM     22  C   UNL     1       7.912  10.253  17.436  0.00  0.00    +0.000 A 
ATOM     23  C   UNL     1       8.301   9.212  18.280  0.00  0.00    +0.000 A 
ATOM     24  C   UNL     1       9.198   9.474  19.328  0.00  0.00    +0.000 A 
ATOM     25  C   UNL     1       9.721  10.757  19.496  0.00  0.00    +0.000 A 
BRANCH  20  29
ATOM     26  N   UNL     1       8.263  14.187  20.085  0.00  0.00    +0.000 NA
ATOM     27  C   UNL     1       9.409  14.127  19.505  0.00  0.00    +0.000 C 
ATOM     28  N   UNL     1      10.270  15.171  19.577  0.00  0.00    +0.000 N 
ATOM     29  N   UNL     1       9.899  13.106  18.752  0.00  0.00    +0.000 N 
ATOM     30  H   UNL     1       8.160  15.069  20.584  0.00  0.00    +0.000 HD
ATOM     31  H   UNL     1       9.859  16.034  19.911  0.00  0.00    +0.000 HD
ATOM     32  H   UNL     1      10.811  15.334  18.738  0.00  0.00    +0.000 HD
ATOM     33  H   UNL     1      10.868  13.177  18.478  0.00  0.00    +0.000 HD
ENDBRANCH  20  29
ENDBRANCH  18  23
ENDBRANCH   1  18
TORSDOF 5
ENDMDL
MODEL 7
REMARK VINA RESULT:      -8.1      6.094      7.488
REMARK  Name = 
REMARK  5 active torsions:
REMARK  status: ('A' for Active; 'I' for Inactive)
REMARK    1  A    between atoms: N_4  and  C_5
REMARK    2  A    between atoms: C_8  and  C_9
REMARK    3  A    between atoms: C_9  and  O_11
REMARK    4  A    between atoms: O_11  and  C_12
REMARK    5  A    between atoms: C_17  and  C_18
REMARK                            x       y       z     vdW  Elec       q    Type
REMARK                         _______ _______ _______ _____ _____    ______ ____
ROOT
ATOM      1  O   UNL     1       1.512   8.407  21.325  0.00  0.00    +0.000 OA
ENDROOT
BRANCH   1   2
ATOM      2  C   UNL     1       1.805   7.498  20.310  0.00  0.00    +0.000 A 
ATOM      3  C   UNL     1       2.107   7.990  19.046  0.00  0.00    +0.000 A 
ATOM      4  C   UNL     1       2.560   7.103  18.069  0.00  0.00    +0.000 A 
ATOM      5  C   UNL     1       2.641   5.730  18.351  0.00  0.00    +0.000 A 
ATOM      6  C   UNL     1       3.424   4.830  17.613  0.00  0.00    +0.000 A 
ATOM      7  C   UNL     1       3.570   3.527  18.101  0.00  0.00    +0.000 A 
ATOM      8  C   UNL     1       2.481   2.990  18.778  0.00  0.00    +0.000 A 
ATOM      9  C   UNL     1       1.816   3.846  19.639  0.00  0.00    +0.000 A 
ATOM     10  C   UNL     1       2.019   5.231  19.514  0.00  0.00    +0.000 A 
ATOM     11  C   UNL     1       1.681   6.125  20.530  0.00  0.00    +0.000 A 
BRANCH   7  12
ATOM     12  C   UNL     1       4.780   3.315  19.013  0.00  0.00    +0.000 C 
ATOM     13  N   UNL     1       4.896   2.259  19.757  0.00  0.00    +0.000 NA
ATOM     14  N   UNL     1       5.690   4.317  19.234  0.00  0.00    +0.000 N 
ATOM     15  H   UNL     1       4.130   1.605  19.581  0.00  0.00    +0.000 HD
ATOM     16  H   UNL     1       5.360   5.265  19.074  0.00  0.00    +0.000 HD
ATOM     17  H   UNL     1       6.078   4.237  20.171  0.00  0.00    +0.000 HD
ENDBRANCH   7  12
ENDBRANCH   1   2
BRANCH   1  18
ATOM     18  C   UNL     1       0.173   8.766  21.370  0.00  0.00    +0.000 C 
ATOM     19  O   UNL     1      -0.764   8.069  21.697  0.00  0.00    +0.000 OA
BRANCH  18  23
ATOM     20  C   UNL     1       0.001  12.636  19.475  0.00  0.00    +0.000 A 
ATOM     21  C   UNL     1      -0.891  11.609  19.118  0.00  0.00    +0.000 A 
ATOM     22  C   UNL     1      -0.877  10.371  19.775  0.00  0.00    +0.000 A 
ATOM     23  C   UNL     1       0.038  10.140  20.802  0.00  0.00    +0.000 A 
ATOM     24  C   UNL     1       0.901  11.173  21.201  0.00  0.00    +0.000 A 
ATOM     25  C   UNL     1       0.865  12.406  20.548  0.00  0.00    +0.000 A 
BRANCH  20  29
ATOM     26  N   UNL     1      -1.632  15.111  20.056  0.00  0.00    +0.000 NA
ATOM     27  C   UNL     1      -0.742  14.990  19.137  0.00  0.00    +0.000 C 
ATOM     28  N   UNL     1      -0.403  16.053  18.367  0.00  0.00    +0.000 N 
ATOM     29  N   UNL     1      -0.068  13.862  18.784  0.00  0.00    +0.000 N 
ATOM     30  H   UNL     1      -1.970  16.071  20.104  0.00  0.00    +0.000 HD
ATOM     31  H   UNL     1      -1.041  16.836  18.424  0.00  0.00    +0.000 HD
ATOM     32  H   UNL     1      -0.197  15.829  17.401  0.00  0.00    +0.000 HD
ATOM     33  H   UNL     1       0.687  13.979  18.124  0.00  0.00    +0.000 HD
ENDBRANCH  20  29
ENDBRANCH  18  23
ENDBRANCH   1  18
TORSDOF 5
ENDMDL
MODEL 8
REMARK VINA RESULT:      -8.1      6.686      8.059
REMARK  Name = 
REMARK  5 active torsions:
REMARK  status: ('A' for Active; 'I' for Inactive)
REMARK    1  A    between atoms: N_4  and  C_5
REMARK    2  A    between atoms: C_8  and  C_9
REMARK    3  A    between atoms: C_9  and  O_11
REMARK    4  A    between atoms: O_11  and  C_12
REMARK    5  A    between atoms: C_17  and  C_18
REMARK                            x       y       z     vdW  Elec       q    Type
REMARK                         _______ _______ _______ _____ _____    ______ ____
ROOT
ATOM      1  O   UNL     1       1.588   8.411  21.461  0.00  0.00    +0.000 OA
ENDROOT
BRANCH   1   2
ATOM      2  C   UNL     1       1.820   7.494  20.437  0.00  0.00    +0.000 A 
ATOM      3  C   UNL     1       2.068   7.977  19.157  0.00  0.00    +0.000 A 
ATOM      4  C   UNL     1       2.462   7.080  18.164  0.00  0.00    +0.000 A 
ATOM      5  C   UNL     1       2.537   5.706  18.448  0.00  0.00    +0.000 A 
ATOM      6  C   UNL     1       3.271   4.793  17.678  0.00  0.00    +0.000 A 
ATOM      7  C   UNL     1       3.423   3.490  18.164  0.00  0.00    +0.000 A 
ATOM      8  C   UNL     1       2.359   2.970  18.895  0.00  0.00    +0.000 A 
ATOM      9  C   UNL     1       1.748   3.839  19.782  0.00  0.00    +0.000 A 
ATOM     10  C   UNL     1       1.964   5.221  19.642  0.00  0.00    +0.000 A 
ATOM     11  C   UNL     1       1.687   6.124  20.669  0.00  0.00    +0.000 A 
BRANCH   7  12
ATOM     12  C   UNL     1       4.671   3.265  19.019  0.00  0.00    +0.000 C 
ATOM     13  N   UNL     1       5.719   4.021  18.908  0.00  0.00    +0.000 NA
ATOM     14  N   UNL     1       4.812   2.141  19.792  0.00  0.00    +0.000 N 
ATOM     15  H   UNL     1       5.547   4.786  18.251  0.00  0.00    +0.000 HD
ATOM     16  H   UNL     1       4.259   1.335  19.514  0.00  0.00    +0.000 HD
ATOM     17  H   UNL     1       5.793   1.883  19.859  0.00  0.00    +0.000 HD
ENDBRANCH   7  12
ENDBRANCH   1   2
BRANCH   1  18
ATOM     18  C   UNL     1       0.243   8.686  21.657  0.00  0.00    +0.000 C 
ATOM     19  O   UNL     1      -0.684   7.908  21.585  0.00  0.00    +0.000 OA
BRANCH  18  23
ATOM     20  C   UNL     1      -0.475  12.929  21.955  0.00  0.00    +0.000 A 
ATOM     21  C   UNL     1      -1.103  12.019  22.826  0.00  0.00    +0.000 A 
ATOM     22  C   UNL     1      -0.824  10.647  22.770  0.00  0.00    +0.000 A 
ATOM     23  C   UNL     1       0.089  10.160  21.835  0.00  0.00    +0.000 A 
ATOM     24  C   UNL     1       0.759  11.062  20.993  0.00  0.00    +0.000 A 
ATOM     25  C   UNL     1       0.483  12.428  21.070  0.00  0.00    +0.000 A 
BRANCH  20  29
ATOM     26  N   UNL     1      -2.435  14.610  20.388  0.00  0.00    +0.000 NA
ATOM     27  C   UNL     1      -1.753  14.996  21.406  0.00  0.00    +0.000 C 
ATOM     28  N   UNL     1      -1.931  16.236  21.922  0.00  0.00    +0.000 N 
ATOM     29  N   UNL     1      -0.789  14.297  22.065  0.00  0.00    +0.000 N 
ATOM     30  H   UNL     1      -3.091  15.335  20.100  0.00  0.00    +0.000 HD
ATOM     31  H   UNL     1      -2.448  16.870  21.326  0.00  0.00    +0.000 HD
ATOM     32  H   UNL     1      -1.088  16.678  22.267  0.00  0.00    +0.000 HD
ATOM     33  H   UNL     1      -0.445  14.708  22.921  0.00  0.00    +0.000 HD
ENDBRANCH  20  29
ENDBRANCH  18  23
ENDBRANCH   1  18
TORSDOF 5
ENDMDL
MODEL 9
REMARK VINA RESULT:      -8.0      5.983      8.015
REMARK  Name = 
REMARK  5 active torsions:
REMARK  status: ('A' for Active; 'I' for Inactive)
REMARK    1  A    between atoms: N_4  and  C_5
REMARK    2  A    between atoms: C_8  and  C_9
REMARK    3  A    between atoms: C_9  and  O_11
REMARK    4  A    between atoms: O_11  and  C_12
REMARK    5  A    between atoms: C_17  and  C_18
REMARK                            x       y       z     vdW  Elec       q    Type
REMARK                         _______ _______ _______ _____ _____    ______ ____
ROOT
ATOM      1  O   UNL     1       2.579   8.627  18.357  0.00  0.00    +0.000 OA
ENDROOT
BRANCH   1   2
ATOM      2  C   UNL     1       2.966   7.351  17.950  0.00  0.00    +0.000 A 
ATOM      3  C   UNL     1       4.137   7.216  17.213  0.00  0.00    +0.000 A 
ATOM      4  C   UNL     1       4.618   5.934  16.943  0.00  0.00    +0.000 A 
ATOM      5  C   UNL     1       3.886   4.809  17.355  0.00  0.00    +0.000 A 
ATOM      6  C   UNL     1       4.440   3.527  17.486  0.00  0.00    +0.000 A 
ATOM      7  C   UNL     1       3.663   2.528  18.080  0.00  0.00    +0.000 A 
ATOM      8  C   UNL     1       2.291   2.590  17.856  0.00  0.00    +0.000 A 
ATOM      9  C   UNL     1       1.724   3.852  17.901  0.00  0.00    +0.000 A 
ATOM     10  C   UNL     1       2.557   4.978  17.797  0.00  0.00    +0.000 A 
ATOM     11  C   UNL     1       2.134   6.253  18.174  0.00  0.00    +0.000 A 
BRANCH   7  12
ATOM     12  C   UNL     1       3.837   2.395  19.595  0.00  0.00    +0.000 C 
ATOM     13  N   UNL     1       4.957   2.005  20.120  0.00  0.00    +0.000 NA
ATOM     14  N   UNL     1       2.765   2.490  20.446  0.00  0.00    +0.000 N 
ATOM     15  H   UNL     1       5.673   1.885  19.401  0.00  0.00    +0.000 HD
ATOM     16  H   UNL     1       1.854   2.296  20.041  0.00  0.00    +0.000 HD
ATOM     17  H   UNL     1       2.915   1.903  21.262  0.00  0.00    +0.000 HD
ENDBRANCH   7  12
ENDBRANCH   1   2
BRANCH   1  18
ATOM     18  C   UNL     1       1.753   8.620  19.471  0.00  0.00    +0.000 C 
ATOM     19  O   UNL     1       1.812   7.875  20.425  0.00  0.00    +0.000 OA
BRANCH  18  23
ATOM     20  C   UNL     1      -1.639  11.227  18.918  0.00  0.00    +0.000 A 
ATOM     21  C   UNL     1      -0.983  11.136  20.159  0.00  0.00    +0.000 A 
ATOM     22  C   UNL     1       0.155  10.337  20.324  0.00  0.00    +0.000 A 
ATOM     23  C   UNL     1       0.657   9.608  19.245  0.00  0.00    +0.000 A 
ATOM     24  C   UNL     1       0.041   9.728  17.989  0.00  0.00    +0.000 A 
ATOM     25  C   UNL     1      -1.083  10.540  17.836  0.00  0.00    +0.000 A 
BRANCH  20  29
ATOM     26  N   UNL     1      -4.433  10.588  17.963  0.00  0.00    +0.000 NA
ATOM     27  C   UNL     1      -4.043  11.703  18.470  0.00  0.00    +0.000 C 
ATOM     28  N   UNL     1      -4.930  12.703  18.692  0.00  0.00    +0.000 N 
ATOM     29  N   UNL     1      -2.774  12.054  18.811  0.00  0.00    +0.000 N 
ATOM     30  H   UNL     1      -5.440  10.597  17.810  0.00  0.00    +0.000 HD
ATOM     31  H   UNL     1      -5.825  12.582  18.234  0.00  0.00    +0.000 HD
ATOM     32  H   UNL     1      -4.569  13.635  18.530  0.00  0.00    +0.000 HD
ATOM     33  H   UNL     1      -2.670  12.924  19.313  0.00  0.00    +0.000 HD
ENDBRANCH  20  29
ENDBRANCH  18  23
ENDBRANCH   1  18
TORSDOF 5
ENDMDL
