MODEL 1
REMARK VINA RESULT:      -8.0      0.000      0.000
REMARK  Name = 
REMARK  5 active torsions:
REMARK  status: ('A' for Active; 'I' for Inactive)
REMARK    1  A    between atoms: C_1  and  C_2
REMARK    2  A    between atoms: C_2  and  C_3
REMARK    3  A    between atoms: N_5  and  C_6
REMARK    4  A    between atoms: C_6  and  C_7
REMARK    5  A    between atoms: C_7  and  C_8
REMARK                            x       y       z     vdW  Elec       q    Type
REMARK                         _______ _______ _______ _____ _____    ______ ____
ROOT
ATOM      1  C   UNL     1       3.278   5.359  18.378  0.00  0.00    +0.000 A 
ATOM      2  C   UNL     1       2.621   6.443  18.946  0.00  0.00    +0.000 A 
ATOM      3  N   UNL     1       2.141   6.032  20.169  0.00  0.00    +0.000 N 
ATOM      4  C   UNL     1       2.453   4.754  20.470  0.00  0.00    +0.000 A 
ATOM      5  C   UNL     1       2.155   3.982  21.597  0.00  0.00    +0.000 A 
ATOM      6  C   UNL     1       2.621   2.668  21.625  0.00  0.00    +0.000 A 
ATOM      7  C   UNL     1       3.361   2.159  20.570  0.00  0.00    +0.000 A 
ATOM      8  C   UNL     1       3.649   2.955  19.459  0.00  0.00    +0.000 A 
ATOM      9  C   UNL     1       3.187   4.287  19.376  0.00  0.00    +0.000 A 
ATOM     10  C   UNL     1       1.399   7.044  20.899  0.00  0.00    +0.000 C 
ATOM     11  C   UNL     1       1.489   8.197  19.935  0.00  0.00    +0.000 A 
ATOM     12  C   UNL     1       0.953   9.464  20.102  0.00  0.00    +0.000 A 
ATOM     13  C   UNL     1       1.164  10.391  19.085  0.00  0.00    +0.000 A 
ATOM     14  C   UNL     1       1.900  10.037  17.939  0.00  0.00    +0.000 A 
ATOM     15  C   UNL     1       2.437   8.748  17.776  0.00  0.00    +0.000 A 
ATOM     16  C   UNL     1       2.224   7.828  18.779  0.00  0.00    +0.000 A 
ENDROOT
BRANCH   1  17
ATOM     17  C   UNL     1       3.969   5.262  17.031  0.00  0.00    +0.000 C 
BRANCH  17  18
ATOM     18  C   UNL     1       5.480   4.983  17.130  0.00  0.00    +0.000 C 
BRANCH  18  21
ATOM     19  C   UNL     1       7.331   6.575  17.394  0.00  0.00    +0.000 C 
ATOM     20  O   UNL     1       7.689   6.405  16.242  0.00  0.00    +0.000 OA
ATOM     21  N   UNL     1       6.251   5.910  17.943  0.00  0.00    +0.000 N 
ATOM     22  H   UNL     1       5.993   6.048  18.909  0.00  0.00    +0.000 HD
BRANCH  19  24
ATOM     23  C   UNL     1       8.010   8.969  17.812  0.00  0.00    +0.000 C 
ATOM     24  C   UNL     1       8.049   7.537  18.339  0.00  0.00    +0.000 C 
ENDBRANCH  19  24
ENDBRANCH  18  21
ENDBRANCH  17  18
ENDBRANCH   1  17
TORSDOF 4
ENDMDL
MODEL 2
REMARK VINA RESULT:      -7.9      2.551      5.953
REMARK  Name = 
REMARK  5 active torsions:
REMARK  status: ('A' for Active; 'I' for Inactive)
REMARK    1  A    between atoms: C_1  and  C_2
REMARK    2  A    between atoms: C_2  and  C_3
REMARK    3  A    between atoms: N_5  and  C_6
REMARK    4  A    between atoms: C_6  and  C_7
REMARK    5  A    between atoms: C_7  and  C_8
REMARK                            x       y       z     vdW  Elec       q    Type
REMARK                         _______ _______ _______ _____ _____    ______ ____
ROOT
ATOM      1  C   UNL     1       4.106   6.018  17.393  0.00  0.00    +0.000 A 
ATOM      2  C   UNL     1       3.549   4.889  17.980  0.00  0.00    +0.000 A 
ATOM      3  N   UNL     1       4.027   3.796  17.295  0.00  0.00    +0.000 N 
ATOM      4  C   UNL     1       4.887   4.113  16.305  0.00  0.00    +0.000 A 
ATOM      5  C   UNL     1       5.576   3.301  15.398  0.00  0.00    +0.000 A 
ATOM      6  C   UNL     1       6.409   3.926  14.471  0.00  0.00    +0.000 A 
ATOM      7  C   UNL     1       6.549   5.305  14.464  0.00  0.00    +0.000 A 
ATOM      8  C   UNL     1       5.852   6.091  15.385  0.00  0.00    +0.000 A 
ATOM      9  C   UNL     1       4.984   5.507  16.334  0.00  0.00    +0.000 A 
ATOM     10  C   UNL     1       3.523   2.518  17.766  0.00  0.00    +0.000 C 
ATOM     11  C   UNL     1       2.634   2.973  18.893  0.00  0.00    +0.000 A 
ATOM     12  C   UNL     1       1.875   2.172  19.730  0.00  0.00    +0.000 A 
ATOM     13  C   UNL     1       1.128   2.801  20.721  0.00  0.00    +0.000 A 
ATOM     14  C   UNL     1       1.157   4.202  20.855  0.00  0.00    +0.000 A 
ATOM     15  C   UNL     1       1.928   5.009  19.998  0.00  0.00    +0.000 A 
ATOM     16  C   UNL     1       2.663   4.387  19.014  0.00  0.00    +0.000 A 
ENDROOT
BRANCH   1  17
ATOM     17  C   UNL     1       3.897   7.478  17.746  0.00  0.00    +0.000 C 
BRANCH  17  18
ATOM     18  C   UNL     1       2.416   7.894  17.800  0.00  0.00    +0.000 C 
BRANCH  18  21
ATOM     19  C   UNL     1       1.084   9.422  19.187  0.00  0.00    +0.000 C 
ATOM     20  O   UNL     1       0.752  10.074  18.213  0.00  0.00    +0.000 OA
ATOM     21  N   UNL     1       1.918   8.324  19.098  0.00  0.00    +0.000 N 
ATOM     22  H   UNL     1       2.201   7.818  19.925  0.00  0.00    +0.000 HD
BRANCH  19  24
ATOM     23  C   UNL     1       0.983   8.667  21.592  0.00  0.00    +0.000 C 
ATOM     24  C   UNL     1       0.610   9.763  20.598  0.00  0.00    +0.000 C 
ENDBRANCH  19  24
ENDBRANCH  18  21
ENDBRANCH  17  18
ENDBRANCH   1  17
TORSDOF 4
ENDMDL
MODEL 3
REMARK VINA RESULT:      -7.9      2.486      5.766
REMARK  Name = 
REMARK  5 active torsions:
REMARK  status: ('A' for Active; 'I' for Inactive)
REMARK    1  A    between atoms: C_1  and  C_2
REMARK    2  A    between atoms: C_2  and  C_3
REMARK    3  A    between atoms: N_5  and  C_6
REMARK    4  A    between atoms: C_6  and  C_7
REMARK    5  A    between atoms: C_7  and  C_8
REMARK                            x       y       z     vdW  Elec       q    Type
REMARK                         _______ _______ _______ _____ _____    ______ ____
ROOT
ATOM      1  C   UNL     1       2.134   6.294  20.267  0.00  0.00    +0.000 A 
ATOM      2  C   UNL     1       2.893   6.525  19.127  0.00  0.00    +0.000 A 
ATOM      3  N   UNL     1       2.577   7.787  18.677  0.00  0.00    +0.000 N 
ATOM      4  C   UNL     1       1.677   8.427  19.452  0.00  0.00    +0.000 A 
ATOM      5  C   UNL     1       1.111   9.701  19.335  0.00  0.00    +0.000 A 
ATOM      6  C   UNL     1       0.192  10.095  20.307  0.00  0.00    +0.000 A 
ATOM      7  C   UNL     1      -0.134   9.248  21.354  0.00  0.00    +0.000 A 
ATOM      8  C   UNL     1       0.451   7.984  21.450  0.00  0.00    +0.000 A 
ATOM      9  C   UNL     1       1.376   7.532  20.482  0.00  0.00    +0.000 A 
ATOM     10  C   UNL     1       3.268   8.189  17.465  0.00  0.00    +0.000 C 
ATOM     11  C   UNL     1       4.104   6.963  17.208  0.00  0.00    +0.000 A 
ATOM     12  C   UNL     1       4.991   6.765  16.162  0.00  0.00    +0.000 A 
ATOM     13  C   UNL     1       5.674   5.554  16.118  0.00  0.00    +0.000 A 
ATOM     14  C   UNL     1       5.462   4.578  17.110  0.00  0.00    +0.000 A 
ATOM     15  C   UNL     1       4.556   4.786  18.166  0.00  0.00    +0.000 A 
ATOM     16  C   UNL     1       3.875   5.983  18.208  0.00  0.00    +0.000 A 
ENDROOT
BRANCH   1  17
ATOM     17  C   UNL     1       2.081   5.056  21.142  0.00  0.00    +0.000 C 
BRANCH  17  18
ATOM     18  C   UNL     1       1.169   3.947  20.587  0.00  0.00    +0.000 C 
BRANCH  18  21
ATOM     19  C   UNL     1       1.691   2.973  18.394  0.00  0.00    +0.000 C 
ATOM     20  O   UNL     1       1.033   3.823  17.820  0.00  0.00    +0.000 OA
ATOM     21  N   UNL     1       1.817   2.933  19.769  0.00  0.00    +0.000 N 
ATOM     22  H   UNL     1       2.345   2.201  20.221  0.00  0.00    +0.000 HD
BRANCH  19  24
ATOM     23  C   UNL     1       3.625   1.353  18.443  0.00  0.00    +0.000 C 
ATOM     24  C   UNL     1       2.433   1.869  17.643  0.00  0.00    +0.000 C 
ENDBRANCH  19  24
ENDBRANCH  18  21
ENDBRANCH  17  18
ENDBRANCH   1  17
TORSDOF 4
ENDMDL
MODEL 4
REMARK VINA RESULT:      -7.7      3.169      5.000
REMARK  Name = 
REMARK  5 active torsions:
REMARK  status: ('A' for Active; 'I' for Inactive)
REMARK    1  A    between atoms: C_1  and  C_2
REMARK    2  A    between atoms: C_2  and  C_3
REMARK    3  A    between atoms: N_5  and  C_6
REMARK    4  A    between atoms: C_6  and  C_7
REMARK    5  A    between atoms: C_7  and  C_8
REMARK                            x       y       z     vdW  Elec       q    Type
REMARK                         _______ _______ _______ _____ _____    ______ ____
ROOT
ATOM      1  C   UNL     1       5.696   5.049  18.180  0.00  0.00    +0.000 A 
ATOM      2  C   UNL     1       4.434   4.483  18.315  0.00  0.00    +0.000 A 
ATOM      3  N   UNL     1       4.059   4.024  17.073  0.00  0.00    +0.000 N 
ATOM      4  C   UNL     1       4.995   4.221  16.120  0.00  0.00    +0.000 A 
ATOM      5  C   UNL     1       4.993   3.902  14.758  0.00  0.00    +0.000 A 
ATOM      6  C   UNL     1       6.123   4.235  14.012  0.00  0.00    +0.000 A 
ATOM      7  C   UNL     1       7.208   4.854  14.613  0.00  0.00    +0.000 A 
ATOM      8  C   UNL     1       7.184   5.156  15.976  0.00  0.00    +0.000 A 
ATOM      9  C   UNL     1       6.057   4.853  16.772  0.00  0.00    +0.000 A 
ATOM     10  C   UNL     1       2.742   3.416  17.023  0.00  0.00    +0.000 C 
ATOM     11  C   UNL     1       2.325   3.551  18.464  0.00  0.00    +0.000 A 
ATOM     12  C   UNL     1       1.130   3.133  19.026  0.00  0.00    +0.000 A 
ATOM     13  C   UNL     1       0.951   3.347  20.390  0.00  0.00    +0.000 A 
ATOM     14  C   UNL     1       1.959   3.964  21.154  0.00  0.00    +0.000 A 
ATOM     15  C   UNL     1       3.168   4.389  20.573  0.00  0.00    +0.000 A 
ATOM     16  C   UNL     1       3.344   4.182  19.223  0.00  0.00    +0.000 A 
ENDROOT
BRANCH   1  17
ATOM     17  C   UNL     1       6.557   5.719  19.234  0.00  0.00    +0.000 C 
BRANCH  17  18
ATOM     18  C   UNL     1       7.956   6.115  18.727  0.00  0.00    +0.000 C 
BRANCH  18  21
ATOM     19  C   UNL     1       8.304   8.510  18.314  0.00  0.00    +0.000 C 
ATOM     20  O   UNL     1       7.793   8.430  17.210  0.00  0.00    +0.000 OA
ATOM     21  N   UNL     1       8.446   7.418  19.148  0.00  0.00    +0.000 N 
ATOM     22  H   UNL     1       8.898   7.506  20.047  0.00  0.00    +0.000 HD
BRANCH  19  24
ATOM     23  C   UNL     1       9.604  10.614  17.815  0.00  0.00    +0.000 C 
ATOM     24  C   UNL     1       8.837   9.827  18.874  0.00  0.00    +0.000 C 
ENDBRANCH  19  24
ENDBRANCH  18  21
ENDBRANCH  17  18
ENDBRANCH   1  17
TORSDOF 4
ENDMDL
MODEL 5
REMARK VINA RESULT:      -7.7      2.655      5.879
REMARK  Name = 
REMARK  5 active torsions:
REMARK  status: ('A' for Active; 'I' for Inactive)
REMARK    1  A    between atoms: C_1  and  C_2
REMARK    2  A    between atoms: C_2  and  C_3
REMARK    3  A    between atoms: N_5  and  C_6
REMARK    4  A    between atoms: C_6  and  C_7
REMARK    5  A    between atoms: C_7  and  C_8
REMARK                            x       y       z     vdW  Elec       q    Type
REMARK                         _______ _______ _______ _____ _____    ______ ____
ROOT
ATOM      1  C   UNL     1       4.039   6.047  17.398  0.00  0.00    +0.000 A 
ATOM      2  C   UNL     1       3.517   4.908  17.997  0.00  0.00    +0.000 A 
ATOM      3  N   UNL     1       4.040   3.822  17.333  0.00  0.00    +0.000 N 
ATOM      4  C   UNL     1       4.897   4.156  16.345  0.00  0.00    +0.000 A 
ATOM      5  C   UNL     1       5.624   3.356  15.457  0.00  0.00    +0.000 A 
ATOM      6  C   UNL     1       6.442   3.996  14.528  0.00  0.00    +0.000 A 
ATOM      7  C   UNL     1       6.532   5.379  14.501  0.00  0.00    +0.000 A 
ATOM      8  C   UNL     1       5.800   6.153  15.404  0.00  0.00    +0.000 A 
ATOM      9  C   UNL     1       4.944   5.552  16.354  0.00  0.00    +0.000 A 
ATOM     10  C   UNL     1       3.578   2.534  17.819  0.00  0.00    +0.000 C 
ATOM     11  C   UNL     1       2.664   2.974  18.931  0.00  0.00    +0.000 A 
ATOM     12  C   UNL     1       1.926   2.158  19.774  0.00  0.00    +0.000 A 
ATOM     13  C   UNL     1       1.148   2.775  20.748  0.00  0.00    +0.000 A 
ATOM     14  C   UNL     1       1.125   4.178  20.861  0.00  0.00    +0.000 A 
ATOM     15  C   UNL     1       1.874   4.999  19.999  0.00  0.00    +0.000 A 
ATOM     16  C   UNL     1       2.641   4.390  19.031  0.00  0.00    +0.000 A 
ENDROOT
BRANCH   1  17
ATOM     17  C   UNL     1       3.774   7.504  17.726  0.00  0.00    +0.000 C 
BRANCH  17  18
ATOM     18  C   UNL     1       2.278   7.865  17.773  0.00  0.00    +0.000 C 
BRANCH  18  21
ATOM     19  C   UNL     1       1.316   9.841  18.868  0.00  0.00    +0.000 C 
ATOM     20  O   UNL     1       0.976   9.184  19.836  0.00  0.00    +0.000 OA
ATOM     21  N   UNL     1       1.961   9.285  17.780  0.00  0.00    +0.000 N 
ATOM     22  H   UNL     1       2.207   9.847  16.978  0.00  0.00    +0.000 HD
BRANCH  19  24
ATOM     23  C   UNL     1       2.284  12.089  18.254  0.00  0.00    +0.000 C 
ATOM     24  C   UNL     1       1.056  11.343  18.768  0.00  0.00    +0.000 C 
ENDBRANCH  19  24
ENDBRANCH  18  21
ENDBRANCH  17  18
ENDBRANCH   1  17
TORSDOF 4
ENDMDL
MODEL 6
REMARK VINA RESULT:      -7.7      1.101      4.705
REMARK  Name = 
REMARK  5 active torsions:
REMARK  status: ('A' for Active; 'I' for Inactive)
REMARK    1  A    between atoms: C_1  and  C_2
REMARK    2  A    between atoms: C_2  and  C_3
REMARK    3  A    between atoms: N_5  and  C_6
REMARK    4  A    between atoms: C_6  and  C_7
REMARK    5  A    between atoms: C_7  and  C_8
REMARK                            x       y       z     vdW  Elec       q    Type
REMARK                         _______ _______ _______ _____ _____    ______ ____
ROOT
ATOM      1  C   UNL     1       3.550   6.707  17.905  0.00  0.00    +0.000 A 
ATOM      2  C   UNL     1       3.197   5.819  18.912  0.00  0.00    +0.000 A 
ATOM      3  N   UNL     1       2.302   6.468  19.733  0.00  0.00    +0.000 N 
ATOM      4  C   UNL     1       2.012   7.722  19.329  0.00  0.00    +0.000 A 
ATOM      5  C   UNL     1       1.163   8.687  19.882  0.00  0.00    +0.000 A 
ATOM      6  C   UNL     1       1.066   9.915  19.229  0.00  0.00    +0.000 A 
ATOM      7  C   UNL     1       1.782  10.157  18.068  0.00  0.00    +0.000 A 
ATOM      8  C   UNL     1       2.618   9.173  17.535  0.00  0.00    +0.000 A 
ATOM      9  C   UNL     1       2.763   7.918  18.167  0.00  0.00    +0.000 A 
ATOM     10  C   UNL     1       1.841   5.686  20.866  0.00  0.00    +0.000 C 
ATOM     11  C   UNL     1       2.590   4.400  20.633  0.00  0.00    +0.000 A 
ATOM     12  C   UNL     1       2.542   3.256  21.413  0.00  0.00    +0.000 A 
ATOM     13  C   UNL     1       3.310   2.168  21.009  0.00  0.00    +0.000 A 
ATOM     14  C   UNL     1       4.098   2.245  19.846  0.00  0.00    +0.000 A 
ATOM     15  C   UNL     1       4.145   3.411  19.061  0.00  0.00    +0.000 A 
ATOM     16  C   UNL     1       3.389   4.490  19.463  0.00  0.00    +0.000 A 
ENDROOT
BRANCH   1  17
ATOM     17  C   UNL     1       4.518   6.508  16.754  0.00  0.00    +0.000 C 
BRANCH  17  18
ATOM     18  C   UNL     1       5.997   6.523  17.181  0.00  0.00    +0.000 C 
BRANCH  18  21
ATOM     19  C   UNL     1       7.788   8.027  17.930  0.00  0.00    +0.000 C 
ATOM     20  O   UNL     1       8.263   7.163  18.646  0.00  0.00    +0.000 OA
ATOM     21  N   UNL     1       6.655   7.820  17.166  0.00  0.00    +0.000 N 
ATOM     22  H   UNL     1       6.266   8.562  16.603  0.00  0.00    +0.000 HD
BRANCH  19  24
ATOM     23  C   UNL     1       9.098   9.832  19.109  0.00  0.00    +0.000 C 
ATOM     24  C   UNL     1       8.401   9.421  17.815  0.00  0.00    +0.000 C 
ENDBRANCH  19  24
ENDBRANCH  18  21
ENDBRANCH  17  18
ENDBRANCH   1  17
TORSDOF 4
ENDMDL
MODEL 7
REMARK VINA RESULT:      -7.6      1.602      5.064
REMARK  Name = 
REMARK  5 active torsions:
REMARK  status: ('A' for Active; 'I' for Inactive)
REMARK    1  A    between atoms: C_1  and  C_2
REMARK    2  A    between atoms: C_2  and  C_3
REMARK    3  A    between atoms: N_5  and  C_6
REMARK    4  A    between atoms: C_6  and  C_7
REMARK    5  A    between atoms: C_7  and  C_8
REMARK                            x       y       z     vdW  Elec       q    Type
REMARK                         _______ _______ _______ _____ _____    ______ ____
ROOT
ATOM      1  C   UNL     1       3.081   7.201  18.076  0.00  0.00    +0.000 A 
ATOM      2  C   UNL     1       2.765   6.278  19.064  0.00  0.00    +0.000 A 
ATOM      3  N   UNL     1       1.930   6.908  19.959  0.00  0.00    +0.000 N 
ATOM      4  C   UNL     1       1.645   8.184  19.624  0.00  0.00    +0.000 A 
ATOM      5  C   UNL     1       0.849   9.141  20.262  0.00  0.00    +0.000 A 
ATOM      6  C   UNL     1       0.742  10.397  19.667  0.00  0.00    +0.000 A 
ATOM      7  C   UNL     1       1.399  10.674  18.479  0.00  0.00    +0.000 A 
ATOM      8  C   UNL     1       2.184   9.698  17.860  0.00  0.00    +0.000 A 
ATOM      9  C   UNL     1       2.336   8.415  18.431  0.00  0.00    +0.000 A 
ATOM     10  C   UNL     1       1.515   6.088  21.083  0.00  0.00    +0.000 C 
ATOM     11  C   UNL     1       2.222   4.800  20.756  0.00  0.00    +0.000 A 
ATOM     12  C   UNL     1       2.192   3.625  21.490  0.00  0.00    +0.000 A 
ATOM     13  C   UNL     1       2.914   2.541  20.999  0.00  0.00    +0.000 A 
ATOM     14  C   UNL     1       3.639   2.651  19.798  0.00  0.00    +0.000 A 
ATOM     15  C   UNL     1       3.668   3.849  19.061  0.00  0.00    +0.000 A 
ATOM     16  C   UNL     1       2.958   4.924  19.549  0.00  0.00    +0.000 A 
ENDROOT
BRANCH   1  17
ATOM     17  C   UNL     1       3.981   7.033  16.866  0.00  0.00    +0.000 C 
BRANCH  17  18
ATOM     18  C   UNL     1       5.377   6.480  17.207  0.00  0.00    +0.000 C 
BRANCH  18  21
ATOM     19  C   UNL     1       5.982   4.843  15.480  0.00  0.00    +0.000 C 
ATOM     20  O   UNL     1       5.133   4.062  15.871  0.00  0.00    +0.000 OA
ATOM     21  N   UNL     1       6.197   6.070  16.078  0.00  0.00    +0.000 N 
ATOM     22  H   UNL     1       6.926   6.687  15.751  0.00  0.00    +0.000 HD
BRANCH  19  24
ATOM     23  C   UNL     1       6.150   3.749  13.213  0.00  0.00    +0.000 C 
ATOM     24  C   UNL     1       6.891   4.534  14.292  0.00  0.00    +0.000 C 
ENDBRANCH  19  24
ENDBRANCH  18  21
ENDBRANCH  17  18
ENDBRANCH   1  17
TORSDOF 4
ENDMDL
MODEL 8
REMARK VINA RESULT:      -7.6      1.683      2.294
REMARK  Name = 
REMARK  5 active torsions:
REMARK  status: ('A' for Active; 'I' for Inactive)
REMARK    1  A    between atoms: C_1  and  C_2
REMARK    2  A    between atoms: C_2  and  C_3
REMARK    3  A    between atoms: N_5  and  C_6
REMARK    4  A    between atoms: C_6  and  C_7
REMARK    5  A    between atoms: C_7  and  C_8
REMARK                            x       y       z     vdW  Elec       q    Type
REMARK                         _______ _______ _______ _____ _____    ______ ____
ROOT
ATOM      1  C   UNL     1       3.451   5.718  18.300  0.00  0.00    +0.000 A 
ATOM      2  C   UNL     1       2.690   6.713  18.901  0.00  0.00    +0.000 A 
ATOM      3  N   UNL     1       2.180   6.188  20.066  0.00  0.00    +0.000 N 
ATOM      4  C   UNL     1       2.567   4.917  20.300  0.00  0.00    +0.000 A 
ATOM      5  C   UNL     1       2.269   4.050  21.357  0.00  0.00    +0.000 A 
ATOM      6  C   UNL     1       2.826   2.773  21.325  0.00  0.00    +0.000 A 
ATOM      7  C   UNL     1       3.653   2.389  20.281  0.00  0.00    +0.000 A 
ATOM      8  C   UNL     1       3.938   3.277  19.242  0.00  0.00    +0.000 A 
ATOM      9  C   UNL     1       3.386   4.577  19.220  0.00  0.00    +0.000 A 
ATOM     10  C   UNL     1       1.331   7.094  20.819  0.00  0.00    +0.000 C 
ATOM     11  C   UNL     1       1.386   8.315  19.938  0.00  0.00    +0.000 A 
ATOM     12  C   UNL     1       0.753   9.528  20.157  0.00  0.00    +0.000 A 
ATOM     13  C   UNL     1       0.948  10.534  19.216  0.00  0.00    +0.000 A 
ATOM     14  C   UNL     1       1.764  10.311  18.091  0.00  0.00    +0.000 A 
ATOM     15  C   UNL     1       2.400   9.075  17.875  0.00  0.00    +0.000 A 
ATOM     16  C   UNL     1       2.203   8.077  18.803  0.00  0.00    +0.000 A 
ENDROOT
BRANCH   1  17
ATOM     17  C   UNL     1       4.213   5.762  16.990  0.00  0.00    +0.000 C 
BRANCH  17  18
ATOM     18  C   UNL     1       5.272   4.652  16.854  0.00  0.00    +0.000 C 
BRANCH  18  21
ATOM     19  C   UNL     1       6.650   4.694  14.822  0.00  0.00    +0.000 C 
ATOM     20  O   UNL     1       7.398   5.527  15.303  0.00  0.00    +0.000 OA
ATOM     21  N   UNL     1       5.554   4.197  15.502  0.00  0.00    +0.000 N 
ATOM     22  H   UNL     1       4.934   3.529  15.069  0.00  0.00    +0.000 HD
BRANCH  19  24
ATOM     23  C   UNL     1       5.556   3.560  12.851  0.00  0.00    +0.000 C 
ATOM     24  C   UNL     1       6.854   4.126  13.419  0.00  0.00    +0.000 C 
ENDBRANCH  19  24
ENDBRANCH  18  21
ENDBRANCH  17  18
ENDBRANCH   1  17
TORSDOF 4
ENDMDL
MODEL 9
REMARK VINA RESULT:      -7.4      2.529      4.798
REMARK  Name = 
REMARK  5 active torsions:
REMARK  status: ('A' for Active; 'I' for Inactive)
REMARK    1  A    between atoms: C_1  and  C_2
REMARK    2  A    between atoms: C_2  and  C_3
REMARK    3  A    between atoms: N_5  and  C_6
REMARK    4  A    between atoms: C_6  and  C_7
REMARK    5  A    between atoms: C_7  and  C_8
REMARK                            x       y       z     vdW  Elec       q    Type
REMARK                         _______ _______ _______ _____ _____    ______ ____
ROOT
ATOM      1  C   UNL     1       2.652   6.363  19.675  0.00  0.00    +0.000 A 
ATOM      2  C   UNL     1       2.122   7.621  19.419  0.00  0.00    +0.000 A 
ATOM      3  N   UNL     1       2.700   8.078  18.256  0.00  0.00    +0.000 N 
ATOM      4  C   UNL     1       3.564   7.200  17.703  0.00  0.00    +0.000 A 
ATOM      5  C   UNL     1       4.338   7.290  16.541  0.00  0.00    +0.000 A 
ATOM      6  C   UNL     1       5.151   6.204  16.219  0.00  0.00    +0.000 A 
ATOM      7  C   UNL     1       5.175   5.076  17.024  0.00  0.00    +0.000 A 
ATOM      8  C   UNL     1       4.386   5.012  18.175  0.00  0.00    +0.000 A 
ATOM      9  C   UNL     1       3.558   6.092  18.554  0.00  0.00    +0.000 A 
ATOM     10  C   UNL     1       2.274   9.404  17.847  0.00  0.00    +0.000 C 
ATOM     11  C   UNL     1       1.301   9.730  18.949  0.00  0.00    +0.000 A 
ATOM     12  C   UNL     1       0.561  10.893  19.089  0.00  0.00    +0.000 A 
ATOM     13  C   UNL     1      -0.293  10.985  20.183  0.00  0.00    +0.000 A 
ATOM     14  C   UNL     1      -0.392   9.924  21.102  0.00  0.00    +0.000 A 
ATOM     15  C   UNL     1       0.365   8.748  20.955  0.00  0.00    +0.000 A 
ATOM     16  C   UNL     1       1.215   8.658  19.875  0.00  0.00    +0.000 A 
ENDROOT
BRANCH   1  17
ATOM     17  C   UNL     1       2.373   5.430  20.838  0.00  0.00    +0.000 C 
BRANCH  17  18
ATOM     18  C   UNL     1       1.377   4.306  20.502  0.00  0.00    +0.000 C 
BRANCH  18  21
ATOM     19  C   UNL     1       1.667   3.019  18.431  0.00  0.00    +0.000 C 
ATOM     20  O   UNL     1       0.984   3.808  17.803  0.00  0.00    +0.000 OA
ATOM     21  N   UNL     1       1.918   3.164  19.782  0.00  0.00    +0.000 N 
ATOM     22  H   UNL     1       2.464   2.479  20.285  0.00  0.00    +0.000 HD
BRANCH  19  24
ATOM     23  C   UNL     1       3.602   1.400  18.484  0.00  0.00    +0.000 C 
ATOM     24  C   UNL     1       2.306   1.793  17.781  0.00  0.00    +0.000 C 
ENDBRANCH  19  24
ENDBRANCH  18  21
ENDBRANCH  17  18
ENDBRANCH   1  17
TORSDOF 4
ENDMDL
