MODEL 1
REMARK VINA RESULT:      -7.1      0.000      0.000
REMARK  Name = 
REMARK  2 active torsions:
REMARK  status: ('A' for Active; 'I' for Inactive)
REMARK    1  A    between atoms: C_1  and  C_2
REMARK    2  A    between atoms: C_2  and  N_3
REMARK                            x       y       z     vdW  Elec       q    Type
REMARK                         _______ _______ _______ _____ _____    ______ ____
ROOT
ATOM      1  N   UNL     1       4.722   4.577  16.835  0.00  0.00    +0.000 N 
ATOM      2  C   UNL     1       4.133   3.669  17.712  0.00  0.00    +0.000 C 
ATOM      3  O   UNL     1       4.261   2.451  17.622  0.00  0.00    +0.000 OA
ATOM      4  C   UNL     1       3.304   4.232  18.801  0.00  0.00    +0.000 A 
ATOM      5  C   UNL     1       2.833   3.373  19.800  0.00  0.00    +0.000 A 
ATOM      6  C   UNL     1       2.046   3.873  20.829  0.00  0.00    +0.000 A 
ATOM      7  C   UNL     1       1.718   5.229  20.851  0.00  0.00    +0.000 A 
ATOM      8  C   UNL     1       2.177   6.122  19.853  0.00  0.00    +0.000 A 
ATOM      9  C   UNL     1       1.862   7.504  19.828  0.00  0.00    +0.000 A 
ATOM     10 CL   UNL     1       0.859   8.240  21.034  0.00  0.00    +0.000 Cl
ATOM     11  C   UNL     1       2.350   8.339  18.821  0.00  0.00    +0.000 A 
ATOM     12  C   UNL     1       3.169   7.818  17.823  0.00  0.00    +0.000 A 
ATOM     13  C   UNL     1       3.498   6.456  17.827  0.00  0.00    +0.000 A 
ATOM     14  C   UNL     1       3.001   5.600  18.819  0.00  0.00    +0.000 A 
ATOM     15  C   UNL     1       4.407   5.934  16.779  0.00  0.00    +0.000 C 
ATOM     16  O   UNL     1       4.835   6.700  15.920  0.00  0.00    +0.000 OA
ENDROOT
BRANCH   1  18
ATOM     17  C   UNL     1       7.088   4.343  16.149  0.00  0.00    +0.000 C 
ATOM     18  C   UNL     1       5.631   4.046  15.826  0.00  0.00    +0.000 C 
ENDBRANCH   1  18
TORSDOF 1
ENDMDL
MODEL 2
REMARK VINA RESULT:      -6.8      1.625      3.597
REMARK  Name = 
REMARK  2 active torsions:
REMARK  status: ('A' for Active; 'I' for Inactive)
REMARK    1  A    between atoms: C_1  and  C_2
REMARK    2  A    between atoms: C_2  and  N_3
REMARK                            x       y       z     vdW  Elec       q    Type
REMARK                         _______ _______ _______ _____ _____    ______ ____
ROOT
ATOM      1  N   UNL     1       5.718   4.919  15.866  0.00  0.00    +0.000 N 
ATOM      2  C   UNL     1       5.338   6.167  16.355  0.00  0.00    +0.000 C 
ATOM      3  O   UNL     1       5.911   7.216  16.070  0.00  0.00    +0.000 OA
ATOM      4  C   UNL     1       4.179   6.202  17.274  0.00  0.00    +0.000 A 
ATOM      5  C   UNL     1       3.659   7.444  17.656  0.00  0.00    +0.000 A 
ATOM      6  C   UNL     1       2.577   7.505  18.524  0.00  0.00    +0.000 A 
ATOM      7  C   UNL     1       2.025   6.325  19.023  0.00  0.00    +0.000 A 
ATOM      8  C   UNL     1       2.531   5.053  18.659  0.00  0.00    +0.000 A 
ATOM      9  C   UNL     1       2.010   3.829  19.148  0.00  0.00    +0.000 A 
ATOM     10 CL   UNL     1       0.687   3.773  20.265  0.00  0.00    +0.000 Cl
ATOM     11  C   UNL     1       2.547   2.603  18.747  0.00  0.00    +0.000 A 
ATOM     12  C   UNL     1       3.606   2.570  17.844  0.00  0.00    +0.000 A 
ATOM     13  C   UNL     1       4.136   3.767  17.344  0.00  0.00    +0.000 A 
ATOM     14  C   UNL     1       3.624   5.006  17.751  0.00  0.00    +0.000 A 
ATOM     15  C   UNL     1       5.235   3.705  16.351  0.00  0.00    +0.000 C 
ATOM     16  O   UNL     1       5.670   2.610  16.004  0.00  0.00    +0.000 OA
ENDROOT
BRANCH   1  18
ATOM     17  C   UNL     1       6.316   4.306  13.544  0.00  0.00    +0.000 C 
ATOM     18  C   UNL     1       6.785   4.882  14.872  0.00  0.00    +0.000 C 
ENDBRANCH   1  18
TORSDOF 1
ENDMDL
MODEL 3
REMARK VINA RESULT:      -6.7      2.758      4.501
REMARK  Name = 
REMARK  2 active torsions:
REMARK  status: ('A' for Active; 'I' for Inactive)
REMARK    1  A    between atoms: C_1  and  C_2
REMARK    2  A    between atoms: C_2  and  N_3
REMARK                            x       y       z     vdW  Elec       q    Type
REMARK                         _______ _______ _______ _____ _____    ______ ____
ROOT
ATOM      1  N   UNL     1       2.562   7.626  18.698  0.00  0.00    +0.000 N 
ATOM      2  C   UNL     1       2.011   7.026  19.827  0.00  0.00    +0.000 C 
ATOM      3  O   UNL     1       1.475   7.650  20.740  0.00  0.00    +0.000 OA
ATOM      4  C   UNL     1       2.096   5.551  19.911  0.00  0.00    +0.000 A 
ATOM      5  C   UNL     1       1.412   4.894  20.940  0.00  0.00    +0.000 A 
ATOM      6  C   UNL     1       1.482   3.512  21.046  0.00  0.00    +0.000 A 
ATOM      7  C   UNL     1       2.249   2.787  20.133  0.00  0.00    +0.000 A 
ATOM      8  C   UNL     1       2.956   3.423  19.083  0.00  0.00    +0.000 A 
ATOM      9  C   UNL     1       3.755   2.731  18.139  0.00  0.00    +0.000 A 
ATOM     10 CL   UNL     1       3.953   1.010  18.189  0.00  0.00    +0.000 Cl
ATOM     11  C   UNL     1       4.424   3.412  17.121  0.00  0.00    +0.000 A 
ATOM     12  C   UNL     1       4.304   4.795  17.014  0.00  0.00    +0.000 A 
ATOM     13  C   UNL     1       3.517   5.502  17.933  0.00  0.00    +0.000 A 
ATOM     14  C   UNL     1       2.855   4.837  18.973  0.00  0.00    +0.000 A 
ATOM     15  C   UNL     1       3.370   6.968  17.772  0.00  0.00    +0.000 C 
ATOM     16  O   UNL     1       3.955   7.533  16.853  0.00  0.00    +0.000 OA
ENDROOT
BRANCH   1  18
ATOM     17  C   UNL     1       1.082   9.418  17.847  0.00  0.00    +0.000 C 
ATOM     18  C   UNL     1       2.386   9.067  18.547  0.00  0.00    +0.000 C 
ENDBRANCH   1  18
TORSDOF 1
ENDMDL
MODEL 4
REMARK VINA RESULT:      -6.7      1.690      3.486
REMARK  Name = 
REMARK  2 active torsions:
REMARK  status: ('A' for Active; 'I' for Inactive)
REMARK    1  A    between atoms: C_1  and  C_2
REMARK    2  A    between atoms: C_2  and  N_3
REMARK                            x       y       z     vdW  Elec       q    Type
REMARK                         _______ _______ _______ _____ _____    ______ ____
ROOT
ATOM      1  N   UNL     1       4.791   5.168  16.423  0.00  0.00    +0.000 N 
ATOM      2  C   UNL     1       4.351   6.268  17.155  0.00  0.00    +0.000 C 
ATOM      3  O   UNL     1       4.663   7.429  16.900  0.00  0.00    +0.000 OA
ATOM      4  C   UNL     1       3.462   5.994  18.306  0.00  0.00    +0.000 A 
ATOM      5  C   UNL     1       2.862   7.073  18.965  0.00  0.00    +0.000 A 
ATOM      6  C   UNL     1       2.030   6.844  20.053  0.00  0.00    +0.000 A 
ATOM      7  C   UNL     1       1.811   5.539  20.492  0.00  0.00    +0.000 A 
ATOM      8  C   UNL     1       2.406   4.426  19.848  0.00  0.00    +0.000 A 
ATOM      9  C   UNL     1       2.220   3.083  20.264  0.00  0.00    +0.000 A 
ATOM     10 CL   UNL     1       1.237   2.671  21.629  0.00  0.00    +0.000 Cl
ATOM     11  C   UNL     1       2.828   2.026  19.584  0.00  0.00    +0.000 A 
ATOM     12  C   UNL     1       3.626   2.281  18.472  0.00  0.00    +0.000 A 
ATOM     13  C   UNL     1       3.822   3.600  18.040  0.00  0.00    +0.000 A 
ATOM     14  C   UNL     1       3.236   4.675  18.721  0.00  0.00    +0.000 A 
ATOM     15  C   UNL     1       4.640   3.843  16.827  0.00  0.00    +0.000 C 
ATOM     16  O   UNL     1       5.143   2.888  16.242  0.00  0.00    +0.000 OA
ENDROOT
BRANCH   1  18
ATOM     17  C   UNL     1       7.065   5.225  15.448  0.00  0.00    +0.000 C 
ATOM     18  C   UNL     1       5.575   5.430  15.221  0.00  0.00    +0.000 C 
ENDBRANCH   1  18
TORSDOF 1
ENDMDL
MODEL 5
REMARK VINA RESULT:      -6.6      3.045      5.494
REMARK  Name = 
REMARK  2 active torsions:
REMARK  status: ('A' for Active; 'I' for Inactive)
REMARK    1  A    between atoms: C_1  and  C_2
REMARK    2  A    between atoms: C_2  and  N_3
REMARK                            x       y       z     vdW  Elec       q    Type
REMARK                         _______ _______ _______ _____ _____    ______ ____
ROOT
ATOM      1  N   UNL     1       1.644   8.714  19.385  0.00  0.00    +0.000 N 
ATOM      2  C   UNL     1       2.354   8.543  18.199  0.00  0.00    +0.000 C 
ATOM      3  O   UNL     1       2.393   9.378  17.298  0.00  0.00    +0.000 OA
ATOM      4  C   UNL     1       3.089   7.269  18.037  0.00  0.00    +0.000 A 
ATOM      5  C   UNL     1       3.948   7.122  16.942  0.00  0.00    +0.000 A 
ATOM      6  C   UNL     1       4.644   5.934  16.761  0.00  0.00    +0.000 A 
ATOM      7  C   UNL     1       4.469   4.888  17.666  0.00  0.00    +0.000 A 
ATOM      8  C   UNL     1       3.604   5.004  18.782  0.00  0.00    +0.000 A 
ATOM      9  C   UNL     1       3.387   3.965  19.722  0.00  0.00    +0.000 A 
ATOM     10 CL   UNL     1       4.166   2.423  19.584  0.00  0.00    +0.000 Cl
ATOM     11  C   UNL     1       2.526   4.140  20.807  0.00  0.00    +0.000 A 
ATOM     12  C   UNL     1       1.872   5.356  20.986  0.00  0.00    +0.000 A 
ATOM     13  C   UNL     1       2.073   6.400  20.073  0.00  0.00    +0.000 A 
ATOM     14  C   UNL     1       2.917   6.234  18.966  0.00  0.00    +0.000 A 
ATOM     15  C   UNL     1       1.399   7.699  20.309  0.00  0.00    +0.000 C 
ATOM     16  O   UNL     1       0.665   7.826  21.285  0.00  0.00    +0.000 OA
ENDROOT
BRANCH   1  18
ATOM     17  C   UNL     1      -0.356  10.102  18.941  0.00  0.00    +0.000 C 
ATOM     18  C   UNL     1       1.008  10.008  19.608  0.00  0.00    +0.000 C 
ENDBRANCH   1  18
TORSDOF 1
ENDMDL
MODEL 6
REMARK VINA RESULT:      -6.5      2.894      4.819
REMARK  Name = 
REMARK  2 active torsions:
REMARK  status: ('A' for Active; 'I' for Inactive)
REMARK    1  A    between atoms: C_1  and  C_2
REMARK    2  A    between atoms: C_2  and  N_3
REMARK                            x       y       z     vdW  Elec       q    Type
REMARK                         _______ _______ _______ _____ _____    ______ ____
ROOT
ATOM      1  N   UNL     1       2.994   3.336  19.653  0.00  0.00    +0.000 N 
ATOM      2  C   UNL     1       2.265   4.340  19.021  0.00  0.00    +0.000 C 
ATOM      3  O   UNL     1       1.044   4.320  18.891  0.00  0.00    +0.000 OA
ATOM      4  C   UNL     1       3.033   5.483  18.477  0.00  0.00    +0.000 A 
ATOM      5  C   UNL     1       2.333   6.590  17.984  0.00  0.00    +0.000 A 
ATOM      6  C   UNL     1       3.028   7.672  17.460  0.00  0.00    +0.000 A 
ATOM      7  C   UNL     1       4.422   7.640  17.414  0.00  0.00    +0.000 A 
ATOM      8  C   UNL     1       5.158   6.532  17.901  0.00  0.00    +0.000 A 
ATOM      9  C   UNL     1       6.573   6.450  17.866  0.00  0.00    +0.000 A 
ATOM     10 CL   UNL     1       7.551   7.717  17.202  0.00  0.00    +0.000 Cl
ATOM     11  C   UNL     1       7.246   5.334  18.368  0.00  0.00    +0.000 A 
ATOM     12  C   UNL     1       6.525   4.281  18.924  0.00  0.00    +0.000 A 
ATOM     13  C   UNL     1       5.126   4.340  18.973  0.00  0.00    +0.000 A 
ATOM     14  C   UNL     1       4.434   5.442  18.456  0.00  0.00    +0.000 A 
ATOM     15  C   UNL     1       4.383   3.225  19.609  0.00  0.00    +0.000 C 
ATOM     16  O   UNL     1       5.007   2.268  20.059  0.00  0.00    +0.000 OA
ENDROOT
BRANCH   1  18
ATOM     17  C   UNL     1       1.799   2.627  21.701  0.00  0.00    +0.000 C 
ATOM     18  C   UNL     1       2.244   2.261  20.293  0.00  0.00    +0.000 C 
ENDBRANCH   1  18
TORSDOF 1
ENDMDL
MODEL 7
REMARK VINA RESULT:      -6.5      2.831      5.098
REMARK  Name = 
REMARK  2 active torsions:
REMARK  status: ('A' for Active; 'I' for Inactive)
REMARK    1  A    between atoms: C_1  and  C_2
REMARK    2  A    between atoms: C_2  and  N_3
REMARK                            x       y       z     vdW  Elec       q    Type
REMARK                         _______ _______ _______ _____ _____    ______ ____
ROOT
ATOM      1  N   UNL     1       2.006   3.417  19.761  0.00  0.00    +0.000 N 
ATOM      2  C   UNL     1       1.739   4.784  19.727  0.00  0.00    +0.000 C 
ATOM      3  O   UNL     1       0.852   5.324  20.383  0.00  0.00    +0.000 OA
ATOM      4  C   UNL     1       2.583   5.608  18.833  0.00  0.00    +0.000 A 
ATOM      5  C   UNL     1       2.463   7.002  18.891  0.00  0.00    +0.000 A 
ATOM      6  C   UNL     1       3.237   7.798  18.057  0.00  0.00    +0.000 A 
ATOM      7  C   UNL     1       4.118   7.202  17.155  0.00  0.00    +0.000 A 
ATOM      8  C   UNL     1       4.259   5.796  17.070  0.00  0.00    +0.000 A 
ATOM      9  C   UNL     1       5.133   5.145  16.163  0.00  0.00    +0.000 A 
ATOM     10 CL   UNL     1       6.121   6.026  15.046  0.00  0.00    +0.000 Cl
ATOM     11  C   UNL     1       5.234   3.753  16.130  0.00  0.00    +0.000 A 
ATOM     12  C   UNL     1       4.476   2.979  17.005  0.00  0.00    +0.000 A 
ATOM     13  C   UNL     1       3.607   3.599  17.913  0.00  0.00    +0.000 A 
ATOM     14  C   UNL     1       3.477   4.994  17.946  0.00  0.00    +0.000 A 
ATOM     15  C   UNL     1       2.843   2.757  18.863  0.00  0.00    +0.000 C 
ATOM     16  O   UNL     1       2.971   1.536  18.821  0.00  0.00    +0.000 OA
ENDROOT
BRANCH   1  18
ATOM     17  C   UNL     1       1.939   2.555  22.080  0.00  0.00    +0.000 C 
ATOM     18  C   UNL     1       1.260   2.609  20.720  0.00  0.00    +0.000 C 
ENDBRANCH   1  18
TORSDOF 1
ENDMDL
MODEL 8
REMARK VINA RESULT:      -6.4      3.262      5.025
REMARK  Name = 
REMARK  2 active torsions:
REMARK  status: ('A' for Active; 'I' for Inactive)
REMARK    1  A    between atoms: C_1  and  C_2
REMARK    2  A    between atoms: C_2  and  N_3
REMARK                            x       y       z     vdW  Elec       q    Type
REMARK                         _______ _______ _______ _____ _____    ______ ____
ROOT
ATOM      1  N   UNL     1       1.445   8.971  19.386  0.00  0.00    +0.000 N 
ATOM      2  C   UNL     1       1.358   7.975  20.355  0.00  0.00    +0.000 C 
ATOM      3  O   UNL     1       0.785   8.117  21.432  0.00  0.00    +0.000 OA
ATOM      4  C   UNL     1       2.011   6.683  20.047  0.00  0.00    +0.000 A 
ATOM      5  C   UNL     1       1.808   5.603  20.914  0.00  0.00    +0.000 A 
ATOM      6  C   UNL     1       2.415   4.382  20.653  0.00  0.00    +0.000 A 
ATOM      7  C   UNL     1       3.237   4.245  19.534  0.00  0.00    +0.000 A 
ATOM      8  C   UNL     1       3.465   5.319  18.641  0.00  0.00    +0.000 A 
ATOM      9  C   UNL     1       4.300   5.231  17.498  0.00  0.00    +0.000 A 
ATOM     10 CL   UNL     1       5.142   3.774  17.086  0.00  0.00    +0.000 Cl
ATOM     11  C   UNL     1       4.481   6.324  16.649  0.00  0.00    +0.000 A 
ATOM     12  C   UNL     1       3.829   7.525  16.913  0.00  0.00    +0.000 A 
ATOM     13  C   UNL     1       2.996   7.637  18.034  0.00  0.00    +0.000 A 
ATOM     14  C   UNL     1       2.818   6.557  18.908  0.00  0.00    +0.000 A 
ATOM     15  C   UNL     1       2.278   8.912  18.270  0.00  0.00    +0.000 C 
ATOM     16  O   UNL     1       2.444   9.847  17.491  0.00  0.00    +0.000 OA
ENDROOT
BRANCH   1  18
ATOM     17  C   UNL     1      -0.654  10.211  18.957  0.00  0.00    +0.000 C 
ATOM     18  C   UNL     1       0.713  10.210  19.626  0.00  0.00    +0.000 C 
ENDBRANCH   1  18
TORSDOF 1
ENDMDL
MODEL 9
REMARK VINA RESULT:      -6.4      1.957      2.961
REMARK  Name = 
REMARK  2 active torsions:
REMARK  status: ('A' for Active; 'I' for Inactive)
REMARK    1  A    between atoms: C_1  and  C_2
REMARK    2  A    between atoms: C_2  and  N_3
REMARK                            x       y       z     vdW  Elec       q    Type
REMARK                         _______ _______ _______ _____ _____    ______ ____
ROOT
ATOM      1  N   UNL     1       4.513   5.812  16.940  0.00  0.00    +0.000 N 
ATOM      2  C   UNL     1       4.568   4.449  16.661  0.00  0.00    +0.000 C 
ATOM      3  O   UNL     1       5.090   3.977  15.654  0.00  0.00    +0.000 OA
ATOM      4  C   UNL     1       3.946   3.538  17.648  0.00  0.00    +0.000 A 
ATOM      5  C   UNL     1       4.123   2.158  17.495  0.00  0.00    +0.000 A 
ATOM      6  C   UNL     1       3.544   1.281  18.402  0.00  0.00    +0.000 A 
ATOM      7  C   UNL     1       2.775   1.783  19.453  0.00  0.00    +0.000 A 
ATOM      8  C   UNL     1       2.575   3.173  19.632  0.00  0.00    +0.000 A 
ATOM      9  C   UNL     1       1.795   3.728  20.678  0.00  0.00    +0.000 A 
ATOM     10 CL   UNL     1       0.990   2.738  21.849  0.00  0.00    +0.000 Cl
ATOM     11  C   UNL     1       1.638   5.110  20.808  0.00  0.00    +0.000 A 
ATOM     12  C   UNL     1       2.263   5.968  19.907  0.00  0.00    +0.000 A 
ATOM     13  C   UNL     1       3.043   5.444  18.867  0.00  0.00    +0.000 A 
ATOM     14  C   UNL     1       3.194   4.060  18.709  0.00  0.00    +0.000 A 
ATOM     15  C   UNL     1       3.733   6.378  17.947  0.00  0.00    +0.000 C 
ATOM     16  O   UNL     1       3.591   7.588  18.102  0.00  0.00    +0.000 OA
ENDROOT
BRANCH   1  18
ATOM     17  C   UNL     1       6.635   7.010  16.505  0.00  0.00    +0.000 C 
ATOM     18  C   UNL     1       5.219   6.714  16.035  0.00  0.00    +0.000 C 
ENDBRANCH   1  18
TORSDOF 1
ENDMDL
