MODEL 1
REMARK VINA RESULT:      -7.4      0.000      0.000
REMARK  Name = 
REMARK  4 active torsions:
REMARK  status: ('A' for Active; 'I' for Inactive)
REMARK    1  A    between atoms: C_3  and  N_4
REMARK    2  A    between atoms: N_4  and  S_5
REMARK    3  A    between atoms: S_5  and  C_8
REMARK    4  A    between atoms: C_14  and  N_15
REMARK                            x       y       z     vdW  Elec       q    Type
REMARK                         _______ _______ _______ _____ _____    ______ ____
ROOT
ATOM      1  O   UNL     1       0.335   9.589  17.730  0.00  0.00    +0.000 OA
ATOM      2  C   UNL     1      -0.509  10.298  18.269  0.00  0.00    +0.000 C 
ATOM      3  C   UNL     1      -0.234  10.918  19.584  0.00  0.00    +0.000 C 
ATOM      4  C   UNL     1      -1.060  11.758  20.232  0.00  0.00    +0.000 C 
ATOM      5  C   UNL     1      -2.363  12.117  19.536  0.00  0.00    +0.000 C 
ATOM      6  O   UNL     1      -3.149  12.940  19.999  0.00  0.00    +0.000 OA
ATOM      7  C   UNL     1      -2.720  11.414  18.282  0.00  0.00    +0.000 A 
ATOM      8  C   UNL     1      -3.986  11.613  17.708  0.00  0.00    +0.000 A 
ATOM      9  C   UNL     1      -4.355  10.923  16.549  0.00  0.00    +0.000 A 
ATOM     10  C   UNL     1      -3.458  10.040  15.949  0.00  0.00    +0.000 A 
ATOM     11  C   UNL     1      -2.194   9.848  16.507  0.00  0.00    +0.000 A 
ATOM     12  C   UNL     1      -1.830  10.534  17.675  0.00  0.00    +0.000 A 
ENDROOT
BRANCH   4  13
ATOM     13  N   UNL     1      -0.821  12.305  21.504  0.00  0.00    +0.000 N 
ATOM     14  C   UNL     1      -1.377  11.716  22.726  0.00  0.00    +0.000 C 
ATOM     15  C   UNL     1      -2.162  12.794  23.475  0.00  0.00    +0.000 C 
ATOM     16  C   UNL     1      -1.305  14.029  23.753  0.00  0.00    +0.000 C 
ATOM     17  C   UNL     1      -0.604  14.540  22.497  0.00  0.00    +0.000 C 
ATOM     18  C   UNL     1       0.098  13.424  21.732  0.00  0.00    +0.000 C 
ENDBRANCH   4  13
BRANCH   3  19
ATOM     19  N   UNL     1       1.009  10.559  20.227  0.00  0.00    +0.000 N 
ATOM     20  H   UNL     1       1.311  11.307  20.860  0.00  0.00    +0.000 HD
BRANCH  19  21
ATOM     21  S   UNL     1       0.874   9.135  21.172  0.00  0.00    +0.000 S 
ATOM     22  O   UNL     1       1.663   9.248  22.378  0.00  0.00    +0.000 OA
ATOM     23  O   UNL     1      -0.506   8.714  21.195  0.00  0.00    +0.000 OA
BRANCH  21  24
ATOM     24  C   UNL     1       1.681   7.841  20.265  0.00  0.00    +0.000 A 
ATOM     25  C   UNL     1       2.415   7.853  19.095  0.00  0.00    +0.000 A 
ATOM     26  C   UNL     1       2.888   6.553  18.749  0.00  0.00    +0.000 A 
ATOM     27  C   UNL     1       2.496   5.622  19.677  0.00  0.00    +0.000 A 
ATOM     28 BR   UNL     1       2.933   3.805  19.568  0.00  0.00    +0.000 Br
ATOM     29  S   UNL     1       1.576   6.272  20.940  0.00  0.00    +0.000 S 
ENDBRANCH  21  24
ENDBRANCH  19  21
ENDBRANCH   3  19
TORSDOF 4
ENDMDL
MODEL 2
REMARK VINA RESULT:      -7.3      4.578      7.345
REMARK  Name = 
REMARK  4 active torsions:
REMARK  status: ('A' for Active; 'I' for Inactive)
REMARK    1  A    between atoms: C_3  and  N_4
REMARK    2  A    between atoms: N_4  and  S_5
REMARK    3  A    between atoms: S_5  and  C_8
REMARK    4  A    between atoms: C_14  and  N_15
REMARK                            x       y       z     vdW  Elec       q    Type
REMARK                         _______ _______ _______ _____ _____    ______ ____
ROOT
ATOM      1  O   UNL     1       3.419   8.165  16.653  0.00  0.00    +0.000 OA
ATOM      2  C   UNL     1       2.852   7.867  17.699  0.00  0.00    +0.000 C 
ATOM      3  C   UNL     1       2.863   6.469  18.183  0.00  0.00    +0.000 C 
ATOM      4  C   UNL     1       2.329   6.046  19.343  0.00  0.00    +0.000 C 
ATOM      5  C   UNL     1       1.694   7.101  20.234  0.00  0.00    +0.000 C 
ATOM      6  O   UNL     1       1.254   6.838  21.350  0.00  0.00    +0.000 OA
ATOM      7  C   UNL     1       1.556   8.483  19.718  0.00  0.00    +0.000 A 
ATOM      8  C   UNL     1       0.833   9.434  20.457  0.00  0.00    +0.000 A 
ATOM      9  C   UNL     1       0.657  10.730  19.964  0.00  0.00    +0.000 A 
ATOM     10  C   UNL     1       1.210  11.089  18.735  0.00  0.00    +0.000 A 
ATOM     11  C   UNL     1       1.941  10.153  18.003  0.00  0.00    +0.000 A 
ATOM     12  C   UNL     1       2.109   8.851  18.496  0.00  0.00    +0.000 A 
ENDROOT
BRANCH   4  13
ATOM     13  N   UNL     1       2.294   4.710  19.776  0.00  0.00    +0.000 N 
ATOM     14  C   UNL     1       1.510   3.683  19.085  0.00  0.00    +0.000 C 
ATOM     15  C   UNL     1       0.571   3.022  20.094  0.00  0.00    +0.000 C 
ATOM     16  C   UNL     1       1.333   2.470  21.299  0.00  0.00    +0.000 C 
ATOM     17  C   UNL     1       2.267   3.507  21.916  0.00  0.00    +0.000 C 
ATOM     18  C   UNL     1       3.129   4.204  20.870  0.00  0.00    +0.000 C 
ENDBRANCH   4  13
BRANCH   3  19
ATOM     19  N   UNL     1       3.470   5.485  17.317  0.00  0.00    +0.000 N 
ATOM     20  H   UNL     1       3.410   5.785  16.339  0.00  0.00    +0.000 HD
BRANCH  19  21
ATOM     21  S   UNL     1       5.132   5.242  17.660  0.00  0.00    +0.000 S 
ATOM     22  O   UNL     1       5.743   6.471  18.116  0.00  0.00    +0.000 OA
ATOM     23  O   UNL     1       5.289   3.997  18.373  0.00  0.00    +0.000 OA
BRANCH  21  24
ATOM     24  C   UNL     1       5.934   4.929  16.109  0.00  0.00    +0.000 A 
ATOM     25  C   UNL     1       7.190   5.251  15.638  0.00  0.00    +0.000 A 
ATOM     26  C   UNL     1       7.403   4.772  14.312  0.00  0.00    +0.000 A 
ATOM     27  C   UNL     1       6.300   4.104  13.846  0.00  0.00    +0.000 A 
ATOM     28 BR   UNL     1       6.203   3.324  12.147  0.00  0.00    +0.000 Br
ATOM     29  S   UNL     1       5.025   4.046  14.958  0.00  0.00    +0.000 S 
ENDBRANCH  21  24
ENDBRANCH  19  21
ENDBRANCH   3  19
TORSDOF 4
ENDMDL
MODEL 3
REMARK VINA RESULT:      -7.3      4.535      7.296
REMARK  Name = 
REMARK  4 active torsions:
REMARK  status: ('A' for Active; 'I' for Inactive)
REMARK    1  A    between atoms: C_3  and  N_4
REMARK    2  A    between atoms: N_4  and  S_5
REMARK    3  A    between atoms: S_5  and  C_8
REMARK    4  A    between atoms: C_14  and  N_15
REMARK                            x       y       z     vdW  Elec       q    Type
REMARK                         _______ _______ _______ _____ _____    ______ ____
ROOT
ATOM      1  O   UNL     1       3.636   7.487  17.016  0.00  0.00    +0.000 OA
ATOM      2  C   UNL     1       2.926   7.438  18.015  0.00  0.00    +0.000 C 
ATOM      3  C   UNL     1       2.691   6.148  18.701  0.00  0.00    +0.000 C 
ATOM      4  C   UNL     1       1.983   5.991  19.834  0.00  0.00    +0.000 C 
ATOM      5  C   UNL     1       1.411   7.248  20.469  0.00  0.00    +0.000 C 
ATOM      6  O   UNL     1       0.823   7.229  21.548  0.00  0.00    +0.000 OA
ATOM      7  C   UNL     1       1.523   8.532  19.738  0.00  0.00    +0.000 A 
ATOM      8  C   UNL     1       0.866   9.673  20.228  0.00  0.00    +0.000 A 
ATOM      9  C   UNL     1       0.925  10.880  19.527  0.00  0.00    +0.000 A 
ATOM     10  C   UNL     1       1.650  10.961  18.338  0.00  0.00    +0.000 A 
ATOM     11  C   UNL     1       2.316   9.835  17.853  0.00  0.00    +0.000 A 
ATOM     12  C   UNL     1       2.248   8.622  18.554  0.00  0.00    +0.000 A 
ENDROOT
BRANCH   4  13
ATOM     13  N   UNL     1       1.716   4.760  20.456  0.00  0.00    +0.000 N 
ATOM     14  C   UNL     1       2.473   4.292  21.621  0.00  0.00    +0.000 C 
ATOM     15  C   UNL     1       3.046   2.909  21.309  0.00  0.00    +0.000 C 
ATOM     16  C   UNL     1       1.956   1.928  20.880  0.00  0.00    +0.000 C 
ATOM     17  C   UNL     1       1.073   2.492  19.770  0.00  0.00    +0.000 C 
ATOM     18  C   UNL     1       0.587   3.904  20.080  0.00  0.00    +0.000 C 
ENDBRANCH   4  13
BRANCH   3  19
ATOM     19  N   UNL     1       3.242   4.968  18.078  0.00  0.00    +0.000 N 
ATOM     20  H   UNL     1       3.202   5.053  17.056  0.00  0.00    +0.000 HD
BRANCH  19  21
ATOM     21  S   UNL     1       4.886   4.713  18.489  0.00  0.00    +0.000 S 
ATOM     22  O   UNL     1       5.420   5.859  19.191  0.00  0.00    +0.000 OA
ATOM     23  O   UNL     1       5.045   3.368  18.987  0.00  0.00    +0.000 OA
BRANCH  21  24
ATOM     24  C   UNL     1       5.798   4.696  16.967  0.00  0.00    +0.000 A 
ATOM     25  C   UNL     1       7.058   5.156  16.640  0.00  0.00    +0.000 A 
ATOM     26  C   UNL     1       7.379   4.908  15.273  0.00  0.00    +0.000 A 
ATOM     27  C   UNL     1       6.350   4.265  14.634  0.00  0.00    +0.000 A 
ATOM     28 BR   UNL     1       6.405   3.764  12.831  0.00  0.00    +0.000 Br
ATOM     29  S   UNL     1       5.018   3.961  15.632  0.00  0.00    +0.000 S 
ENDBRANCH  21  24
ENDBRANCH  19  21
ENDBRANCH   3  19
TORSDOF 4
ENDMDL
MODEL 4
REMARK VINA RESULT:      -6.8      4.922      8.136
REMARK  Name = 
REMARK  4 active torsions:
REMARK  status: ('A' for Active; 'I' for Inactive)
REMARK    1  A    between atoms: C_3  and  N_4
REMARK    2  A    between atoms: N_4  and  S_5
REMARK    3  A    between atoms: S_5  and  C_8
REMARK    4  A    between atoms: C_14  and  N_15
REMARK                            x       y       z     vdW  Elec       q    Type
REMARK                         _______ _______ _______ _____ _____    ______ ____
ROOT
ATOM      1  O   UNL     1       3.368   8.171  17.098  0.00  0.00    +0.000 OA
ATOM      2  C   UNL     1       2.847   7.581  18.039  0.00  0.00    +0.000 C 
ATOM      3  C   UNL     1       2.991   6.115  18.174  0.00  0.00    +0.000 C 
ATOM      4  C   UNL     1       2.515   5.381  19.196  0.00  0.00    +0.000 C 
ATOM      5  C   UNL     1       1.803   6.131  20.310  0.00  0.00    +0.000 C 
ATOM      6  O   UNL     1       1.406   5.570  21.328  0.00  0.00    +0.000 OA
ATOM      7  C   UNL     1       1.534   7.578  20.139  0.00  0.00    +0.000 A 
ATOM      8  C   UNL     1       0.740   8.254  21.080  0.00  0.00    +0.000 A 
ATOM      9  C   UNL     1       0.441   9.609  20.910  0.00  0.00    +0.000 A 
ATOM     10  C   UNL     1       0.940  10.300  19.806  0.00  0.00    +0.000 A 
ATOM     11  C   UNL     1       1.740   9.636  18.875  0.00  0.00    +0.000 A 
ATOM     12  C   UNL     1       2.032   8.275  19.043  0.00  0.00    +0.000 A 
ENDROOT
BRANCH   4  13
ATOM     13  N   UNL     1       2.606   3.983  19.297  0.00  0.00    +0.000 N 
ATOM     14  C   UNL     1       3.403   3.324  20.336  0.00  0.00    +0.000 C 
ATOM     15  C   UNL     1       4.392   2.371  19.664  0.00  0.00    +0.000 C 
ATOM     16  C   UNL     1       3.684   1.376  18.745  0.00  0.00    +0.000 C 
ATOM     17  C   UNL     1       2.734   2.066  17.768  0.00  0.00    +0.000 C 
ATOM     18  C   UNL     1       1.820   3.069  18.463  0.00  0.00    +0.000 C 
ENDBRANCH   4  13
BRANCH   3  19
ATOM     19  N   UNL     1       3.669   5.425  17.102  0.00  0.00    +0.000 N 
ATOM     20  H   UNL     1       3.458   5.870  16.202  0.00  0.00    +0.000 HD
BRANCH  19  21
ATOM     21  S   UNL     1       5.374   5.449  17.279  0.00  0.00    +0.000 S 
ATOM     22  O   UNL     1       5.844   6.797  17.506  0.00  0.00    +0.000 OA
ATOM     23  O   UNL     1       5.776   4.345  18.117  0.00  0.00    +0.000 OA
BRANCH  21  24
ATOM     24  C   UNL     1       6.058   5.031  15.696  0.00  0.00    +0.000 A 
ATOM     25  C   UNL     1       7.215   5.427  15.057  0.00  0.00    +0.000 A 
ATOM     26  C   UNL     1       7.359   4.810  13.779  0.00  0.00    +0.000 A 
ATOM     27  C   UNL     1       6.307   3.970  13.517  0.00  0.00    +0.000 A 
ATOM     28 BR   UNL     1       6.147   2.975  11.940  0.00  0.00    +0.000 Br
ATOM     29  S   UNL     1       5.160   3.914  14.760  0.00  0.00    +0.000 S 
ENDBRANCH  21  24
ENDBRANCH  19  21
ENDBRANCH   3  19
TORSDOF 4
ENDMDL
MODEL 5
REMARK VINA RESULT:      -6.8      4.418      8.620
REMARK  Name = 
REMARK  4 active torsions:
REMARK  status: ('A' for Active; 'I' for Inactive)
REMARK    1  A    between atoms: C_3  and  N_4
REMARK    2  A    between atoms: N_4  and  S_5
REMARK    3  A    between atoms: S_5  and  C_8
REMARK    4  A    between atoms: C_14  and  N_15
REMARK                            x       y       z     vdW  Elec       q    Type
REMARK                         _______ _______ _______ _____ _____    ______ ____
ROOT
ATOM      1  O   UNL     1       5.043   7.780  16.994  0.00  0.00    +0.000 OA
ATOM      2  C   UNL     1       4.737   6.597  17.106  0.00  0.00    +0.000 C 
ATOM      3  C   UNL     1       3.835   6.159  18.194  0.00  0.00    +0.000 C 
ATOM      4  C   UNL     1       3.388   4.903  18.370  0.00  0.00    +0.000 C 
ATOM      5  C   UNL     1       3.824   3.866  17.348  0.00  0.00    +0.000 C 
ATOM      6  O   UNL     1       3.406   2.711  17.366  0.00  0.00    +0.000 OA
ATOM      7  C   UNL     1       4.826   4.248  16.325  0.00  0.00    +0.000 A 
ATOM      8  C   UNL     1       5.361   3.268  15.473  0.00  0.00    +0.000 A 
ATOM      9  C   UNL     1       6.339   3.605  14.533  0.00  0.00    +0.000 A 
ATOM     10  C   UNL     1       6.781   4.923  14.429  0.00  0.00    +0.000 A 
ATOM     11  C   UNL     1       6.243   5.904  15.263  0.00  0.00    +0.000 A 
ATOM     12  C   UNL     1       5.269   5.562  16.212  0.00  0.00    +0.000 A 
ENDROOT
BRANCH   4  13
ATOM     13  N   UNL     1       2.574   4.477  19.433  0.00  0.00    +0.000 N 
ATOM     14  C   UNL     1       3.089   4.311  20.796  0.00  0.00    +0.000 C 
ATOM     15  C   UNL     1       2.782   2.889  21.265  0.00  0.00    +0.000 C 
ATOM     16  C   UNL     1       1.293   2.565  21.155  0.00  0.00    +0.000 C 
ATOM     17  C   UNL     1       0.731   2.890  19.773  0.00  0.00    +0.000 C 
ATOM     18  C   UNL     1       1.126   4.286  19.303  0.00  0.00    +0.000 C 
ENDBRANCH   4  13
BRANCH   3  19
ATOM     19  N   UNL     1       3.436   7.161  19.154  0.00  0.00    +0.000 N 
ATOM     20  H   UNL     1       4.227   7.774  19.379  0.00  0.00    +0.000 HD
BRANCH  19  21
ATOM     21  S   UNL     1       2.180   8.170  18.569  0.00  0.00    +0.000 S 
ATOM     22  O   UNL     1       2.722   9.396  18.025  0.00  0.00    +0.000 OA
ATOM     23  O   UNL     1       1.229   7.365  17.842  0.00  0.00    +0.000 OA
BRANCH  21  24
ATOM     24  C   UNL     1       1.259   8.714  19.984  0.00  0.00    +0.000 A 
ATOM     25  C   UNL     1       0.976   8.106  21.191  0.00  0.00    +0.000 A 
ATOM     26  C   UNL     1       0.199   8.945  22.043  0.00  0.00    +0.000 A 
ATOM     27  C   UNL     1      -0.061  10.150  21.443  0.00  0.00    +0.000 A 
ATOM     28 BR   UNL     1      -1.048  11.518  22.256  0.00  0.00    +0.000 Br
ATOM     29  S   UNL     1       0.598  10.290  19.891  0.00  0.00    +0.000 S 
ENDBRANCH  21  24
ENDBRANCH  19  21
ENDBRANCH   3  19
TORSDOF 4
ENDMDL
MODEL 6
REMARK VINA RESULT:      -6.7      1.869      2.376
REMARK  Name = 
REMARK  4 active torsions:
REMARK  status: ('A' for Active; 'I' for Inactive)
REMARK    1  A    between atoms: C_3  and  N_4
REMARK    2  A    between atoms: N_4  and  S_5
REMARK    3  A    between atoms: S_5  and  C_8
REMARK    4  A    between atoms: C_14  and  N_15
REMARK                            x       y       z     vdW  Elec       q    Type
REMARK                         _______ _______ _______ _____ _____    ______ ____
ROOT
ATOM      1  O   UNL     1      -1.978  11.017  17.782  0.00  0.00    +0.000 OA
ATOM      2  C   UNL     1      -2.512  11.678  18.667  0.00  0.00    +0.000 C 
ATOM      3  C   UNL     1      -1.688  12.410  19.653  0.00  0.00    +0.000 C 
ATOM      4  C   UNL     1      -2.168  13.211  20.622  0.00  0.00    +0.000 C 
ATOM      5  C   UNL     1      -3.675  13.397  20.678  0.00  0.00    +0.000 C 
ATOM      6  O   UNL     1      -4.212  14.171  21.467  0.00  0.00    +0.000 OA
ATOM      7  C   UNL     1      -4.530  12.578  19.786  0.00  0.00    +0.000 A 
ATOM      8  C   UNL     1      -5.927  12.617  19.932  0.00  0.00    +0.000 A 
ATOM      9  C   UNL     1      -6.744  11.818  19.128  0.00  0.00    +0.000 A 
ATOM     10  C   UNL     1      -6.175  10.984  18.166  0.00  0.00    +0.000 A 
ATOM     11  C   UNL     1      -4.789  10.952  18.008  0.00  0.00    +0.000 A 
ATOM     12  C   UNL     1      -3.970  11.747  18.822  0.00  0.00    +0.000 A 
ENDROOT
BRANCH   4  13
ATOM     13  N   UNL     1      -1.388  13.864  21.590  0.00  0.00    +0.000 N 
ATOM     14  C   UNL     1      -1.163  13.300  22.925  0.00  0.00    +0.000 C 
ATOM     15  C   UNL     1      -1.588  14.331  23.970  0.00  0.00    +0.000 C 
ATOM     16  C   UNL     1      -0.877  15.669  23.768  0.00  0.00    +0.000 C 
ATOM     17  C   UNL     1      -0.985  16.170  22.330  0.00  0.00    +0.000 C 
ATOM     18  C   UNL     1      -0.633  15.091  21.313  0.00  0.00    +0.000 C 
ENDBRANCH   4  13
BRANCH   3  19
ATOM     19  N   UNL     1      -0.259  12.216  19.581  0.00  0.00    +0.000 N 
ATOM     20  H   UNL     1       0.232  13.057  19.902  0.00  0.00    +0.000 HD
BRANCH  19  21
ATOM     21  S   UNL     1       0.280  10.921  20.568  0.00  0.00    +0.000 S 
ATOM     22  O   UNL     1       1.330  11.363  21.459  0.00  0.00    +0.000 OA
ATOM     23  O   UNL     1      -0.865  10.181  21.040  0.00  0.00    +0.000 OA
BRANCH  21  24
ATOM     24  C   UNL     1       1.099   9.768  19.497  0.00  0.00    +0.000 A 
ATOM     25  C   UNL     1       1.434   9.828  18.159  0.00  0.00    +0.000 A 
ATOM     26  C   UNL     1       2.109   8.650  17.724  0.00  0.00    +0.000 A 
ATOM     27  C   UNL     1       2.260   7.759  18.755  0.00  0.00    +0.000 A 
ATOM     28 BR   UNL     1       3.106   6.100  18.573  0.00  0.00    +0.000 Br
ATOM     29  S   UNL     1       1.608   8.302  20.220  0.00  0.00    +0.000 S 
ENDBRANCH  21  24
ENDBRANCH  19  21
ENDBRANCH   3  19
TORSDOF 4
ENDMDL
MODEL 7
REMARK VINA RESULT:      -6.6      3.355      6.446
REMARK  Name = 
REMARK  4 active torsions:
REMARK  status: ('A' for Active; 'I' for Inactive)
REMARK    1  A    between atoms: C_3  and  N_4
REMARK    2  A    between atoms: N_4  and  S_5
REMARK    3  A    between atoms: S_5  and  C_8
REMARK    4  A    between atoms: C_14  and  N_15
REMARK                            x       y       z     vdW  Elec       q    Type
REMARK                         _______ _______ _______ _____ _____    ______ ____
ROOT
ATOM      1  O   UNL     1       1.079   7.326  21.700  0.00  0.00    +0.000 OA
ATOM      2  C   UNL     1       1.306   7.847  20.613  0.00  0.00    +0.000 C 
ATOM      3  C   UNL     1       0.591   9.077  20.210  0.00  0.00    +0.000 C 
ATOM      4  C   UNL     1       0.807   9.762  19.073  0.00  0.00    +0.000 C 
ATOM      5  C   UNL     1       1.897   9.240  18.151  0.00  0.00    +0.000 C 
ATOM      6  O   UNL     1       2.234   9.836  17.131  0.00  0.00    +0.000 OA
ATOM      7  C   UNL     1       2.540   7.943  18.467  0.00  0.00    +0.000 A 
ATOM      8  C   UNL     1       3.433   7.366  17.549  0.00  0.00    +0.000 A 
ATOM      9  C   UNL     1       4.013   6.122  17.813  0.00  0.00    +0.000 A 
ATOM     10  C   UNL     1       3.716   5.451  18.998  0.00  0.00    +0.000 A 
ATOM     11  C   UNL     1       2.840   6.026  19.920  0.00  0.00    +0.000 A 
ATOM     12  C   UNL     1       2.252   7.270  19.650  0.00  0.00    +0.000 A 
ENDROOT
BRANCH   4  13
ATOM     13  N   UNL     1       0.091  10.901  18.667  0.00  0.00    +0.000 N 
ATOM     14  C   UNL     1       0.724  12.215  18.528  0.00  0.00    +0.000 C 
ATOM     15  C   UNL     1      -0.049  13.223  19.379  0.00  0.00    +0.000 C 
ATOM     16  C   UNL     1      -1.535  13.244  19.023  0.00  0.00    +0.000 C 
ATOM     17  C   UNL     1      -2.148  11.846  19.017  0.00  0.00    +0.000 C 
ATOM     18  C   UNL     1      -1.307  10.849  18.227  0.00  0.00    +0.000 C 
ENDBRANCH   4  13
BRANCH   3  19
ATOM     19  N   UNL     1      -0.442   9.552  21.101  0.00  0.00    +0.000 N 
ATOM     20  H   UNL     1      -0.910   8.762  21.558  0.00  0.00    +0.000 HD
BRANCH  19  21
ATOM     21  S   UNL     1       0.175  10.551  22.350  0.00  0.00    +0.000 S 
ATOM     22  O   UNL     1       0.344   9.795  23.571  0.00  0.00    +0.000 OA
ATOM     23  O   UNL     1       1.224  11.384  21.813  0.00  0.00    +0.000 OA
BRANCH  21  24
ATOM     24  C   UNL     1      -1.104  11.713  22.754  0.00  0.00    +0.000 A 
ATOM     25  C   UNL     1      -2.419  11.543  23.138  0.00  0.00    +0.000 A 
ATOM     26  C   UNL     1      -3.072  12.788  23.374  0.00  0.00    +0.000 A 
ATOM     27  C   UNL     1      -2.218  13.840  23.164  0.00  0.00    +0.000 A 
ATOM     28 BR   UNL     1      -2.712  15.632  23.382  0.00  0.00    +0.000 Br
ATOM     29  S   UNL     1      -0.664  13.366  22.690  0.00  0.00    +0.000 S 
ENDBRANCH  21  24
ENDBRANCH  19  21
ENDBRANCH   3  19
TORSDOF 4
ENDMDL
MODEL 8
REMARK VINA RESULT:      -6.5      4.050      6.342
REMARK  Name = 
REMARK  4 active torsions:
REMARK  status: ('A' for Active; 'I' for Inactive)
REMARK    1  A    between atoms: C_3  and  N_4
REMARK    2  A    between atoms: N_4  and  S_5
REMARK    3  A    between atoms: S_5  and  C_8
REMARK    4  A    between atoms: C_14  and  N_15
REMARK                            x       y       z     vdW  Elec       q    Type
REMARK                         _______ _______ _______ _____ _____    ______ ____
ROOT
ATOM      1  O   UNL     1       2.070  10.144  17.400  0.00  0.00    +0.000 OA
ATOM      2  C   UNL     1       1.497   9.974  18.471  0.00  0.00    +0.000 C 
ATOM      3  C   UNL     1       0.693  11.062  19.069  0.00  0.00    +0.000 C 
ATOM      4  C   UNL     1      -0.024  10.963  20.203  0.00  0.00    +0.000 C 
ATOM      5  C   UNL     1      -0.026   9.612  20.900  0.00  0.00    +0.000 C 
ATOM      6  O   UNL     1      -0.714   9.388  21.893  0.00  0.00    +0.000 OA
ATOM      7  C   UNL     1       0.869   8.545  20.394  0.00  0.00    +0.000 A 
ATOM      8  C   UNL     1       1.000   7.347  21.115  0.00  0.00    +0.000 A 
ATOM      9  C   UNL     1       1.874   6.348  20.674  0.00  0.00    +0.000 A 
ATOM     10  C   UNL     1       2.613   6.534  19.507  0.00  0.00    +0.000 A 
ATOM     11  C   UNL     1       2.476   7.717  18.779  0.00  0.00    +0.000 A 
ATOM     12  C   UNL     1       1.606   8.721  19.228  0.00  0.00    +0.000 A 
ENDROOT
BRANCH   4  13
ATOM     13  N   UNL     1      -0.744  12.012  20.798  0.00  0.00    +0.000 N 
ATOM     14  C   UNL     1      -0.197  12.811  21.899  0.00  0.00    +0.000 C 
ATOM     15  C   UNL     1      -1.178  12.764  23.071  0.00  0.00    +0.000 C 
ATOM     16  C   UNL     1      -2.579  13.212  22.657  0.00  0.00    +0.000 C 
ATOM     17  C   UNL     1      -3.075  12.481  21.412  0.00  0.00    +0.000 C 
ATOM     18  C   UNL     1      -2.039  12.478  20.293  0.00  0.00    +0.000 C 
ENDBRANCH   4  13
BRANCH   3  19
ATOM     19  N   UNL     1       0.714  12.337  18.390  0.00  0.00    +0.000 N 
ATOM     20  H   UNL     1      -0.107  12.893  18.651  0.00  0.00    +0.000 HD
BRANCH  19  21
ATOM     21  S   UNL     1       2.093  13.273  18.789  0.00  0.00    +0.000 S 
ATOM     22  O   UNL     1       2.409  13.141  20.194  0.00  0.00    +0.000 OA
ATOM     23  O   UNL     1       3.091  13.104  17.761  0.00  0.00    +0.000 OA
BRANCH  21  24
ATOM     24  C   UNL     1       1.621  14.975  18.627  0.00  0.00    +0.000 A 
ATOM     25  C   UNL     1       2.348  16.111  18.334  0.00  0.00    +0.000 A 
ATOM     26  C   UNL     1       1.527  17.276  18.296  0.00  0.00    +0.000 A 
ATOM     27  C   UNL     1       0.217  16.965  18.555  0.00  0.00    +0.000 A 
ATOM     28 BR   UNL     1      -1.160  18.232  18.585  0.00  0.00    +0.000 Br
ATOM     29  S   UNL     1      -0.042  15.318  18.845  0.00  0.00    +0.000 S 
ENDBRANCH  21  24
ENDBRANCH  19  21
ENDBRANCH   3  19
TORSDOF 4
ENDMDL
MODEL 9
REMARK VINA RESULT:      -6.5      4.661      8.909
REMARK  Name = 
REMARK  4 active torsions:
REMARK  status: ('A' for Active; 'I' for Inactive)
REMARK    1  A    between atoms: C_3  and  N_4
REMARK    2  A    between atoms: N_4  and  S_5
REMARK    3  A    between atoms: S_5  and  C_8
REMARK    4  A    between atoms: C_14  and  N_15
REMARK                            x       y       z     vdW  Elec       q    Type
REMARK                         _______ _______ _______ _____ _____    ______ ____
ROOT
ATOM      1  O   UNL     1       4.892   7.280  17.644  0.00  0.00    +0.000 OA
ATOM      2  C   UNL     1       4.774   6.067  17.500  0.00  0.00    +0.000 C 
ATOM      3  C   UNL     1       4.006   5.270  18.481  0.00  0.00    +0.000 C 
ATOM      4  C   UNL     1       3.763   3.950  18.386  0.00  0.00    +0.000 C 
ATOM      5  C   UNL     1       4.297   3.238  17.154  0.00  0.00    +0.000 C 
ATOM      6  O   UNL     1       4.059   2.054  16.926  0.00  0.00    +0.000 OA
ATOM      7  C   UNL     1       5.175   3.983  16.222  0.00  0.00    +0.000 A 
ATOM      8  C   UNL     1       5.806   3.305  15.167  0.00  0.00    +0.000 A 
ATOM      9  C   UNL     1       6.673   3.985  14.306  0.00  0.00    +0.000 A 
ATOM     10  C   UNL     1       6.906   5.348  14.485  0.00  0.00    +0.000 A 
ATOM     11  C   UNL     1       6.270   6.030  15.524  0.00  0.00    +0.000 A 
ATOM     12  C   UNL     1       5.409   5.344  16.392  0.00  0.00    +0.000 A 
ENDROOT
BRANCH   4  13
ATOM     13  N   UNL     1       3.078   3.184  19.344  0.00  0.00    +0.000 N 
ATOM     14  C   UNL     1       1.810   2.510  19.047  0.00  0.00    +0.000 C 
ATOM     15  C   UNL     1       0.768   2.956  20.073  0.00  0.00    +0.000 C 
ATOM     16  C   UNL     1       1.242   2.715  21.505  0.00  0.00    +0.000 C 
ATOM     17  C   UNL     1       2.635   3.286  21.757  0.00  0.00    +0.000 C 
ATOM     18  C   UNL     1       3.628   2.888  20.671  0.00  0.00    +0.000 C 
ENDBRANCH   4  13
BRANCH   3  19
ATOM     19  N   UNL     1       3.511   5.968  19.644  0.00  0.00    +0.000 N 
ATOM     20  H   UNL     1       4.030   6.842  19.782  0.00  0.00    +0.000 HD
BRANCH  19  21
ATOM     21  S   UNL     1       1.856   6.392  19.502  0.00  0.00    +0.000 S 
ATOM     22  O   UNL     1       1.264   5.756  18.347  0.00  0.00    +0.000 OA
ATOM     23  O   UNL     1       1.242   6.336  20.807  0.00  0.00    +0.000 OA
BRANCH  21  24
ATOM     24  C   UNL     1       1.803   8.119  19.100  0.00  0.00    +0.000 A 
ATOM     25  C   UNL     1       2.189   8.817  17.973  0.00  0.00    +0.000 A 
ATOM     26  C   UNL     1       1.940  10.215  18.098  0.00  0.00    +0.000 A 
ATOM     27  C   UNL     1       1.370  10.508  19.311  0.00  0.00    +0.000 A 
ATOM     28 BR   UNL     1       0.891  12.238  19.838  0.00  0.00    +0.000 Br
ATOM     29  S   UNL     1       1.136   9.149  20.293  0.00  0.00    +0.000 S 
ENDBRANCH  21  24
ENDBRANCH  19  21
ENDBRANCH   3  19
TORSDOF 4
ENDMDL
