MODEL 1
REMARK VINA RESULT:      -7.2      0.000      0.000
REMARK  Name = 
REMARK  6 active torsions:
REMARK  status: ('A' for Active; 'I' for Inactive)
REMARK    1  A    between atoms: C_1  and  N_2
REMARK    2  A    between atoms: N_5  and  C_6
REMARK    3  A    between atoms: C_6  and  C_7
REMARK    4  A    between atoms: C_17  and  C_18
REMARK    5  A    between atoms: C_18  and  C_19
REMARK    6  A    between atoms: C_19  and  O_20
REMARK                            x       y       z     vdW  Elec       q    Type
REMARK                         _______ _______ _______ _____ _____    ______ ____
ROOT
ATOM      1  C   UNL     1       7.726   5.494  13.798  0.00  0.00    +0.000 C 
ATOM      2  N   UNL     1       7.349   5.001  15.119  0.00  0.00    +0.000 NA
ATOM      3  C   UNL     1       6.268   4.003  15.026  0.00  0.00    +0.000 C 
ATOM      4  C   UNL     1       5.779   3.525  16.414  0.00  0.00    +0.000 C 
ATOM      5  N   UNL     1       5.403   4.607  17.360  0.00  0.00    +0.000 NA
ATOM      6  C   UNL     1       6.505   5.618  17.411  0.00  0.00    +0.000 C 
ATOM      7  C   UNL     1       6.941   6.110  15.998  0.00  0.00    +0.000 C 
ENDROOT
BRANCH   5   8
ATOM      8  C   UNL     1       4.119   5.247  16.966  0.00  0.00    +0.000 C 
BRANCH   8   9
ATOM      9  C   UNL     1       3.185   5.541  18.136  0.00  0.00    +0.000 A 
ATOM     10  C   UNL     1       2.969   6.894  18.469  0.00  0.00    +0.000 A 
ATOM     11  C   UNL     1       2.247   7.248  19.604  0.00  0.00    +0.000 A 
ATOM     12  C   UNL     1       1.695   6.257  20.406  0.00  0.00    +0.000 A 
ATOM     13  C   UNL     1       1.803   4.904  20.057  0.00  0.00    +0.000 A 
ATOM     14  C   UNL     1       1.159   3.937  20.843  0.00  0.00    +0.000 A 
ATOM     15  C   UNL     1       1.207   2.588  20.509  0.00  0.00    +0.000 A 
ATOM     16  C   UNL     1       1.934   2.186  19.398  0.00  0.00    +0.000 A 
ATOM     17  C   UNL     1       2.602   3.135  18.620  0.00  0.00    +0.000 A 
ATOM     18  C   UNL     1       2.551   4.521  18.913  0.00  0.00    +0.000 A 
ENDBRANCH   8   9
ENDBRANCH   5   8
BRANCH   6  19
ATOM     19  C   UNL     1       7.743   5.092  18.183  0.00  0.00    +0.000 C 
BRANCH  19  20
ATOM     20  C   UNL     1       8.032   5.892  19.446  0.00  0.00    +0.000 C 
BRANCH  20  21
ATOM     21  O   UNL     1       8.763   5.090  20.371  0.00  0.00    +0.000 OA
ATOM     22  H   UNL     1       9.475   5.646  20.730  0.00  0.00    +0.000 HD
ENDBRANCH  20  21
ENDBRANCH  19  20
ENDBRANCH   6  19
TORSDOF 5
ENDMDL
MODEL 2
REMARK VINA RESULT:      -7.1      1.315      1.327
REMARK  Name = 
REMARK  6 active torsions:
REMARK  status: ('A' for Active; 'I' for Inactive)
REMARK    1  A    between atoms: C_1  and  N_2
REMARK    2  A    between atoms: N_5  and  C_6
REMARK    3  A    between atoms: C_6  and  C_7
REMARK    4  A    between atoms: C_17  and  C_18
REMARK    5  A    between atoms: C_18  and  C_19
REMARK    6  A    between atoms: C_19  and  O_20
REMARK                            x       y       z     vdW  Elec       q    Type
REMARK                         _______ _______ _______ _____ _____    ______ ____
ROOT
ATOM      1  C   UNL     1       7.371   4.984  13.869  0.00  0.00    +0.000 C 
ATOM      2  N   UNL     1       7.193   5.213  15.299  0.00  0.00    +0.000 NA
ATOM      3  C   UNL     1       6.431   4.115  15.923  0.00  0.00    +0.000 C 
ATOM      4  C   UNL     1       6.143   4.368  17.422  0.00  0.00    +0.000 C 
ATOM      5  N   UNL     1       5.512   5.676  17.734  0.00  0.00    +0.000 NA
ATOM      6  C   UNL     1       6.289   6.766  17.065  0.00  0.00    +0.000 C 
ATOM      7  C   UNL     1       6.521   6.499  15.547  0.00  0.00    +0.000 C 
ENDROOT
BRANCH   5   8
ATOM      8  C   UNL     1       4.088   5.704  17.305  0.00  0.00    +0.000 C 
BRANCH   8   9
ATOM      9  C   UNL     1       3.090   5.743  18.460  0.00  0.00    +0.000 A 
ATOM     10  C   UNL     1       2.766   7.006  18.994  0.00  0.00    +0.000 A 
ATOM     11  C   UNL     1       1.977   7.123  20.134  0.00  0.00    +0.000 A 
ATOM     12  C   UNL     1       1.467   5.981  20.739  0.00  0.00    +0.000 A 
ATOM     13  C   UNL     1       1.685   4.713  20.184  0.00  0.00    +0.000 A 
ATOM     14  C   UNL     1       1.083   3.591  20.771  0.00  0.00    +0.000 A 
ATOM     15  C   UNL     1       1.240   2.321  20.229  0.00  0.00    +0.000 A 
ATOM     16  C   UNL     1       2.037   2.153  19.105  0.00  0.00    +0.000 A 
ATOM     17  C   UNL     1       2.664   3.258  18.523  0.00  0.00    +0.000 A 
ATOM     18  C   UNL     1       2.503   4.571  19.031  0.00  0.00    +0.000 A 
ENDBRANCH   8   9
ENDBRANCH   5   8
BRANCH   6  19
ATOM     19  C   UNL     1       7.651   7.024  17.762  0.00  0.00    +0.000 C 
BRANCH  19  20
ATOM     20  C   UNL     1       7.993   8.505  17.855  0.00  0.00    +0.000 C 
BRANCH  20  21
ATOM     21  O   UNL     1       8.878   8.729  18.949  0.00  0.00    +0.000 OA
ATOM     22  H   UNL     1       8.442   9.367  19.541  0.00  0.00    +0.000 HD
ENDBRANCH  20  21
ENDBRANCH  19  20
ENDBRANCH   6  19
TORSDOF 5
ENDMDL
MODEL 3
REMARK VINA RESULT:      -6.9      2.289      3.732
REMARK  Name = 
REMARK  6 active torsions:
REMARK  status: ('A' for Active; 'I' for Inactive)
REMARK    1  A    between atoms: C_1  and  N_2
REMARK    2  A    between atoms: N_5  and  C_6
REMARK    3  A    between atoms: C_6  and  C_7
REMARK    4  A    between atoms: C_17  and  C_18
REMARK    5  A    between atoms: C_18  and  C_19
REMARK    6  A    between atoms: C_19  and  O_20
REMARK                            x       y       z     vdW  Elec       q    Type
REMARK                         _______ _______ _______ _____ _____    ______ ____
ROOT
ATOM      1  C   UNL     1       7.614   8.146  17.551  0.00  0.00    +0.000 C 
ATOM      2  N   UNL     1       6.920   7.093  16.817  0.00  0.00    +0.000 NA
ATOM      3  C   UNL     1       5.516   6.977  17.253  0.00  0.00    +0.000 C 
ATOM      4  C   UNL     1       4.774   5.809  16.561  0.00  0.00    +0.000 C 
ATOM      5  N   UNL     1       5.451   4.489  16.646  0.00  0.00    +0.000 NA
ATOM      6  C   UNL     1       6.879   4.644  16.225  0.00  0.00    +0.000 C 
ATOM      7  C   UNL     1       7.607   5.800  16.976  0.00  0.00    +0.000 C 
ENDROOT
BRANCH   5   8
ATOM      8  C   UNL     1       5.363   3.925  18.019  0.00  0.00    +0.000 C 
BRANCH   8   9
ATOM      9  C   UNL     1       3.982   3.390  18.385  0.00  0.00    +0.000 A 
ATOM     10  C   UNL     1       3.620   2.126  17.877  0.00  0.00    +0.000 A 
ATOM     11  C   UNL     1       2.333   1.626  18.044  0.00  0.00    +0.000 A 
ATOM     12  C   UNL     1       1.394   2.363  18.755  0.00  0.00    +0.000 A 
ATOM     13  C   UNL     1       1.741   3.579  19.360  0.00  0.00    +0.000 A 
ATOM     14  C   UNL     1       0.793   4.252  20.143  0.00  0.00    +0.000 A 
ATOM     15  C   UNL     1       1.108   5.440  20.794  0.00  0.00    +0.000 A 
ATOM     16  C   UNL     1       2.374   5.988  20.638  0.00  0.00    +0.000 A 
ATOM     17  C   UNL     1       3.320   5.341  19.841  0.00  0.00    +0.000 A 
ATOM     18  C   UNL     1       3.044   4.115  19.186  0.00  0.00    +0.000 A 
ENDBRANCH   8   9
ENDBRANCH   5   8
BRANCH   6  19
ATOM     19  C   UNL     1       7.018   4.848  14.694  0.00  0.00    +0.000 C 
BRANCH  19  20
ATOM     20  C   UNL     1       6.189   3.856  13.891  0.00  0.00    +0.000 C 
BRANCH  20  21
ATOM     21  O   UNL     1       6.606   3.869  12.528  0.00  0.00    +0.000 OA
ATOM     22  H   UNL     1       7.367   3.268  12.457  0.00  0.00    +0.000 HD
ENDBRANCH  20  21
ENDBRANCH  19  20
ENDBRANCH   6  19
TORSDOF 5
ENDMDL
MODEL 4
REMARK VINA RESULT:      -6.8      1.613      3.427
REMARK  Name = 
REMARK  6 active torsions:
REMARK  status: ('A' for Active; 'I' for Inactive)
REMARK    1  A    between atoms: C_1  and  N_2
REMARK    2  A    between atoms: N_5  and  C_6
REMARK    3  A    between atoms: C_6  and  C_7
REMARK    4  A    between atoms: C_17  and  C_18
REMARK    5  A    between atoms: C_18  and  C_19
REMARK    6  A    between atoms: C_19  and  O_20
REMARK                            x       y       z     vdW  Elec       q    Type
REMARK                         _______ _______ _______ _____ _____    ______ ____
ROOT
ATOM      1  C   UNL     1       6.680   5.002  14.272  0.00  0.00    +0.000 C 
ATOM      2  N   UNL     1       6.304   4.740  15.658  0.00  0.00    +0.000 NA
ATOM      3  C   UNL     1       5.004   4.049  15.736  0.00  0.00    +0.000 C 
ATOM      4  C   UNL     1       4.530   3.836  17.193  0.00  0.00    +0.000 C 
ATOM      5  N   UNL     1       4.516   5.057  18.039  0.00  0.00    +0.000 NA
ATOM      6  C   UNL     1       5.836   5.751  17.918  0.00  0.00    +0.000 C 
ATOM      7  C   UNL     1       6.260   5.989  16.437  0.00  0.00    +0.000 C 
ENDROOT
BRANCH   5   8
ATOM      8  C   UNL     1       3.404   5.967  17.655  0.00  0.00    +0.000 C 
BRANCH   8   9
ATOM      9  C   UNL     1       2.661   6.577  18.840  0.00  0.00    +0.000 A 
ATOM     10  C   UNL     1       2.450   5.755  19.966  0.00  0.00    +0.000 A 
ATOM     11  C   UNL     1       1.663   6.183  21.030  0.00  0.00    +0.000 A 
ATOM     12  C   UNL     1       1.102   7.453  21.006  0.00  0.00    +0.000 A 
ATOM     13  C   UNL     1       1.366   8.337  19.951  0.00  0.00    +0.000 A 
ATOM     14  C   UNL     1       0.855   9.642  20.002  0.00  0.00    +0.000 A 
ATOM     15  C   UNL     1       1.127  10.563  18.996  0.00  0.00    +0.000 A 
ATOM     16  C   UNL     1       1.890  10.175  17.903  0.00  0.00    +0.000 A 
ATOM     17  C   UNL     1       2.385   8.871  17.827  0.00  0.00    +0.000 A 
ATOM     18  C   UNL     1       2.153   7.914  18.846  0.00  0.00    +0.000 A 
ENDBRANCH   8   9
ENDBRANCH   5   8
BRANCH   6  19
ATOM     19  C   UNL     1       6.964   4.996  18.667  0.00  0.00    +0.000 C 
BRANCH  19  20
ATOM     20  C   UNL     1       7.934   5.935  19.371  0.00  0.00    +0.000 C 
BRANCH  20  21
ATOM     21  O   UNL     1       8.433   5.317  20.554  0.00  0.00    +0.000 OA
ATOM     22  H   UNL     1       7.697   5.282  21.189  0.00  0.00    +0.000 HD
ENDBRANCH  20  21
ENDBRANCH  19  20
ENDBRANCH   6  19
TORSDOF 5
ENDMDL
MODEL 5
REMARK VINA RESULT:      -6.7      2.554      4.786
REMARK  Name = 
REMARK  6 active torsions:
REMARK  status: ('A' for Active; 'I' for Inactive)
REMARK    1  A    between atoms: C_1  and  N_2
REMARK    2  A    between atoms: N_5  and  C_6
REMARK    3  A    between atoms: C_6  and  C_7
REMARK    4  A    between atoms: C_17  and  C_18
REMARK    5  A    between atoms: C_18  and  C_19
REMARK    6  A    between atoms: C_19  and  O_20
REMARK                            x       y       z     vdW  Elec       q    Type
REMARK                         _______ _______ _______ _____ _____    ______ ____
ROOT
ATOM      1  C   UNL     1       3.548   1.566  18.573  0.00  0.00    +0.000 C 
ATOM      2  N   UNL     1       4.063   2.912  18.344  0.00  0.00    +0.000 NA
ATOM      3  C   UNL     1       4.453   3.556  19.612  0.00  0.00    +0.000 C 
ATOM      4  C   UNL     1       4.919   5.019  19.417  0.00  0.00    +0.000 C 
ATOM      5  N   UNL     1       3.977   5.888  18.665  0.00  0.00    +0.000 NA
ATOM      6  C   UNL     1       3.579   5.196  17.399  0.00  0.00    +0.000 C 
ATOM      7  C   UNL     1       3.072   3.741  17.639  0.00  0.00    +0.000 C 
ENDROOT
BRANCH   5   8
ATOM      8  C   UNL     1       2.781   6.223  19.482  0.00  0.00    +0.000 C 
BRANCH   8   9
ATOM      9  C   UNL     1       2.184   7.595  19.180  0.00  0.00    +0.000 A 
ATOM     10  C   UNL     1       2.436   8.145  17.907  0.00  0.00    +0.000 A 
ATOM     11  C   UNL     1       2.051   9.445  17.597  0.00  0.00    +0.000 A 
ATOM     12  C   UNL     1       1.373  10.207  18.541  0.00  0.00    +0.000 A 
ATOM     13  C   UNL     1       1.017   9.664  19.784  0.00  0.00    +0.000 A 
ATOM     14  C   UNL     1       0.258  10.432  20.678  0.00  0.00    +0.000 A 
ATOM     15  C   UNL     1      -0.151   9.917  21.903  0.00  0.00    +0.000 A 
ATOM     16  C   UNL     1       0.229   8.632  22.264  0.00  0.00    +0.000 A 
ATOM     17  C   UNL     1       1.007   7.865  21.394  0.00  0.00    +0.000 A 
ATOM     18  C   UNL     1       1.417   8.345  20.126  0.00  0.00    +0.000 A 
ENDBRANCH   8   9
ENDBRANCH   5   8
BRANCH   6  19
ATOM     19  C   UNL     1       4.725   5.183  16.355  0.00  0.00    +0.000 C 
BRANCH  19  20
ATOM     20  C   UNL     1       5.347   6.557  16.146  0.00  0.00    +0.000 C 
BRANCH  20  21
ATOM     21  O   UNL     1       6.764   6.470  16.269  0.00  0.00    +0.000 OA
ATOM     22  H   UNL     1       6.954   6.191  17.181  0.00  0.00    +0.000 HD
ENDBRANCH  20  21
ENDBRANCH  19  20
ENDBRANCH   6  19
TORSDOF 5
ENDMDL
MODEL 6
REMARK VINA RESULT:      -6.7      2.341      6.265
REMARK  Name = 
REMARK  6 active torsions:
REMARK  status: ('A' for Active; 'I' for Inactive)
REMARK    1  A    between atoms: C_1  and  N_2
REMARK    2  A    between atoms: N_5  and  C_6
REMARK    3  A    between atoms: C_6  and  C_7
REMARK    4  A    between atoms: C_17  and  C_18
REMARK    5  A    between atoms: C_18  and  C_19
REMARK    6  A    between atoms: C_19  and  O_20
REMARK                            x       y       z     vdW  Elec       q    Type
REMARK                         _______ _______ _______ _____ _____    ______ ____
ROOT
ATOM      1  C   UNL     1       1.123   2.354  22.066  0.00  0.00    +0.000 C 
ATOM      2  N   UNL     1       1.398   3.320  21.007  0.00  0.00    +0.000 NA
ATOM      3  C   UNL     1       1.600   2.648  19.711  0.00  0.00    +0.000 C 
ATOM      4  C   UNL     1       1.984   3.634  18.583  0.00  0.00    +0.000 C 
ATOM      5  N   UNL     1       3.133   4.526  18.885  0.00  0.00    +0.000 NA
ATOM      6  C   UNL     1       2.913   5.172  20.217  0.00  0.00    +0.000 C 
ATOM      7  C   UNL     1       2.573   4.144  21.339  0.00  0.00    +0.000 C 
ENDROOT
BRANCH   5   8
ATOM      8  C   UNL     1       4.417   3.777  18.868  0.00  0.00    +0.000 C 
BRANCH   8   9
ATOM      9  C   UNL     1       5.590   4.564  18.289  0.00  0.00    +0.000 A 
ATOM     10  C   UNL     1       6.359   5.334  19.184  0.00  0.00    +0.000 A 
ATOM     11  C   UNL     1       7.355   6.189  18.724  0.00  0.00    +0.000 A 
ATOM     12  C   UNL     1       7.626   6.264  17.363  0.00  0.00    +0.000 A 
ATOM     13  C   UNL     1       6.950   5.444  16.449  0.00  0.00    +0.000 A 
ATOM     14  C   UNL     1       7.310   5.482  15.094  0.00  0.00    +0.000 A 
ATOM     15  C   UNL     1       6.693   4.655  14.161  0.00  0.00    +0.000 A 
ATOM     16  C   UNL     1       5.679   3.802  14.571  0.00  0.00    +0.000 A 
ATOM     17  C   UNL     1       5.293   3.771  15.912  0.00  0.00    +0.000 A 
ATOM     18  C   UNL     1       5.918   4.577  16.897  0.00  0.00    +0.000 A 
ENDBRANCH   8   9
ENDBRANCH   5   8
BRANCH   6  19
ATOM     19  C   UNL     1       1.814   6.265  20.163  0.00  0.00    +0.000 C 
BRANCH  19  20
ATOM     20  C   UNL     1       2.263   7.515  19.419  0.00  0.00    +0.000 C 
BRANCH  20  21
ATOM     21  O   UNL     1       2.366   7.238  18.025  0.00  0.00    +0.000 OA
ATOM     22  H   UNL     1       2.508   6.280  17.935  0.00  0.00    +0.000 HD
ENDBRANCH  20  21
ENDBRANCH  19  20
ENDBRANCH   6  19
TORSDOF 5
ENDMDL
MODEL 7
REMARK VINA RESULT:      -6.6      2.007      2.850
REMARK  Name = 
REMARK  6 active torsions:
REMARK  status: ('A' for Active; 'I' for Inactive)
REMARK    1  A    between atoms: C_1  and  N_2
REMARK    2  A    between atoms: N_5  and  C_6
REMARK    3  A    between atoms: C_6  and  C_7
REMARK    4  A    between atoms: C_17  and  C_18
REMARK    5  A    between atoms: C_18  and  C_19
REMARK    6  A    between atoms: C_19  and  O_20
REMARK                            x       y       z     vdW  Elec       q    Type
REMARK                         _______ _______ _______ _____ _____    ______ ____
ROOT
ATOM      1  C   UNL     1       8.156   8.685  17.772  0.00  0.00    +0.000 C 
ATOM      2  N   UNL     1       7.287   7.641  17.239  0.00  0.00    +0.000 NA
ATOM      3  C   UNL     1       5.877   7.891  17.591  0.00  0.00    +0.000 C 
ATOM      4  C   UNL     1       4.936   6.756  17.120  0.00  0.00    +0.000 C 
ATOM      5  N   UNL     1       5.338   5.387  17.537  0.00  0.00    +0.000 NA
ATOM      6  C   UNL     1       6.778   5.174  17.192  0.00  0.00    +0.000 C 
ATOM      7  C   UNL     1       7.701   6.313  17.722  0.00  0.00    +0.000 C 
ENDROOT
BRANCH   5   8
ATOM      8  C   UNL     1       5.106   5.176  18.990  0.00  0.00    +0.000 C 
BRANCH   8   9
ATOM      9  C   UNL     1       3.633   5.061  19.376  0.00  0.00    +0.000 A 
ATOM     10  C   UNL     1       3.059   6.145  20.070  0.00  0.00    +0.000 A 
ATOM     11  C   UNL     1       1.768   6.067  20.581  0.00  0.00    +0.000 A 
ATOM     12  C   UNL     1       1.013   4.919  20.376  0.00  0.00    +0.000 A 
ATOM     13  C   UNL     1       1.510   3.858  19.608  0.00  0.00    +0.000 A 
ATOM     14  C   UNL     1       0.689   2.752  19.347  0.00  0.00    +0.000 A 
ATOM     15  C   UNL     1       1.129   1.697  18.556  0.00  0.00    +0.000 A 
ATOM     16  C   UNL     1       2.418   1.721  18.043  0.00  0.00    +0.000 A 
ATOM     17  C   UNL     1       3.257   2.804  18.315  0.00  0.00    +0.000 A 
ATOM     18  C   UNL     1       2.833   3.911  19.092  0.00  0.00    +0.000 A 
ENDBRANCH   8   9
ENDBRANCH   5   8
BRANCH   6  19
ATOM     19  C   UNL     1       6.994   4.996  15.667  0.00  0.00    +0.000 C 
BRANCH  19  20
ATOM     20  C   UNL     1       6.050   3.970  15.055  0.00  0.00    +0.000 C 
BRANCH  20  21
ATOM     21  O   UNL     1       5.918   2.852  15.928  0.00  0.00    +0.000 OA
ATOM     22  H   UNL     1       5.047   2.925  16.355  0.00  0.00    +0.000 HD
ENDBRANCH  20  21
ENDBRANCH  19  20
ENDBRANCH   6  19
TORSDOF 5
ENDMDL
MODEL 8
REMARK VINA RESULT:      -6.5      1.800      3.385
REMARK  Name = 
REMARK  6 active torsions:
REMARK  status: ('A' for Active; 'I' for Inactive)
REMARK    1  A    between atoms: C_1  and  N_2
REMARK    2  A    between atoms: N_5  and  C_6
REMARK    3  A    between atoms: C_6  and  C_7
REMARK    4  A    between atoms: C_17  and  C_18
REMARK    5  A    between atoms: C_18  and  C_19
REMARK    6  A    between atoms: C_19  and  O_20
REMARK                            x       y       z     vdW  Elec       q    Type
REMARK                         _______ _______ _______ _____ _____    ______ ____
ROOT
ATOM      1  C   UNL     1       6.004   3.648  13.778  0.00  0.00    +0.000 C 
ATOM      2  N   UNL     1       6.173   4.269  15.088  0.00  0.00    +0.000 NA
ATOM      3  C   UNL     1       5.473   3.504  16.136  0.00  0.00    +0.000 C 
ATOM      4  C   UNL     1       5.554   4.183  17.523  0.00  0.00    +0.000 C 
ATOM      5  N   UNL     1       5.133   5.608  17.556  0.00  0.00    +0.000 NA
ATOM      6  C   UNL     1       5.838   6.352  16.466  0.00  0.00    +0.000 C 
ATOM      7  C   UNL     1       5.697   5.662  15.075  0.00  0.00    +0.000 C 
ENDROOT
BRANCH   5   8
ATOM      8  C   UNL     1       3.658   5.739  17.416  0.00  0.00    +0.000 C 
BRANCH   8   9
ATOM      9  C   UNL     1       2.958   6.268  18.664  0.00  0.00    +0.000 A 
ATOM     10  C   UNL     1       2.856   5.398  19.768  0.00  0.00    +0.000 A 
ATOM     11  C   UNL     1       2.114   5.747  20.892  0.00  0.00    +0.000 A 
ATOM     12  C   UNL     1       1.490   6.987  20.948  0.00  0.00    +0.000 A 
ATOM     13  C   UNL     1       1.647   7.920  19.914  0.00  0.00    +0.000 A 
ATOM     14  C   UNL     1       1.076   9.194  20.043  0.00  0.00    +0.000 A 
ATOM     15  C   UNL     1       1.241  10.162  19.059  0.00  0.00    +0.000 A 
ATOM     16  C   UNL     1       1.955   9.851  17.910  0.00  0.00    +0.000 A 
ATOM     17  C   UNL     1       2.508   8.578  17.756  0.00  0.00    +0.000 A 
ATOM     18  C   UNL     1       2.385   7.576  18.750  0.00  0.00    +0.000 A 
ENDBRANCH   8   9
ENDBRANCH   5   8
BRANCH   6  19
ATOM     19  C   UNL     1       7.339   6.574  16.786  0.00  0.00    +0.000 C 
BRANCH  19  20
ATOM     20  C   UNL     1       7.557   7.550  17.934  0.00  0.00    +0.000 C 
BRANCH  20  21
ATOM     21  O   UNL     1       8.292   6.915  18.977  0.00  0.00    +0.000 OA
ATOM     22  H   UNL     1       8.040   5.975  18.970  0.00  0.00    +0.000 HD
ENDBRANCH  20  21
ENDBRANCH  19  20
ENDBRANCH   6  19
TORSDOF 5
ENDMDL
MODEL 9
REMARK VINA RESULT:      -6.3      3.664      5.882
REMARK  Name = 
REMARK  6 active torsions:
REMARK  status: ('A' for Active; 'I' for Inactive)
REMARK    1  A    between atoms: C_1  and  N_2
REMARK    2  A    between atoms: N_5  and  C_6
REMARK    3  A    between atoms: C_6  and  C_7
REMARK    4  A    between atoms: C_17  and  C_18
REMARK    5  A    between atoms: C_18  and  C_19
REMARK    6  A    between atoms: C_19  and  O_20
REMARK                            x       y       z     vdW  Elec       q    Type
REMARK                         _______ _______ _______ _____ _____    ______ ____
ROOT
ATOM      1  C   UNL     1       5.979   4.724  19.072  0.00  0.00    +0.000 C 
ATOM      2  N   UNL     1       4.657   5.077  18.563  0.00  0.00    +0.000 NA
ATOM      3  C   UNL     1       4.632   6.462  18.058  0.00  0.00    +0.000 C 
ATOM      4  C   UNL     1       3.223   6.900  17.594  0.00  0.00    +0.000 C 
ATOM      5  N   UNL     1       2.137   6.694  18.587  0.00  0.00    +0.000 NA
ATOM      6  C   UNL     1       2.205   5.290  19.101  0.00  0.00    +0.000 C 
ATOM      7  C   UNL     1       3.629   4.898  19.602  0.00  0.00    +0.000 C 
ENDROOT
BRANCH   5   8
ATOM      8  C   UNL     1       2.234   7.670  19.704  0.00  0.00    +0.000 C 
BRANCH   8   9
ATOM      9  C   UNL     1       1.212   8.802  19.632  0.00  0.00    +0.000 A 
ATOM     10  C   UNL     1       0.908   9.320  18.357  0.00  0.00    +0.000 A 
ATOM     11  C   UNL     1       0.098  10.442  18.212  0.00  0.00    +0.000 A 
ATOM     12  C   UNL     1      -0.453  11.044  19.336  0.00  0.00    +0.000 A 
ATOM     13  C   UNL     1      -0.255  10.503  20.614  0.00  0.00    +0.000 A 
ATOM     14  C   UNL     1      -0.898  11.085  21.715  0.00  0.00    +0.000 A 
ATOM     15  C   UNL     1      -0.760  10.555  22.994  0.00  0.00    +0.000 A 
ATOM     16  C   UNL     1       0.056   9.450  23.190  0.00  0.00    +0.000 A 
ATOM     17  C   UNL     1       0.722   8.875  22.106  0.00  0.00    +0.000 A 
ATOM     18  C   UNL     1       0.583   9.369  20.785  0.00  0.00    +0.000 A 
ENDBRANCH   8   9
ENDBRANCH   5   8
BRANCH   6  19
ATOM     19  C   UNL     1       1.721   4.258  18.050  0.00  0.00    +0.000 C 
BRANCH  19  20
ATOM     20  C   UNL     1       1.634   2.845  18.608  0.00  0.00    +0.000 C 
BRANCH  20  21
ATOM     21  O   UNL     1       0.302   2.354  18.481  0.00  0.00    +0.000 OA
ATOM     22  H   UNL     1       0.112   2.292  17.529  0.00  0.00    +0.000 HD
ENDBRANCH  20  21
ENDBRANCH  19  20
ENDBRANCH   6  19
TORSDOF 5
ENDMDL
