MODEL 1
REMARK VINA RESULT:      -7.4      0.000      0.000
REMARK  Name = 
REMARK  4 active torsions:
REMARK  status: ('A' for Active; 'I' for Inactive)
REMARK    1  A    between atoms: C_5  and  C_6
REMARK    2  A    between atoms: C_6  and  C_7
REMARK    3  A    between atoms: C_6  and  C_14
REMARK    4  A    between atoms: C_6  and  N_19
REMARK                            x       y       z     vdW  Elec       q    Type
REMARK                         _______ _______ _______ _____ _____    ______ ____
ROOT
ATOM      1  C   UNL     1       0.413  11.010  19.797  0.00  0.00    +0.000 C 
ENDROOT
BRANCH   1   6
ATOM      2 CL   UNL     1       3.570   6.017  18.248  0.00  0.00    +0.000 Cl
ATOM      3  C   UNL     1       2.569   7.356  18.651  0.00  0.00    +0.000 A 
ATOM      4  C   UNL     1       2.269   8.315  17.692  0.00  0.00    +0.000 A 
ATOM      5  C   UNL     1       1.527   9.448  18.044  0.00  0.00    +0.000 A 
ATOM      6  C   UNL     1       1.105   9.670  19.375  0.00  0.00    +0.000 A 
ATOM      7  C   UNL     1       1.300   8.599  20.282  0.00  0.00    +0.000 A 
ATOM      8  C   UNL     1       2.063   7.478  19.938  0.00  0.00    +0.000 A 
ENDBRANCH   1   6
BRANCH   1   9
ATOM      9  C   UNL     1       1.447  12.166  19.593  0.00  0.00    +0.000 A 
ATOM     10  C   UNL     1       2.117  12.408  18.377  0.00  0.00    +0.000 A 
ATOM     11  C   UNL     1       3.024  13.468  18.233  0.00  0.00    +0.000 A 
ATOM     12  C   UNL     1       3.331  14.278  19.321  0.00  0.00    +0.000 A 
ATOM     13 CL   UNL     1       4.437  15.580  19.140  0.00  0.00    +0.000 Cl
ATOM     14  C   UNL     1       2.753  14.022  20.556  0.00  0.00    +0.000 A 
ATOM     15  C   UNL     1       1.839  12.969  20.694  0.00  0.00    +0.000 A 
ENDBRANCH   1   9
BRANCH   1  16
ATOM     16  C   UNL     1      -0.818  11.218  18.891  0.00  0.00    +0.000 A 
ATOM     17  C   UNL     1      -1.751  10.253  18.412  0.00  0.00    +0.000 A 
ATOM     18  N   UNL     1      -2.740  10.787  17.693  0.00  0.00    +0.000 NA
ATOM     19  N   UNL     1      -2.405  12.077  17.597  0.00  0.00    +0.000 N 
ATOM     20  C   UNL     1      -1.228  12.368  18.219  0.00  0.00    +0.000 A 
ATOM     21  H   UNL     1      -3.021  12.705  17.089  0.00  0.00    +0.000 HD
ENDBRANCH   1  16
BRANCH   1  22
ATOM     22  N   UNL     1      -0.154  10.963  21.179  0.00  0.00    +0.000 N 
ATOM     23  C   UNL     1      -1.261  11.623  21.665  0.00  0.00    +0.000 A 
ATOM     24  C   UNL     1      -1.334  11.302  22.998  0.00  0.00    +0.000 A 
ATOM     25  N   UNL     1      -0.384  10.376  23.319  0.00  0.00    +0.000 NA
ATOM     26  C   UNL     1       0.258  10.136  22.199  0.00  0.00    +0.000 A 
ENDBRANCH   1  22
TORSDOF 4
ENDMDL
MODEL 2
REMARK VINA RESULT:      -7.3      2.572      4.624
REMARK  Name = 
REMARK  4 active torsions:
REMARK  status: ('A' for Active; 'I' for Inactive)
REMARK    1  A    between atoms: C_5  and  C_6
REMARK    2  A    between atoms: C_6  and  C_7
REMARK    3  A    between atoms: C_6  and  C_14
REMARK    4  A    between atoms: C_6  and  N_19
REMARK                            x       y       z     vdW  Elec       q    Type
REMARK                         _______ _______ _______ _____ _____    ______ ____
ROOT
ATOM      1  C   UNL     1       0.606  10.588  19.739  0.00  0.00    +0.000 C 
ENDROOT
BRANCH   1   6
ATOM      2 CL   UNL     1       3.337   5.507  17.734  0.00  0.00    +0.000 Cl
ATOM      3  C   UNL     1       2.687   6.977  18.345  0.00  0.00    +0.000 A 
ATOM      4  C   UNL     1       2.176   7.030  19.636  0.00  0.00    +0.000 A 
ATOM      5  C   UNL     1       1.569   8.203  20.101  0.00  0.00    +0.000 A 
ATOM      6  C   UNL     1       1.422   9.337  19.270  0.00  0.00    +0.000 A 
ATOM      7  C   UNL     1       2.090   9.291  18.021  0.00  0.00    +0.000 A 
ATOM      8  C   UNL     1       2.674   8.112  17.546  0.00  0.00    +0.000 A 
ENDBRANCH   1   6
BRANCH   1   9
ATOM      9  C   UNL     1      -0.682  10.678  18.856  0.00  0.00    +0.000 A 
ATOM     10  C   UNL     1      -0.967   9.790  17.799  0.00  0.00    +0.000 A 
ATOM     11  C   UNL     1      -2.144   9.895  17.043  0.00  0.00    +0.000 A 
ATOM     12  C   UNL     1      -3.039  10.931  17.286  0.00  0.00    +0.000 A 
ATOM     13 CL   UNL     1      -4.483  11.054  16.363  0.00  0.00    +0.000 Cl
ATOM     14  C   UNL     1      -2.756  11.873  18.265  0.00  0.00    +0.000 A 
ATOM     15  C   UNL     1      -1.585  11.758  19.025  0.00  0.00    +0.000 A 
ENDBRANCH   1   9
BRANCH   1  16
ATOM     16  C   UNL     1       0.233  10.387  21.222  0.00  0.00    +0.000 A 
ATOM     17  C   UNL     1       0.942   9.680  22.236  0.00  0.00    +0.000 A 
ATOM     18  N   UNL     1       0.363   9.754  23.436  0.00  0.00    +0.000 NA
ATOM     19  N   UNL     1      -0.780  10.407  23.199  0.00  0.00    +0.000 N 
ATOM     20  C   UNL     1      -0.944  10.729  21.885  0.00  0.00    +0.000 A 
ATOM     21  H   UNL     1      -1.404  10.596  23.977  0.00  0.00    +0.000 HD
ENDBRANCH   1  16
BRANCH   1  22
ATOM     22  N   UNL     1       1.413  11.846  19.733  0.00  0.00    +0.000 N 
ATOM     23  C   UNL     1       1.994  12.477  18.655  0.00  0.00    +0.000 A 
ATOM     24  C   UNL     1       2.671  13.553  19.170  0.00  0.00    +0.000 A 
ATOM     25  N   UNL     1       2.428  13.675  20.508  0.00  0.00    +0.000 NA
ATOM     26  C   UNL     1       1.615  12.688  20.803  0.00  0.00    +0.000 A 
ENDBRANCH   1  22
TORSDOF 4
ENDMDL
MODEL 3
REMARK VINA RESULT:      -7.3      6.020      9.487
REMARK  Name = 
REMARK  4 active torsions:
REMARK  status: ('A' for Active; 'I' for Inactive)
REMARK    1  A    between atoms: C_5  and  C_6
REMARK    2  A    between atoms: C_6  and  C_7
REMARK    3  A    between atoms: C_6  and  C_14
REMARK    4  A    between atoms: C_6  and  N_19
REMARK                            x       y       z     vdW  Elec       q    Type
REMARK                         _______ _______ _______ _____ _____    ______ ____
ROOT
ATOM      1  C   UNL     1       5.135   4.645  17.446  0.00  0.00    +0.000 C 
ENDROOT
BRANCH   1   6
ATOM      2 CL   UNL     1       1.670   9.611  18.239  0.00  0.00    +0.000 Cl
ATOM      3  C   UNL     1       2.579   8.191  17.901  0.00  0.00    +0.000 A 
ATOM      4  C   UNL     1       2.145   6.958  18.370  0.00  0.00    +0.000 A 
ATOM      5  C   UNL     1       2.931   5.817  18.168  0.00  0.00    +0.000 A 
ATOM      6  C   UNL     1       4.191   5.892  17.530  0.00  0.00    +0.000 A 
ATOM      7  C   UNL     1       4.521   7.135  16.937  0.00  0.00    +0.000 A 
ATOM      8  C   UNL     1       3.749   8.281  17.160  0.00  0.00    +0.000 A 
ENDBRANCH   1   6
BRANCH   1   9
ATOM      9  C   UNL     1       5.601   4.497  15.961  0.00  0.00    +0.000 A 
ATOM     10  C   UNL     1       4.832   3.868  14.960  0.00  0.00    +0.000 A 
ATOM     11  C   UNL     1       5.281   3.773  13.635  0.00  0.00    +0.000 A 
ATOM     12  C   UNL     1       6.539   4.251  13.288  0.00  0.00    +0.000 A 
ATOM     13 CL   UNL     1       7.084   4.140  11.662  0.00  0.00    +0.000 Cl
ATOM     14  C   UNL     1       7.359   4.805  14.260  0.00  0.00    +0.000 A 
ATOM     15  C   UNL     1       6.903   4.908  15.581  0.00  0.00    +0.000 A 
ENDBRANCH   1   9
BRANCH   1  16
ATOM     16  C   UNL     1       6.343   4.898  18.371  0.00  0.00    +0.000 A 
ATOM     17  C   UNL     1       6.390   5.595  19.613  0.00  0.00    +0.000 A 
ATOM     18  N   UNL     1       7.596   5.575  20.184  0.00  0.00    +0.000 NA
ATOM     19  N   UNL     1       8.370   4.971  19.277  0.00  0.00    +0.000 N 
ATOM     20  C   UNL     1       7.691   4.627  18.146  0.00  0.00    +0.000 A 
ATOM     21  H   UNL     1       9.352   4.830  19.490  0.00  0.00    +0.000 HD
ENDBRANCH   1  16
BRANCH   1  22
ATOM     22  N   UNL     1       4.509   3.403  17.994  0.00  0.00    +0.000 N 
ATOM     23  C   UNL     1       4.613   2.891  19.269  0.00  0.00    +0.000 A 
ATOM     24  C   UNL     1       3.911   1.712  19.258  0.00  0.00    +0.000 A 
ATOM     25  N   UNL     1       3.280   1.542  18.059  0.00  0.00    +0.000 NA
ATOM     26  C   UNL     1       3.593   2.603  17.350  0.00  0.00    +0.000 A 
ENDBRANCH   1  22
TORSDOF 4
ENDMDL
MODEL 4
REMARK VINA RESULT:      -7.2      2.495      4.550
REMARK  Name = 
REMARK  4 active torsions:
REMARK  status: ('A' for Active; 'I' for Inactive)
REMARK    1  A    between atoms: C_5  and  C_6
REMARK    2  A    between atoms: C_6  and  C_7
REMARK    3  A    between atoms: C_6  and  C_14
REMARK    4  A    between atoms: C_6  and  N_19
REMARK                            x       y       z     vdW  Elec       q    Type
REMARK                         _______ _______ _______ _____ _____    ______ ____
ROOT
ATOM      1  C   UNL     1       0.526  10.536  19.839  0.00  0.00    +0.000 C 
ENDROOT
BRANCH   1   6
ATOM      2 CL   UNL     1       4.026   5.954  17.825  0.00  0.00    +0.000 Cl
ATOM      3  C   UNL     1       2.935   7.181  18.337  0.00  0.00    +0.000 A 
ATOM      4  C   UNL     1       2.685   8.276  17.521  0.00  0.00    +0.000 A 
ATOM      5  C   UNL     1       1.865   9.315  17.976  0.00  0.00    +0.000 A 
ATOM      6  C   UNL     1       1.311   9.303  19.277  0.00  0.00    +0.000 A 
ATOM      7  C   UNL     1       1.466   8.102  20.013  0.00  0.00    +0.000 A 
ATOM      8  C   UNL     1       2.306   7.075  19.570  0.00  0.00    +0.000 A 
ENDBRANCH   1   6
BRANCH   1   9
ATOM      9  C   UNL     1      -0.798  10.674  19.018  0.00  0.00    +0.000 A 
ATOM     10  C   UNL     1      -1.164   9.800  17.973  0.00  0.00    +0.000 A 
ATOM     11  C   UNL     1      -2.371   9.950  17.275  0.00  0.00    +0.000 A 
ATOM     12  C   UNL     1      -3.216  11.016  17.562  0.00  0.00    +0.000 A 
ATOM     13 CL   UNL     1      -4.698  11.193  16.709  0.00  0.00    +0.000 Cl
ATOM     14  C   UNL     1      -2.854  11.944  18.528  0.00  0.00    +0.000 A 
ATOM     15  C   UNL     1      -1.653  11.785  19.232  0.00  0.00    +0.000 A 
ENDBRANCH   1   9
BRANCH   1  16
ATOM     16  C   UNL     1       0.217  10.268  21.326  0.00  0.00    +0.000 A 
ATOM     17  C   UNL     1       1.038   9.656  22.315  0.00  0.00    +0.000 A 
ATOM     18  N   UNL     1       0.480   9.636  23.527  0.00  0.00    +0.000 NA
ATOM     19  N   UNL     1      -0.747  10.125  23.322  0.00  0.00    +0.000 N 
ATOM     20  C   UNL     1      -0.982  10.436  22.016  0.00  0.00    +0.000 A 
ATOM     21  H   UNL     1      -1.374  10.217  24.115  0.00  0.00    +0.000 HD
ENDBRANCH   1  16
BRANCH   1  22
ATOM     22  N   UNL     1       1.342  11.787  19.855  0.00  0.00    +0.000 N 
ATOM     23  C   UNL     1       1.966  12.409  18.795  0.00  0.00    +0.000 A 
ATOM     24  C   UNL     1       2.633  13.483  19.328  0.00  0.00    +0.000 A 
ATOM     25  N   UNL     1       2.344  13.613  20.656  0.00  0.00    +0.000 NA
ATOM     26  C   UNL     1       1.513  12.633  20.927  0.00  0.00    +0.000 A 
ENDBRANCH   1  22
TORSDOF 4
ENDMDL
MODEL 5
REMARK VINA RESULT:      -7.2      0.202      1.374
REMARK  Name = 
REMARK  4 active torsions:
REMARK  status: ('A' for Active; 'I' for Inactive)
REMARK    1  A    between atoms: C_5  and  C_6
REMARK    2  A    between atoms: C_6  and  C_7
REMARK    3  A    between atoms: C_6  and  C_14
REMARK    4  A    between atoms: C_6  and  N_19
REMARK                            x       y       z     vdW  Elec       q    Type
REMARK                         _______ _______ _______ _____ _____    ______ ____
ROOT
ATOM      1  C   UNL     1       0.514  11.035  19.831  0.00  0.00    +0.000 C 
ENDROOT
BRANCH   1   6
ATOM      2 CL   UNL     1       2.941   5.740  17.994  0.00  0.00    +0.000 Cl
ATOM      3  C   UNL     1       2.382   7.271  18.542  0.00  0.00    +0.000 A 
ATOM      4  C   UNL     1       2.015   7.445  19.870  0.00  0.00    +0.000 A 
ATOM      5  C   UNL     1       1.478   8.666  20.293  0.00  0.00    +0.000 A 
ATOM      6  C   UNL     1       1.257   9.729  19.387  0.00  0.00    +0.000 A 
ATOM      7  C   UNL     1       1.785   9.562  18.083  0.00  0.00    +0.000 A 
ATOM      8  C   UNL     1       2.298   8.334  17.652  0.00  0.00    +0.000 A 
ENDBRANCH   1   6
BRANCH   1   9
ATOM      9  C   UNL     1       1.513  12.229  19.680  0.00  0.00    +0.000 A 
ATOM     10  C   UNL     1       1.788  13.151  20.710  0.00  0.00    +0.000 A 
ATOM     11  C   UNL     1       2.706  14.198  20.537  0.00  0.00    +0.000 A 
ATOM     12  C   UNL     1       3.328  14.386  19.309  0.00  0.00    +0.000 A 
ATOM     13 CL   UNL     1       4.457  15.665  19.102  0.00  0.00    +0.000 Cl
ATOM     14  C   UNL     1       3.024  13.548  18.245  0.00  0.00    +0.000 A 
ATOM     15  C   UNL     1       2.115  12.497  18.424  0.00  0.00    +0.000 A 
ENDBRANCH   1   9
BRANCH   1  16
ATOM     16  C   UNL     1      -0.705  11.228  18.906  0.00  0.00    +0.000 A 
ATOM     17  C   UNL     1      -1.602  10.248  18.389  0.00  0.00    +0.000 A 
ATOM     18  N   UNL     1      -2.592  10.769  17.662  0.00  0.00    +0.000 NA
ATOM     19  N   UNL     1      -2.291  12.070  17.599  0.00  0.00    +0.000 N 
ATOM     20  C   UNL     1      -1.134  12.380  18.249  0.00  0.00    +0.000 A 
ATOM     21  H   UNL     1      -2.914  12.691  17.093  0.00  0.00    +0.000 HD
ENDBRANCH   1  16
BRANCH   1  22
ATOM     22  N   UNL     1      -0.078  10.931  21.199  0.00  0.00    +0.000 N 
ATOM     23  C   UNL     1      -1.230  11.520  21.673  0.00  0.00    +0.000 A 
ATOM     24  C   UNL     1      -1.313  11.172  22.997  0.00  0.00    +0.000 A 
ATOM     25  N   UNL     1      -0.320  10.293  23.323  0.00  0.00    +0.000 NA
ATOM     26  C   UNL     1       0.357  10.109  22.213  0.00  0.00    +0.000 A 
ENDBRANCH   1  22
TORSDOF 4
ENDMDL
MODEL 6
REMARK VINA RESULT:      -7.2      2.535      5.083
REMARK  Name = 
REMARK  4 active torsions:
REMARK  status: ('A' for Active; 'I' for Inactive)
REMARK    1  A    between atoms: C_5  and  C_6
REMARK    2  A    between atoms: C_6  and  C_7
REMARK    3  A    between atoms: C_6  and  C_14
REMARK    4  A    between atoms: C_6  and  N_19
REMARK                            x       y       z     vdW  Elec       q    Type
REMARK                         _______ _______ _______ _____ _____    ______ ____
ROOT
ATOM      1  C   UNL     1       0.531  10.534  19.777  0.00  0.00    +0.000 C 
ENDROOT
BRANCH   1   6
ATOM      2 CL   UNL     1      -4.466  11.001  16.296  0.00  0.00    +0.000 Cl
ATOM      3  C   UNL     1      -2.993  10.939  17.182  0.00  0.00    +0.000 A 
ATOM      4  C   UNL     1      -2.113   9.880  16.998  0.00  0.00    +0.000 A 
ATOM      5  C   UNL     1      -0.958   9.787  17.782  0.00  0.00    +0.000 A 
ATOM      6  C   UNL     1      -0.677  10.728  18.799  0.00  0.00    +0.000 A 
ATOM      7  C   UNL     1      -1.518  11.867  18.849  0.00  0.00    +0.000 A 
ATOM      8  C   UNL     1      -2.686  11.950  18.084  0.00  0.00    +0.000 A 
ENDBRANCH   1   6
BRANCH   1   9
ATOM      9  C   UNL     1       1.338   9.283  19.296  0.00  0.00    +0.000 A 
ATOM     10  C   UNL     1       1.561   8.143  20.096  0.00  0.00    +0.000 A 
ATOM     11  C   UNL     1       2.276   7.035  19.618  0.00  0.00    +0.000 A 
ATOM     12  C   UNL     1       2.840   7.063  18.349  0.00  0.00    +0.000 A 
ATOM     13 CL   UNL     1       3.711   5.702  17.763  0.00  0.00    +0.000 Cl
ATOM     14  C   UNL     1       2.712   8.198  17.560  0.00  0.00    +0.000 A 
ATOM     15  C   UNL     1       1.988   9.299  18.037  0.00  0.00    +0.000 A 
ENDBRANCH   1   9
BRANCH   1  16
ATOM     16  C   UNL     1       1.406  11.802  19.713  0.00  0.00    +0.000 A 
ATOM     17  C   UNL     1       1.701  12.740  20.743  0.00  0.00    +0.000 A 
ATOM     18  N   UNL     1       2.548  13.698  20.360  0.00  0.00    +0.000 NA
ATOM     19  N   UNL     1       2.724  13.465  19.056  0.00  0.00    +0.000 N 
ATOM     20  C   UNL     1       2.000  12.402  18.604  0.00  0.00    +0.000 A 
ATOM     21  H   UNL     1       3.346  14.071  18.531  0.00  0.00    +0.000 HD
ENDBRANCH   1  16
BRANCH   1  22
ATOM     22  N   UNL     1       0.113  10.450  21.209  0.00  0.00    +0.000 N 
ATOM     23  C   UNL     1      -1.033  10.948  21.790  0.00  0.00    +0.000 A 
ATOM     24  C   UNL     1      -0.926  10.669  23.130  0.00  0.00    +0.000 A 
ATOM     25  N   UNL     1       0.184   9.913  23.373  0.00  0.00    +0.000 NA
ATOM     26  C   UNL     1       0.745   9.734  22.200  0.00  0.00    +0.000 A 
ENDBRANCH   1  22
TORSDOF 4
ENDMDL
MODEL 7
REMARK VINA RESULT:      -7.1      2.511      5.035
REMARK  Name = 
REMARK  4 active torsions:
REMARK  status: ('A' for Active; 'I' for Inactive)
REMARK    1  A    between atoms: C_5  and  C_6
REMARK    2  A    between atoms: C_6  and  C_7
REMARK    3  A    between atoms: C_6  and  C_14
REMARK    4  A    between atoms: C_6  and  N_19
REMARK                            x       y       z     vdW  Elec       q    Type
REMARK                         _______ _______ _______ _____ _____    ______ ____
ROOT
ATOM      1  C   UNL     1       0.163  10.749  19.682  0.00  0.00    +0.000 C 
ENDROOT
BRANCH   1   6
ATOM      2 CL   UNL     1      -4.516  11.053  15.770  0.00  0.00    +0.000 Cl
ATOM      3  C   UNL     1      -3.263  10.865  16.931  0.00  0.00    +0.000 A 
ATOM      4  C   UNL     1      -3.304  11.578  18.123  0.00  0.00    +0.000 A 
ATOM      5  C   UNL     1      -2.240  11.490  19.028  0.00  0.00    +0.000 A 
ATOM      6  C   UNL     1      -1.089  10.720  18.742  0.00  0.00    +0.000 A 
ATOM      7  C   UNL     1      -1.156   9.894  17.593  0.00  0.00    +0.000 A 
ATOM      8  C   UNL     1      -2.207  10.000  16.675  0.00  0.00    +0.000 A 
ENDBRANCH   1   6
BRANCH   1   9
ATOM      9  C   UNL     1       1.069   9.529  19.310  0.00  0.00    +0.000 A 
ATOM     10  C   UNL     1       1.334   8.458  20.187  0.00  0.00    +0.000 A 
ATOM     11  C   UNL     1       2.139   7.374  19.805  0.00  0.00    +0.000 A 
ATOM     12  C   UNL     1       2.749   7.363  18.557  0.00  0.00    +0.000 A 
ATOM     13 CL   UNL     1       3.729   6.031  18.089  0.00  0.00    +0.000 Cl
ATOM     14  C   UNL     1       2.578   8.437  17.695  0.00  0.00    +0.000 A 
ATOM     15  C   UNL     1       1.765   9.513  18.075  0.00  0.00    +0.000 A 
ENDBRANCH   1   9
BRANCH   1  16
ATOM     16  C   UNL     1       0.912  12.075  19.439  0.00  0.00    +0.000 A 
ATOM     17  C   UNL     1       2.018  12.622  20.151  0.00  0.00    +0.000 A 
ATOM     18  N   UNL     1       2.463  13.770  19.635  0.00  0.00    +0.000 NA
ATOM     19  N   UNL     1       1.589  14.042  18.661  0.00  0.00    +0.000 N 
ATOM     20  C   UNL     1       0.600  13.110  18.560  0.00  0.00    +0.000 A 
ATOM     21  H   UNL     1       1.723  14.881  18.106  0.00  0.00    +0.000 HD
ENDBRANCH   1  16
BRANCH   1  22
ATOM     22  N   UNL     1      -0.198  10.794  21.131  0.00  0.00    +0.000 N 
ATOM     23  C   UNL     1      -0.352   9.736  22.002  0.00  0.00    +0.000 A 
ATOM     24  C   UNL     1      -0.742  10.287  23.197  0.00  0.00    +0.000 A 
ATOM     25  N   UNL     1      -0.715  11.650  23.126  0.00  0.00    +0.000 NA
ATOM     26  C   UNL     1      -0.316  11.926  21.905  0.00  0.00    +0.000 A 
ENDBRANCH   1  22
TORSDOF 4
ENDMDL
MODEL 8
REMARK VINA RESULT:      -7.1      2.489      4.780
REMARK  Name = 
REMARK  4 active torsions:
REMARK  status: ('A' for Active; 'I' for Inactive)
REMARK    1  A    between atoms: C_5  and  C_6
REMARK    2  A    between atoms: C_6  and  C_7
REMARK    3  A    between atoms: C_6  and  C_14
REMARK    4  A    between atoms: C_6  and  N_19
REMARK                            x       y       z     vdW  Elec       q    Type
REMARK                         _______ _______ _______ _____ _____    ______ ____
ROOT
ATOM      1  C   UNL     1       0.199  10.869  19.777  0.00  0.00    +0.000 C 
ENDROOT
BRANCH   1   6
ATOM      2 CL   UNL     1       3.350   5.942  18.020  0.00  0.00    +0.000 Cl
ATOM      3  C   UNL     1       2.578   7.380  18.562  0.00  0.00    +0.000 A 
ATOM      4  C   UNL     1       2.041   7.443  19.841  0.00  0.00    +0.000 A 
ATOM      5  C   UNL     1       1.337   8.582  20.249  0.00  0.00    +0.000 A 
ATOM      6  C   UNL     1       1.118   9.668  19.371  0.00  0.00    +0.000 A 
ATOM      7  C   UNL     1       1.810   9.626  18.136  0.00  0.00    +0.000 A 
ATOM      8  C   UNL     1       2.492   8.478  17.717  0.00  0.00    +0.000 A 
ENDBRANCH   1   6
BRANCH   1   9
ATOM      9  C   UNL     1      -1.035  10.873  18.817  0.00  0.00    +0.000 A 
ATOM     10  C   UNL     1      -2.204  11.627  19.051  0.00  0.00    +0.000 A 
ATOM     11  C   UNL     1      -3.281  11.615  18.153  0.00  0.00    +0.000 A 
ATOM     12  C   UNL     1      -3.243  10.801  17.027  0.00  0.00    +0.000 A 
ATOM     13 CL   UNL     1      -4.562  10.793  15.925  0.00  0.00    +0.000 Cl
ATOM     14  C   UNL     1      -2.144   9.983  16.802  0.00  0.00    +0.000 A 
ATOM     15  C   UNL     1      -1.065  10.006  17.696  0.00  0.00    +0.000 A 
ENDBRANCH   1   9
BRANCH   1  16
ATOM     16  C   UNL     1      -0.250  10.655  21.237  0.00  0.00    +0.000 A 
ATOM     17  C   UNL     1      -0.605  11.626  22.217  0.00  0.00    +0.000 A 
ATOM     18  N   UNL     1      -1.007  11.090  23.371  0.00  0.00    +0.000 NA
ATOM     19  N   UNL     1      -0.811   9.779  23.199  0.00  0.00    +0.000 N 
ATOM     20  C   UNL     1      -0.282   9.477  21.980  0.00  0.00    +0.000 A 
ATOM     21  H   UNL     1      -1.054   9.146  23.955  0.00  0.00    +0.000 HD
ENDBRANCH   1  16
BRANCH   1  22
ATOM     22  N   UNL     1       0.926  12.174  19.807  0.00  0.00    +0.000 N 
ATOM     23  C   UNL     1       2.009  12.526  20.583  0.00  0.00    +0.000 A 
ATOM     24  C   UNL     1       2.271  13.841  20.289  0.00  0.00    +0.000 A 
ATOM     25  N   UNL     1       1.466  14.273  19.274  0.00  0.00    +0.000 NA
ATOM     26  C   UNL     1       0.725  13.237  18.955  0.00  0.00    +0.000 A 
ENDBRANCH   1  22
TORSDOF 4
ENDMDL
MODEL 9
REMARK VINA RESULT:      -7.1      2.588      5.009
REMARK  Name = 
REMARK  4 active torsions:
REMARK  status: ('A' for Active; 'I' for Inactive)
REMARK    1  A    between atoms: C_5  and  C_6
REMARK    2  A    between atoms: C_6  and  C_7
REMARK    3  A    between atoms: C_6  and  C_14
REMARK    4  A    between atoms: C_6  and  N_19
REMARK                            x       y       z     vdW  Elec       q    Type
REMARK                         _______ _______ _______ _____ _____    ______ ____
ROOT
ATOM      1  C   UNL     1       0.547  10.441  19.789  0.00  0.00    +0.000 C 
ENDROOT
BRANCH   1   6
ATOM      2 CL   UNL     1      -4.160  11.269  15.987  0.00  0.00    +0.000 Cl
ATOM      3  C   UNL     1      -2.912  10.951  17.127  0.00  0.00    +0.000 A 
ATOM      4  C   UNL     1      -2.787  11.742  18.262  0.00  0.00    +0.000 A 
ATOM      5  C   UNL     1      -1.719  11.537  19.143  0.00  0.00    +0.000 A 
ATOM      6  C   UNL     1      -0.727  10.562  18.887  0.00  0.00    +0.000 A 
ATOM      7  C   UNL     1      -0.977   9.682  17.805  0.00  0.00    +0.000 A 
ATOM      8  C   UNL     1      -2.029   9.902  16.910  0.00  0.00    +0.000 A 
ENDBRANCH   1   6
BRANCH   1   9
ATOM      9  C   UNL     1       1.412   9.260  19.239  0.00  0.00    +0.000 A 
ATOM     10  C   UNL     1       2.017   9.261  17.966  0.00  0.00    +0.000 A 
ATOM     11  C   UNL     1       2.800   8.187  17.519  0.00  0.00    +0.000 A 
ATOM     12  C   UNL     1       2.950   7.056  18.312  0.00  0.00    +0.000 A 
ATOM     13 CL   UNL     1       3.916   5.743  17.766  0.00  0.00    +0.000 Cl
ATOM     14  C   UNL     1       2.306   6.981  19.539  0.00  0.00    +0.000 A 
ATOM     15  C   UNL     1       1.532   8.061  19.986  0.00  0.00    +0.000 A 
ENDBRANCH   1   9
BRANCH   1  16
ATOM     16  C   UNL     1       1.325  11.771  19.698  0.00  0.00    +0.000 A 
ATOM     17  C   UNL     1       1.636  12.698  20.734  0.00  0.00    +0.000 A 
ATOM     18  N   UNL     1       2.381  13.725  20.317  0.00  0.00    +0.000 NA
ATOM     19  N   UNL     1       2.466  13.542  18.995  0.00  0.00    +0.000 N 
ATOM     20  C   UNL     1       1.784  12.442  18.567  0.00  0.00    +0.000 A 
ATOM     21  H   UNL     1       3.000  14.206  18.444  0.00  0.00    +0.000 HD
ENDBRANCH   1  16
BRANCH   1  22
ATOM     22  N   UNL     1       0.222  10.307  21.241  0.00  0.00    +0.000 N 
ATOM     23  C   UNL     1      -0.921  10.711  21.896  0.00  0.00    +0.000 A 
ATOM     24  C   UNL     1      -0.717  10.422  23.222  0.00  0.00    +0.000 A 
ATOM     25  N   UNL     1       0.458   9.746  23.387  0.00  0.00    +0.000 NA
ATOM     26  C   UNL     1       0.961   9.625  22.180  0.00  0.00    +0.000 A 
ENDBRANCH   1  22
TORSDOF 4
ENDMDL
