MODEL 1
REMARK VINA RESULT:      -6.3      0.000      0.000
REMARK  Name = 
REMARK  11 active torsions:
REMARK  status: ('A' for Active; 'I' for Inactive)
REMARK    1  A    between atoms: C_1  and  C_2
REMARK    2  A    between atoms: C_3  and  C_4
REMARK    3  A    between atoms: C_3  and  C_5
REMARK    4  A    between atoms: C_5  and  N_6
REMARK    5  A    between atoms: N_6  and  C_7
REMARK    6  A    between atoms: N_6  and  C_8
REMARK    7  A    between atoms: C_8  and  C_9
REMARK    8  A    between atoms: C_9  and  C_10
REMARK    9  A    between atoms: C_10  and  C_11
REMARK   10  A    between atoms: C_12  and  C_13
REMARK   11  A    between atoms: C_16  and  C_17
REMARK                            x       y       z     vdW  Elec       q    Type
REMARK                         _______ _______ _______ _____ _____    ______ ____
ROOT
ATOM      1  C   UNL     1       4.207   5.275  17.759  0.00  0.00    +0.000 C 
ENDROOT
BRANCH   1   2
ATOM      2  C   UNL     1       4.846   4.391  16.678  0.00  0.00    +0.000 C 
BRANCH   2   3
ATOM      3  N   UNL     1       6.094   4.939  16.101  0.00  0.00    +0.000 NA
ATOM      4  C   UNL     1       6.375   4.259  14.831  0.00  0.00    +0.000 C 
BRANCH   3   5
ATOM      5  C   UNL     1       7.205   4.794  17.055  0.00  0.00    +0.000 C 
BRANCH   5   8
ATOM      6  C   UNL     1       7.929   8.530  17.894  0.00  0.00    +0.000 C 
ATOM      7  C   UNL     1       7.595   7.235  17.239  0.00  0.00    +0.000 C 
ATOM      8  C   UNL     1       7.555   6.030  17.853  0.00  0.00    +0.000 C 
ATOM      9  C   UNL     1       7.909   5.834  19.303  0.00  0.00    +0.000 C 
ENDBRANCH   5   8
ENDBRANCH   3   5
ENDBRANCH   2   3
ENDBRANCH   1   2
BRANCH   1  10
ATOM     10  C   UNL     1       4.279   4.646  19.151  0.00  0.00    +0.000 C 
BRANCH  10  11
ATOM     11  C   UNL     1       3.017   3.929  19.496  0.00  0.00    +0.000 A 
ATOM     12  C   UNL     1       1.866   4.450  20.153  0.00  0.00    +0.000 A 
ATOM     13  C   UNL     1       1.632   5.823  20.657  0.00  0.00    +0.000 C 
ATOM     14  N   UNL     1       0.917   3.518  20.301  0.00  0.00    +0.000 NA
ATOM     15  N   UNL     1       1.445   2.416  19.752  0.00  0.00    +0.000 N 
ATOM     16  C   UNL     1       2.699   2.607  19.243  0.00  0.00    +0.000 A 
ATOM     17  C   UNL     1       3.453   1.525  18.570  0.00  0.00    +0.000 C 
ATOM     18  H   UNL     1       0.897   1.569  19.763  0.00  0.00    +0.000 HD
ENDBRANCH  10  11
ENDBRANCH   1  10
TORSDOF 6
ENDMDL
MODEL 2
REMARK VINA RESULT:      -6.2      1.758      2.342
REMARK  Name = 
REMARK  11 active torsions:
REMARK  status: ('A' for Active; 'I' for Inactive)
REMARK    1  A    between atoms: C_1  and  C_2
REMARK    2  A    between atoms: C_3  and  C_4
REMARK    3  A    between atoms: C_3  and  C_5
REMARK    4  A    between atoms: C_5  and  N_6
REMARK    5  A    between atoms: N_6  and  C_7
REMARK    6  A    between atoms: N_6  and  C_8
REMARK    7  A    between atoms: C_8  and  C_9
REMARK    8  A    between atoms: C_9  and  C_10
REMARK    9  A    between atoms: C_10  and  C_11
REMARK   10  A    between atoms: C_12  and  C_13
REMARK   11  A    between atoms: C_16  and  C_17
REMARK                            x       y       z     vdW  Elec       q    Type
REMARK                         _______ _______ _______ _____ _____    ______ ____
ROOT
ATOM      1  C   UNL     1       3.697   3.546  17.792  0.00  0.00    +0.000 C 
ENDROOT
BRANCH   1   2
ATOM      2  C   UNL     1       4.575   3.694  16.541  0.00  0.00    +0.000 C 
BRANCH   2   3
ATOM      3  N   UNL     1       5.605   4.752  16.639  0.00  0.00    +0.000 NA
ATOM      4  C   UNL     1       6.728   4.413  15.757  0.00  0.00    +0.000 C 
BRANCH   3   5
ATOM      5  C   UNL     1       6.038   4.916  18.036  0.00  0.00    +0.000 C 
BRANCH   5   8
ATOM      6  C   UNL     1       7.917   8.310  17.674  0.00  0.00    +0.000 C 
ATOM      7  C   UNL     1       6.999   7.146  17.538  0.00  0.00    +0.000 C 
ATOM      8  C   UNL     1       7.035   6.023  18.292  0.00  0.00    +0.000 C 
ATOM      9  C   UNL     1       8.075   5.779  19.354  0.00  0.00    +0.000 C 
ENDBRANCH   5   8
ENDBRANCH   3   5
ENDBRANCH   2   3
ENDBRANCH   1   2
BRANCH   1  10
ATOM     10  C   UNL     1       2.394   4.341  17.693  0.00  0.00    +0.000 C 
BRANCH  10  11
ATOM     11  C   UNL     1       2.257   5.311  18.818  0.00  0.00    +0.000 A 
ATOM     12  C   UNL     1       2.600   6.693  18.830  0.00  0.00    +0.000 A 
ATOM     13  C   UNL     1       3.178   7.510  17.738  0.00  0.00    +0.000 C 
ATOM     14  N   UNL     1       2.343   7.256  20.016  0.00  0.00    +0.000 NA
ATOM     15  N   UNL     1       1.843   6.258  20.757  0.00  0.00    +0.000 N 
ATOM     16  C   UNL     1       1.758   5.071  20.086  0.00  0.00    +0.000 A 
ATOM     17  C   UNL     1       1.211   3.845  20.712  0.00  0.00    +0.000 C 
ATOM     18  H   UNL     1       1.585   6.456  21.712  0.00  0.00    +0.000 HD
ENDBRANCH  10  11
ENDBRANCH   1  10
TORSDOF 6
ENDMDL
MODEL 3
REMARK VINA RESULT:      -6.2      1.246      2.281
REMARK  Name = 
REMARK  11 active torsions:
REMARK  status: ('A' for Active; 'I' for Inactive)
REMARK    1  A    between atoms: C_1  and  C_2
REMARK    2  A    between atoms: C_3  and  C_4
REMARK    3  A    between atoms: C_3  and  C_5
REMARK    4  A    between atoms: C_5  and  N_6
REMARK    5  A    between atoms: N_6  and  C_7
REMARK    6  A    between atoms: N_6  and  C_8
REMARK    7  A    between atoms: C_8  and  C_9
REMARK    8  A    between atoms: C_9  and  C_10
REMARK    9  A    between atoms: C_10  and  C_11
REMARK   10  A    between atoms: C_12  and  C_13
REMARK   11  A    between atoms: C_16  and  C_17
REMARK                            x       y       z     vdW  Elec       q    Type
REMARK                         _______ _______ _______ _____ _____    ______ ____
ROOT
ATOM      1  C   UNL     1       4.365   4.368  17.320  0.00  0.00    +0.000 C 
ENDROOT
BRANCH   1   2
ATOM      2  C   UNL     1       4.832   5.012  16.007  0.00  0.00    +0.000 C 
BRANCH   2   3
ATOM      3  N   UNL     1       6.290   5.260  15.934  0.00  0.00    +0.000 NA
ATOM      4  C   UNL     1       6.856   4.474  14.831  0.00  0.00    +0.000 C 
BRANCH   3   5
ATOM      5  C   UNL     1       6.929   4.937  17.219  0.00  0.00    +0.000 C 
BRANCH   5   8
ATOM      6  C   UNL     1       8.127   8.556  18.027  0.00  0.00    +0.000 C 
ATOM      7  C   UNL     1       7.594   7.319  17.393  0.00  0.00    +0.000 C 
ATOM      8  C   UNL     1       7.486   6.111  17.993  0.00  0.00    +0.000 C 
ATOM      9  C   UNL     1       7.959   5.845  19.398  0.00  0.00    +0.000 C 
ENDBRANCH   5   8
ENDBRANCH   3   5
ENDBRANCH   2   3
ENDBRANCH   1   2
BRANCH   1  10
ATOM     10  C   UNL     1       2.870   4.569  17.574  0.00  0.00    +0.000 C 
BRANCH  10  11
ATOM     11  C   UNL     1       2.594   4.877  19.007  0.00  0.00    +0.000 A 
ATOM     12  C   UNL     1       2.481   3.964  20.094  0.00  0.00    +0.000 A 
ATOM     13  C   UNL     1       2.608   2.488  20.077  0.00  0.00    +0.000 C 
ATOM     14  N   UNL     1       2.223   4.595  21.246  0.00  0.00    +0.000 NA
ATOM     15  N   UNL     1       2.169   5.891  20.909  0.00  0.00    +0.000 N 
ATOM     16  C   UNL     1       2.395   6.120  19.582  0.00  0.00    +0.000 A 
ATOM     17  C   UNL     1       2.405   7.484  19.004  0.00  0.00    +0.000 C 
ATOM     18  H   UNL     1       1.970   6.563  21.635  0.00  0.00    +0.000 HD
ENDBRANCH  10  11
ENDBRANCH   1  10
TORSDOF 6
ENDMDL
MODEL 4
REMARK VINA RESULT:      -6.1      2.072      6.288
REMARK  Name = 
REMARK  11 active torsions:
REMARK  status: ('A' for Active; 'I' for Inactive)
REMARK    1  A    between atoms: C_1  and  C_2
REMARK    2  A    between atoms: C_3  and  C_4
REMARK    3  A    between atoms: C_3  and  C_5
REMARK    4  A    between atoms: C_5  and  N_6
REMARK    5  A    between atoms: N_6  and  C_7
REMARK    6  A    between atoms: N_6  and  C_8
REMARK    7  A    between atoms: C_8  and  C_9
REMARK    8  A    between atoms: C_9  and  C_10
REMARK    9  A    between atoms: C_10  and  C_11
REMARK   10  A    between atoms: C_12  and  C_13
REMARK   11  A    between atoms: C_16  and  C_17
REMARK                            x       y       z     vdW  Elec       q    Type
REMARK                         _______ _______ _______ _____ _____    ______ ____
ROOT
ATOM      1  C   UNL     1       3.849   6.106  17.737  0.00  0.00    +0.000 C 
ENDROOT
BRANCH   1   2
ATOM      2  C   UNL     1       2.829   7.113  18.287  0.00  0.00    +0.000 C 
BRANCH   2   3
ATOM      3  N   UNL     1       2.072   6.633  19.466  0.00  0.00    +0.000 NA
ATOM      4  C   UNL     1       1.876   7.750  20.398  0.00  0.00    +0.000 C 
BRANCH   3   5
ATOM      5  C   UNL     1       2.776   5.508  20.102  0.00  0.00    +0.000 C 
BRANCH   5   8
ATOM      6  C   UNL     1       0.644   2.470  18.918  0.00  0.00    +0.000 C 
ATOM      7  C   UNL     1       1.421   3.735  19.023  0.00  0.00    +0.000 C 
ATOM      8  C   UNL     1       2.024   4.198  20.143  0.00  0.00    +0.000 C 
ATOM      9  C   UNL     1       1.933   3.499  21.474  0.00  0.00    +0.000 C 
ENDBRANCH   5   8
ENDBRANCH   3   5
ENDBRANCH   2   3
ENDBRANCH   1   2
BRANCH   1  10
ATOM     10  C   UNL     1       5.134   6.778  17.250  0.00  0.00    +0.000 C 
BRANCH  10  11
ATOM     11  C   UNL     1       6.228   5.785  17.043  0.00  0.00    +0.000 A 
ATOM     12  C   UNL     1       6.515   5.030  15.870  0.00  0.00    +0.000 A 
ATOM     13  C   UNL     1       5.805   5.038  14.570  0.00  0.00    +0.000 C 
ATOM     14  N   UNL     1       7.574   4.230  16.043  0.00  0.00    +0.000 NA
ATOM     15  N   UNL     1       7.963   4.464  17.304  0.00  0.00    +0.000 N 
ATOM     16  C   UNL     1       7.199   5.395  17.947  0.00  0.00    +0.000 A 
ATOM     17  C   UNL     1       7.473   5.819  19.340  0.00  0.00    +0.000 C 
ATOM     18  H   UNL     1       8.755   3.949  17.660  0.00  0.00    +0.000 HD
ENDBRANCH  10  11
ENDBRANCH   1  10
TORSDOF 6
ENDMDL
MODEL 5
REMARK VINA RESULT:      -6.0      1.554      5.905
REMARK  Name = 
REMARK  11 active torsions:
REMARK  status: ('A' for Active; 'I' for Inactive)
REMARK    1  A    between atoms: C_1  and  C_2
REMARK    2  A    between atoms: C_3  and  C_4
REMARK    3  A    between atoms: C_3  and  C_5
REMARK    4  A    between atoms: C_5  and  N_6
REMARK    5  A    between atoms: N_6  and  C_7
REMARK    6  A    between atoms: N_6  and  C_8
REMARK    7  A    between atoms: C_8  and  C_9
REMARK    8  A    between atoms: C_9  and  C_10
REMARK    9  A    between atoms: C_10  and  C_11
REMARK   10  A    between atoms: C_12  and  C_13
REMARK   11  A    between atoms: C_16  and  C_17
REMARK                            x       y       z     vdW  Elec       q    Type
REMARK                         _______ _______ _______ _____ _____    ______ ____
ROOT
ATOM      1  C   UNL     1       4.744   3.192  17.526  0.00  0.00    +0.000 C 
ENDROOT
BRANCH   1   2
ATOM      2  C   UNL     1       4.210   3.675  18.882  0.00  0.00    +0.000 C 
BRANCH   2   3
ATOM      3  N   UNL     1       2.861   3.170  19.222  0.00  0.00    +0.000 NA
ATOM      4  C   UNL     1       2.697   1.822  18.666  0.00  0.00    +0.000 C 
BRANCH   3   5
ATOM      5  C   UNL     1       1.829   4.095  18.724  0.00  0.00    +0.000 C 
BRANCH   5   8
ATOM      6  C   UNL     1       2.565   7.900  18.319  0.00  0.00    +0.000 C 
ATOM      7  C   UNL     1       2.341   6.442  18.114  0.00  0.00    +0.000 C 
ATOM      8  C   UNL     1       2.021   5.551  19.081  0.00  0.00    +0.000 C 
ATOM      9  C   UNL     1       1.906   5.923  20.536  0.00  0.00    +0.000 C 
ENDBRANCH   5   8
ENDBRANCH   3   5
ENDBRANCH   2   3
ENDBRANCH   1   2
BRANCH   1  10
ATOM     10  C   UNL     1       4.490   4.198  16.402  0.00  0.00    +0.000 C 
BRANCH  10  11
ATOM     11  C   UNL     1       5.758   4.819  15.923  0.00  0.00    +0.000 A 
ATOM     12  C   UNL     1       6.413   4.621  14.674  0.00  0.00    +0.000 A 
ATOM     13  C   UNL     1       6.004   3.755  13.544  0.00  0.00    +0.000 C 
ATOM     14  N   UNL     1       7.538   5.340  14.585  0.00  0.00    +0.000 NA
ATOM     15  N   UNL     1       7.609   5.990  15.755  0.00  0.00    +0.000 N 
ATOM     16  C   UNL     1       6.563   5.724  16.592  0.00  0.00    +0.000 A 
ATOM     17  C   UNL     1       6.434   6.357  17.925  0.00  0.00    +0.000 C 
ATOM     18  H   UNL     1       8.401   6.595  15.916  0.00  0.00    +0.000 HD
ENDBRANCH  10  11
ENDBRANCH   1  10
TORSDOF 6
ENDMDL
MODEL 6
REMARK VINA RESULT:      -6.0      1.891      2.498
REMARK  Name = 
REMARK  11 active torsions:
REMARK  status: ('A' for Active; 'I' for Inactive)
REMARK    1  A    between atoms: C_1  and  C_2
REMARK    2  A    between atoms: C_3  and  C_4
REMARK    3  A    between atoms: C_3  and  C_5
REMARK    4  A    between atoms: C_5  and  N_6
REMARK    5  A    between atoms: N_6  and  C_7
REMARK    6  A    between atoms: N_6  and  C_8
REMARK    7  A    between atoms: C_8  and  C_9
REMARK    8  A    between atoms: C_9  and  C_10
REMARK    9  A    between atoms: C_10  and  C_11
REMARK   10  A    between atoms: C_12  and  C_13
REMARK   11  A    between atoms: C_16  and  C_17
REMARK                            x       y       z     vdW  Elec       q    Type
REMARK                         _______ _______ _______ _____ _____    ______ ____
ROOT
ATOM      1  C   UNL     1       4.153   4.739  17.805  0.00  0.00    +0.000 C 
ENDROOT
BRANCH   1   2
ATOM      2  C   UNL     1       4.967   5.754  16.990  0.00  0.00    +0.000 C 
BRANCH   2   3
ATOM      3  N   UNL     1       6.044   5.154  16.169  0.00  0.00    +0.000 NA
ATOM      4  C   UNL     1       5.603   3.841  15.684  0.00  0.00    +0.000 C 
BRANCH   3   5
ATOM      5  C   UNL     1       7.289   5.060  16.948  0.00  0.00    +0.000 C 
BRANCH   5   8
ATOM      6  C   UNL     1       8.054   8.725  18.025  0.00  0.00    +0.000 C 
ATOM      7  C   UNL     1       7.739   7.475  17.282  0.00  0.00    +0.000 C 
ATOM      8  C   UNL     1       7.606   6.245  17.831  0.00  0.00    +0.000 C 
ATOM      9  C   UNL     1       7.824   5.971  19.296  0.00  0.00    +0.000 C 
ENDBRANCH   5   8
ENDBRANCH   3   5
ENDBRANCH   2   3
ENDBRANCH   1   2
BRANCH   1  10
ATOM     10  C   UNL     1       2.661   5.074  17.839  0.00  0.00    +0.000 C 
BRANCH  10  11
ATOM     11  C   UNL     1       2.328   5.981  18.975  0.00  0.00    +0.000 A 
ATOM     12  C   UNL     1       2.243   7.402  18.965  0.00  0.00    +0.000 A 
ATOM     13  C   UNL     1       2.464   8.333  17.834  0.00  0.00    +0.000 C 
ATOM     14  N   UNL     1       1.922   7.887  20.170  0.00  0.00    +0.000 NA
ATOM     15  N   UNL     1       1.802   6.800  20.944  0.00  0.00    +0.000 N 
ATOM     16  C   UNL     1       2.024   5.629  20.277  0.00  0.00    +0.000 A 
ATOM     17  C   UNL     1       1.918   4.308  20.940  0.00  0.00    +0.000 C 
ATOM     18  H   UNL     1       1.572   6.932  21.918  0.00  0.00    +0.000 HD
ENDBRANCH  10  11
ENDBRANCH   1  10
TORSDOF 6
ENDMDL
MODEL 7
REMARK VINA RESULT:      -6.0      1.877      6.223
REMARK  Name = 
REMARK  11 active torsions:
REMARK  status: ('A' for Active; 'I' for Inactive)
REMARK    1  A    between atoms: C_1  and  C_2
REMARK    2  A    between atoms: C_3  and  C_4
REMARK    3  A    between atoms: C_3  and  C_5
REMARK    4  A    between atoms: C_5  and  N_6
REMARK    5  A    between atoms: N_6  and  C_7
REMARK    6  A    between atoms: N_6  and  C_8
REMARK    7  A    between atoms: C_8  and  C_9
REMARK    8  A    between atoms: C_9  and  C_10
REMARK    9  A    between atoms: C_10  and  C_11
REMARK   10  A    between atoms: C_12  and  C_13
REMARK   11  A    between atoms: C_16  and  C_17
REMARK                            x       y       z     vdW  Elec       q    Type
REMARK                         _______ _______ _______ _____ _____    ______ ____
ROOT
ATOM      1  C   UNL     1       3.772   4.192  16.709  0.00  0.00    +0.000 C 
ENDROOT
BRANCH   1   2
ATOM      2  C   UNL     1       3.823   5.572  17.382  0.00  0.00    +0.000 C 
BRANCH   2   3
ATOM      3  N   UNL     1       2.893   5.730  18.522  0.00  0.00    +0.000 NA
ATOM      4  C   UNL     1       2.479   7.135  18.614  0.00  0.00    +0.000 C 
BRANCH   3   5
ATOM      5  C   UNL     1       3.527   5.265  19.767  0.00  0.00    +0.000 C 
BRANCH   5   8
ATOM      6  C   UNL     1       1.315   2.718  21.716  0.00  0.00    +0.000 C 
ATOM      7  C   UNL     1       1.921   3.932  21.104  0.00  0.00    +0.000 C 
ATOM      8  C   UNL     1       3.019   3.951  20.314  0.00  0.00    +0.000 C 
ATOM      9  C   UNL     1       3.823   2.718  19.994  0.00  0.00    +0.000 C 
ENDBRANCH   5   8
ENDBRANCH   3   5
ENDBRANCH   2   3
ENDBRANCH   1   2
BRANCH   1  10
ATOM     10  C   UNL     1       5.143   3.516  16.651  0.00  0.00    +0.000 C 
BRANCH  10  11
ATOM     11  C   UNL     1       6.153   4.382  15.976  0.00  0.00    +0.000 A 
ATOM     12  C   UNL     1       6.384   4.534  14.580  0.00  0.00    +0.000 A 
ATOM     13  C   UNL     1       5.686   3.875  13.451  0.00  0.00    +0.000 C 
ATOM     14  N   UNL     1       7.378   5.395  14.333  0.00  0.00    +0.000 NA
ATOM     15  N   UNL     1       7.782   5.793  15.547  0.00  0.00    +0.000 N 
ATOM     16  C   UNL     1       7.075   5.225  16.569  0.00  0.00    +0.000 A 
ATOM     17  C   UNL     1       7.344   5.546  17.991  0.00  0.00    +0.000 C 
ATOM     18  H   UNL     1       8.547   6.448  15.604  0.00  0.00    +0.000 HD
ENDBRANCH  10  11
ENDBRANCH   1  10
TORSDOF 6
ENDMDL
MODEL 8
REMARK VINA RESULT:      -5.9      1.894      5.723
REMARK  Name = 
REMARK  11 active torsions:
REMARK  status: ('A' for Active; 'I' for Inactive)
REMARK    1  A    between atoms: C_1  and  C_2
REMARK    2  A    between atoms: C_3  and  C_4
REMARK    3  A    between atoms: C_3  and  C_5
REMARK    4  A    between atoms: C_5  and  N_6
REMARK    5  A    between atoms: N_6  and  C_7
REMARK    6  A    between atoms: N_6  and  C_8
REMARK    7  A    between atoms: C_8  and  C_9
REMARK    8  A    between atoms: C_9  and  C_10
REMARK    9  A    between atoms: C_10  and  C_11
REMARK   10  A    between atoms: C_12  and  C_13
REMARK   11  A    between atoms: C_16  and  C_17
REMARK                            x       y       z     vdW  Elec       q    Type
REMARK                         _______ _______ _______ _____ _____    ______ ____
ROOT
ATOM      1  C   UNL     1       3.378   3.691  16.752  0.00  0.00    +0.000 C 
ENDROOT
BRANCH   1   2
ATOM      2  C   UNL     1       2.846   3.087  18.060  0.00  0.00    +0.000 C 
BRANCH   2   3
ATOM      3  N   UNL     1       3.881   2.446  18.902  0.00  0.00    +0.000 NA
ATOM      4  C   UNL     1       3.932   1.013  18.594  0.00  0.00    +0.000 C 
BRANCH   3   5
ATOM      5  C   UNL     1       3.602   2.689  20.327  0.00  0.00    +0.000 C 
BRANCH   5   8
ATOM      6  C   UNL     1       1.640   6.030  20.728  0.00  0.00    +0.000 C 
ATOM      7  C   UNL     1       2.658   4.976  20.468  0.00  0.00    +0.000 C 
ATOM      8  C   UNL     1       2.470   3.645  20.625  0.00  0.00    +0.000 C 
ATOM      9  C   UNL     1       1.191   3.052  21.153  0.00  0.00    +0.000 C 
ENDBRANCH   5   8
ENDBRANCH   3   5
ENDBRANCH   2   3
ENDBRANCH   1   2
BRANCH   1  10
ATOM     10  C   UNL     1       4.113   5.014  16.972  0.00  0.00    +0.000 C 
BRANCH  10  11
ATOM     11  C   UNL     1       5.592   4.837  16.916  0.00  0.00    +0.000 A 
ATOM     12  C   UNL     1       6.395   4.526  15.782  0.00  0.00    +0.000 A 
ATOM     13  C   UNL     1       5.968   4.301  14.382  0.00  0.00    +0.000 C 
ATOM     14  N   UNL     1       7.692   4.438  16.103  0.00  0.00    +0.000 NA
ATOM     15  N   UNL     1       7.726   4.687  17.419  0.00  0.00    +0.000 N 
ATOM     16  C   UNL     1       6.497   4.944  17.957  0.00  0.00    +0.000 A 
ATOM     17  C   UNL     1       6.313   5.268  19.391  0.00  0.00    +0.000 C 
ATOM     18  H   UNL     1       8.620   4.662  17.885  0.00  0.00    +0.000 HD
ENDBRANCH  10  11
ENDBRANCH   1  10
TORSDOF 6
ENDMDL
MODEL 9
REMARK VINA RESULT:      -5.9      1.881      5.993
REMARK  Name = 
REMARK  11 active torsions:
REMARK  status: ('A' for Active; 'I' for Inactive)
REMARK    1  A    between atoms: C_1  and  C_2
REMARK    2  A    between atoms: C_3  and  C_4
REMARK    3  A    between atoms: C_3  and  C_5
REMARK    4  A    between atoms: C_5  and  N_6
REMARK    5  A    between atoms: N_6  and  C_7
REMARK    6  A    between atoms: N_6  and  C_8
REMARK    7  A    between atoms: C_8  and  C_9
REMARK    8  A    between atoms: C_9  and  C_10
REMARK    9  A    between atoms: C_10  and  C_11
REMARK   10  A    between atoms: C_12  and  C_13
REMARK   11  A    between atoms: C_16  and  C_17
REMARK                            x       y       z     vdW  Elec       q    Type
REMARK                         _______ _______ _______ _____ _____    ______ ____
ROOT
ATOM      1  C   UNL     1       4.430   6.918  17.109  0.00  0.00    +0.000 C 
ENDROOT
BRANCH   1   2
ATOM      2  C   UNL     1       3.918   6.049  18.266  0.00  0.00    +0.000 C 
BRANCH   2   3
ATOM      3  N   UNL     1       3.395   4.727  17.852  0.00  0.00    +0.000 NA
ATOM      4  C   UNL     1       1.929   4.775  17.832  0.00  0.00    +0.000 C 
BRANCH   3   5
ATOM      5  C   UNL     1       3.896   3.675  18.751  0.00  0.00    +0.000 C 
BRANCH   5   8
ATOM      6  C   UNL     1       1.545   2.695  21.700  0.00  0.00    +0.000 C 
ATOM      7  C   UNL     1       2.548   3.332  20.803  0.00  0.00    +0.000 C 
ATOM      8  C   UNL     1       2.845   2.932  19.545  0.00  0.00    +0.000 C 
ATOM      9  C   UNL     1       2.225   1.722  18.898  0.00  0.00    +0.000 C 
ENDBRANCH   5   8
ENDBRANCH   3   5
ENDBRANCH   2   3
ENDBRANCH   1   2
BRANCH   1  10
ATOM     10  C   UNL     1       5.930   7.202  17.206  0.00  0.00    +0.000 C 
BRANCH  10  11
ATOM     11  C   UNL     1       6.732   5.946  17.139  0.00  0.00    +0.000 A 
ATOM     12  C   UNL     1       6.864   5.049  16.041  0.00  0.00    +0.000 A 
ATOM     13  C   UNL     1       6.242   5.133  14.699  0.00  0.00    +0.000 C 
ATOM     14  N   UNL     1       7.665   4.018  16.337  0.00  0.00    +0.000 NA
ATOM     15  N   UNL     1       8.043   4.246  17.603  0.00  0.00    +0.000 N 
ATOM     16  C   UNL     1       7.523   5.393  18.130  0.00  0.00    +0.000 A 
ATOM     17  C   UNL     1       7.834   5.845  19.506  0.00  0.00    +0.000 C 
ATOM     18  H   UNL     1       8.653   3.575  18.045  0.00  0.00    +0.000 HD
ENDBRANCH  10  11
ENDBRANCH   1  10
TORSDOF 6
ENDMDL
