MODEL 1
REMARK VINA RESULT:      -7.6      0.000      0.000
REMARK  Name = 
REMARK  6 active torsions:
REMARK  status: ('A' for Active; 'I' for Inactive)
REMARK    1  A    between atoms: C_1  and  O_2
REMARK    2  A    between atoms: O_2  and  N_3
REMARK    3  A    between atoms: C_7  and  O_8
REMARK    4  A    between atoms: C_14  and  O_15
REMARK    5  A    between atoms: N_21  and  C_22
REMARK    6  A    between atoms: C_22  and  C_23
REMARK                            x       y       z     vdW  Elec       q    Type
REMARK                         _______ _______ _______ _____ _____    ______ ____
ROOT
ATOM      1  N   UNL     1       1.315   8.014  20.663  0.00  0.00    +0.000 NA
ATOM      2  C   UNL     1       2.182   7.399  19.910  0.00  0.00    +0.000 C 
ATOM      3  C   UNL     1       2.698   7.946  18.574  0.00  0.00    +0.000 C 
ATOM      4  C   UNL     1       2.368   6.925  17.512  0.00  0.00    +0.000 C 
ATOM      5  C   UNL     1       2.938   5.526  17.785  0.00  0.00    +0.000 C 
ATOM      6  C   UNL     1       4.054   4.874  16.903  0.00  0.00    +0.000 C 
ATOM      7  C   UNL     1       4.133   3.317  17.309  0.00  0.00    +0.000 C 
ATOM      8  C   UNL     1       3.403   2.924  18.625  0.00  0.00    +0.000 A 
ATOM      9  C   UNL     1       2.834   1.693  18.958  0.00  0.00    +0.000 A 
ATOM     10  C   UNL     1       2.025   1.587  20.132  0.00  0.00    +0.000 A 
ATOM     11  C   UNL     1       1.749   2.698  20.949  0.00  0.00    +0.000 A 
ATOM     12  C   UNL     1       2.289   3.908  20.608  0.00  0.00    +0.000 A 
ATOM     13  C   UNL     1       3.130   3.965  19.523  0.00  0.00    +0.000 A 
ATOM     14  C   UNL     1       3.513   5.354  19.239  0.00  0.00    +0.000 C 
ATOM     15  C   UNL     1       5.063   5.338  19.411  0.00  0.00    +0.000 C 
ATOM     16  C   UNL     1       5.806   6.016  18.290  0.00  0.00    +0.000 C 
ATOM     17  N   UNL     1       5.299   5.679  16.957  0.00  0.00    +0.000 NA
ATOM     18  C   UNL     1       2.822   6.084  20.402  0.00  0.00    +0.000 C 
ATOM     19  O   UNL     1       2.002   5.145  21.130  0.00  0.00    +0.000 OA
ENDROOT
BRANCH   1  21
ATOM     20  C   UNL     1      -0.082   9.833  20.903  0.00  0.00    +0.000 C 
ATOM     21  O   UNL     1       0.837   9.176  20.040  0.00  0.00    +0.000 OA
ENDBRANCH   1  21
BRANCH   5  22
ATOM     22  O   UNL     1       1.730   4.743  17.501  0.00  0.00    +0.000 OA
ATOM     23  H   UNL     1       1.505   4.864  16.560  0.00  0.00    +0.000 HD
ENDBRANCH   5  22
BRANCH  11  24
ATOM     24  O   UNL     1       0.949   2.611  22.046  0.00  0.00    +0.000 OA
ATOM     25  H   UNL     1       1.150   1.785  22.512  0.00  0.00    +0.000 HD
ENDBRANCH  11  24
BRANCH  17  26
ATOM     26  C   UNL     1       6.406   5.262  16.097  0.00  0.00    +0.000 C 
BRANCH  26  27
ATOM     27  C   UNL     1       6.008   5.153  14.658  0.00  0.00    +0.000 C 
ATOM     28  C   UNL     1       7.049   4.844  13.611  0.00  0.00    +0.000 C 
ATOM     29  C   UNL     1       6.025   3.809  13.981  0.00  0.00    +0.000 C 
ENDBRANCH  26  27
ENDBRANCH  17  26
TORSDOF 5
ENDMDL
MODEL 2
REMARK VINA RESULT:      -6.6      1.980      5.533
REMARK  Name = 
REMARK  6 active torsions:
REMARK  status: ('A' for Active; 'I' for Inactive)
REMARK    1  A    between atoms: C_1  and  O_2
REMARK    2  A    between atoms: O_2  and  N_3
REMARK    3  A    between atoms: C_7  and  O_8
REMARK    4  A    between atoms: C_14  and  O_15
REMARK    5  A    between atoms: N_21  and  C_22
REMARK    6  A    between atoms: C_22  and  C_23
REMARK                            x       y       z     vdW  Elec       q    Type
REMARK                         _______ _______ _______ _____ _____    ______ ____
ROOT
ATOM      1  N   UNL     1       5.577   4.249  15.837  0.00  0.00    +0.000 NA
ATOM      2  C   UNL     1       4.776   5.010  16.525  0.00  0.00    +0.000 C 
ATOM      3  C   UNL     1       5.049   6.487  16.833  0.00  0.00    +0.000 C 
ATOM      4  C   UNL     1       5.062   6.640  18.334  0.00  0.00    +0.000 C 
ATOM      5  C   UNL     1       3.776   6.168  19.027  0.00  0.00    +0.000 C 
ATOM      6  C   UNL     1       2.795   7.143  19.757  0.00  0.00    +0.000 C 
ATOM      7  C   UNL     1       1.772   6.239  20.612  0.00  0.00    +0.000 C 
ATOM      8  C   UNL     1       1.756   4.723  20.263  0.00  0.00    +0.000 A 
ATOM      9  C   UNL     1       1.443   3.651  21.101  0.00  0.00    +0.000 A 
ATOM     10  C   UNL     1       1.687   2.314  20.654  0.00  0.00    +0.000 A 
ATOM     11  C   UNL     1       2.272   2.042  19.405  0.00  0.00    +0.000 A 
ATOM     12  C   UNL     1       2.599   3.095  18.595  0.00  0.00    +0.000 A 
ATOM     13  C   UNL     1       2.278   4.365  19.013  0.00  0.00    +0.000 A 
ATOM     14  C   UNL     1       2.811   5.366  18.079  0.00  0.00    +0.000 C 
ATOM     15  C   UNL     1       1.528   6.089  17.565  0.00  0.00    +0.000 C 
ATOM     16  C   UNL     1       1.631   7.592  17.580  0.00  0.00    +0.000 C 
ATOM     17  N   UNL     1       2.232   8.130  18.804  0.00  0.00    +0.000 NA
ATOM     18  C   UNL     1       3.417   4.455  16.999  0.00  0.00    +0.000 C 
ATOM     19  O   UNL     1       3.346   3.083  17.443  0.00  0.00    +0.000 OA
ENDROOT
BRANCH   1  21
ATOM     20  C   UNL     1       6.992   4.837  14.113  0.00  0.00    +0.000 C 
ATOM     21  O   UNL     1       6.764   4.924  15.513  0.00  0.00    +0.000 OA
ENDBRANCH   1  21
BRANCH   5  22
ATOM     22  O   UNL     1       4.387   5.376  20.100  0.00  0.00    +0.000 OA
ATOM     23  H   UNL     1       3.980   4.489  20.090  0.00  0.00    +0.000 HD
ENDBRANCH   5  22
BRANCH  11  24
ATOM     24  O   UNL     1       2.541   0.775  18.990  0.00  0.00    +0.000 OA
ATOM     25  H   UNL     1       2.903   0.811  18.092  0.00  0.00    +0.000 HD
ENDBRANCH  11  24
BRANCH  17  26
ATOM     26  C   UNL     1       1.379   9.184  19.352  0.00  0.00    +0.000 C 
BRANCH  26  27
ATOM     27  C   UNL     1       0.728  10.011  18.287  0.00  0.00    +0.000 C 
ATOM     28  C   UNL     1      -0.767  10.207  18.296  0.00  0.00    +0.000 C 
ATOM     29  C   UNL     1       0.144  11.352  18.639  0.00  0.00    +0.000 C 
ENDBRANCH  26  27
ENDBRANCH  17  26
TORSDOF 5
ENDMDL
MODEL 3
REMARK VINA RESULT:      -6.4      7.603      9.642
REMARK  Name = 
REMARK  6 active torsions:
REMARK  status: ('A' for Active; 'I' for Inactive)
REMARK    1  A    between atoms: C_1  and  O_2
REMARK    2  A    between atoms: O_2  and  N_3
REMARK    3  A    between atoms: C_7  and  O_8
REMARK    4  A    between atoms: C_14  and  O_15
REMARK    5  A    between atoms: N_21  and  C_22
REMARK    6  A    between atoms: C_22  and  C_23
REMARK                            x       y       z     vdW  Elec       q    Type
REMARK                         _______ _______ _______ _____ _____    ______ ____
ROOT
ATOM      1  N   UNL     1       3.172  14.280  20.560  0.00  0.00    +0.000 NA
ATOM      2  C   UNL     1       2.192  13.563  20.090  0.00  0.00    +0.000 C 
ATOM      3  C   UNL     1       1.998  13.245  18.603  0.00  0.00    +0.000 C 
ATOM      4  C   UNL     1       0.641  13.772  18.203  0.00  0.00    +0.000 C 
ATOM      5  C   UNL     1      -0.522  13.215  19.035  0.00  0.00    +0.000 C 
ATOM      6  C   UNL     1      -1.621  12.274  18.440  0.00  0.00    +0.000 C 
ATOM      7  C   UNL     1      -2.810  12.184  19.523  0.00  0.00    +0.000 C 
ATOM      8  C   UNL     1      -2.468  12.711  20.947  0.00  0.00    +0.000 A 
ATOM      9  C   UNL     1      -3.336  13.262  21.891  0.00  0.00    +0.000 A 
ATOM     10  C   UNL     1      -2.800  13.880  23.064  0.00  0.00    +0.000 A 
ATOM     11  C   UNL     1      -1.414  13.987  23.281  0.00  0.00    +0.000 A 
ATOM     12  C   UNL     1      -0.565  13.465  22.344  0.00  0.00    +0.000 A 
ATOM     13  C   UNL     1      -1.107  12.804  21.268  0.00  0.00    +0.000 A 
ATOM     14  C   UNL     1      -0.057  12.425  20.313  0.00  0.00    +0.000 C 
ATOM     15  C   UNL     1      -0.153  10.868  20.281  0.00  0.00    +0.000 C 
ATOM     16  C   UNL     1      -0.156  10.288  18.891  0.00  0.00    +0.000 C 
ATOM     17  N   UNL     1      -1.018  11.010  17.952  0.00  0.00    +0.000 NA
ATOM     18  C   UNL     1       1.197  12.898  21.065  0.00  0.00    +0.000 C 
ATOM     19  O   UNL     1       0.794  13.625  22.246  0.00  0.00    +0.000 OA
ENDROOT
BRANCH   1  21
ATOM     20  C   UNL     1       5.234  15.166  20.030  0.00  0.00    +0.000 C 
ATOM     21  O   UNL     1       3.954  14.810  19.524  0.00  0.00    +0.000 OA
ENDBRANCH   1  21
BRANCH   5  22
ATOM     22  O   UNL     1      -1.217  14.478  19.308  0.00  0.00    +0.000 OA
ATOM     23  H   UNL     1      -0.599  15.209  19.121  0.00  0.00    +0.000 HD
ENDBRANCH   5  22
BRANCH  11  24
ATOM     24  O   UNL     1      -0.898  14.606  24.377  0.00  0.00    +0.000 OA
ATOM     25  H   UNL     1      -1.432  14.367  25.150  0.00  0.00    +0.000 HD
ENDBRANCH  11  24
BRANCH  17  26
ATOM     26  C   UNL     1      -1.900  10.067  17.265  0.00  0.00    +0.000 C 
BRANCH  26  27
ATOM     27  C   UNL     1      -2.515  10.647  16.029  0.00  0.00    +0.000 C 
ATOM     28  C   UNL     1      -3.293   9.761  15.089  0.00  0.00    +0.000 C 
ATOM     29  C   UNL     1      -4.010  10.776  15.933  0.00  0.00    +0.000 C 
ENDBRANCH  26  27
ENDBRANCH  17  26
TORSDOF 5
ENDMDL
MODEL 4
REMARK VINA RESULT:      -6.4      4.443      7.998
REMARK  Name = 
REMARK  6 active torsions:
REMARK  status: ('A' for Active; 'I' for Inactive)
REMARK    1  A    between atoms: C_1  and  O_2
REMARK    2  A    between atoms: O_2  and  N_3
REMARK    3  A    between atoms: C_7  and  O_8
REMARK    4  A    between atoms: C_14  and  O_15
REMARK    5  A    between atoms: N_21  and  C_22
REMARK    6  A    between atoms: C_22  and  C_23
REMARK                            x       y       z     vdW  Elec       q    Type
REMARK                         _______ _______ _______ _____ _____    ______ ____
ROOT
ATOM      1  N   UNL     1       0.596  14.157  22.293  0.00  0.00    +0.000 NA
ATOM      2  C   UNL     1       0.639  13.136  21.486  0.00  0.00    +0.000 C 
ATOM      3  C   UNL     1       1.893  12.702  20.717  0.00  0.00    +0.000 C 
ATOM      4  C   UNL     1       1.553  12.734  19.247  0.00  0.00    +0.000 C 
ATOM      5  C   UNL     1       0.349  11.864  18.860  0.00  0.00    +0.000 C 
ATOM      6  C   UNL     1       0.474  10.587  17.965  0.00  0.00    +0.000 C 
ATOM      7  C   UNL     1      -1.018  10.162  17.530  0.00  0.00    +0.000 C 
ATOM      8  C   UNL     1      -2.172  10.838  18.325  0.00  0.00    +0.000 A 
ATOM      9  C   UNL     1      -3.469  11.116  17.889  0.00  0.00    +0.000 A 
ATOM     10  C   UNL     1      -4.323  11.931  18.696  0.00  0.00    +0.000 A 
ATOM     11  C   UNL     1      -3.885  12.498  19.906  0.00  0.00    +0.000 A 
ATOM     12  C   UNL     1      -2.606  12.242  20.321  0.00  0.00    +0.000 A 
ATOM     13  C   UNL     1      -1.834  11.389  19.568  0.00  0.00    +0.000 A 
ATOM     14  C   UNL     1      -0.465  11.332  20.096  0.00  0.00    +0.000 C 
ATOM     15  C   UNL     1      -0.297   9.831  20.486  0.00  0.00    +0.000 C 
ATOM     16  C   UNL     1       0.991   9.218  20.003  0.00  0.00    +0.000 C 
ATOM     17  N   UNL     1       1.331   9.570  18.621  0.00  0.00    +0.000 NA
ATOM     18  C   UNL     1      -0.599  12.227  21.338  0.00  0.00    +0.000 C 
ATOM     19  O   UNL     1      -1.909  12.836  21.343  0.00  0.00    +0.000 OA
ENDROOT
BRANCH   1  21
ATOM     20  C   UNL     1       1.556  16.224  21.942  0.00  0.00    +0.000 C 
ATOM     21  O   UNL     1       1.806  14.866  22.278  0.00  0.00    +0.000 OA
ENDBRANCH   1  21
BRANCH   5  22
ATOM     22  O   UNL     1      -0.362  12.839  18.025  0.00  0.00    +0.000 OA
ATOM     23  H   UNL     1      -0.222  13.725  18.410  0.00  0.00    +0.000 HD
ENDBRANCH   5  22
BRANCH  11  24
ATOM     24  O   UNL     1      -4.681  13.303  20.660  0.00  0.00    +0.000 OA
ATOM     25  H   UNL     1      -5.589  13.240  20.329  0.00  0.00    +0.000 HD
ENDBRANCH  11  24
BRANCH  17  26
ATOM     26  C   UNL     1       1.637   8.358  17.863  0.00  0.00    +0.000 C 
BRANCH  26  27
ATOM     27  C   UNL     1       2.542   7.425  18.607  0.00  0.00    +0.000 C 
ATOM     28  C   UNL     1       2.484   5.943  18.333  0.00  0.00    +0.000 C 
ATOM     29  C   UNL     1       3.670   6.746  17.881  0.00  0.00    +0.000 C 
ENDBRANCH  26  27
ENDBRANCH  17  26
TORSDOF 5
ENDMDL
MODEL 5
REMARK VINA RESULT:      -6.2      4.645     10.854
REMARK  Name = 
REMARK  6 active torsions:
REMARK  status: ('A' for Active; 'I' for Inactive)
REMARK    1  A    between atoms: C_1  and  O_2
REMARK    2  A    between atoms: O_2  and  N_3
REMARK    3  A    between atoms: C_7  and  O_8
REMARK    4  A    between atoms: C_14  and  O_15
REMARK    5  A    between atoms: N_21  and  C_22
REMARK    6  A    between atoms: C_22  and  C_23
REMARK                            x       y       z     vdW  Elec       q    Type
REMARK                         _______ _______ _______ _____ _____    ______ ____
ROOT
ATOM      1  N   UNL     1       2.164  10.078  18.087  0.00  0.00    +0.000 NA
ATOM      2  C   UNL     1       1.217  10.653  18.772  0.00  0.00    +0.000 C 
ATOM      3  C   UNL     1      -0.177  10.049  18.982  0.00  0.00    +0.000 C 
ATOM      4  C   UNL     1      -1.181  11.034  18.432  0.00  0.00    +0.000 C 
ATOM      5  C   UNL     1      -1.095  12.435  19.052  0.00  0.00    +0.000 C 
ATOM      6  C   UNL     1      -2.223  13.039  19.951  0.00  0.00    +0.000 C 
ATOM      7  C   UNL     1      -1.907  14.609  20.124  0.00  0.00    +0.000 C 
ATOM      8  C   UNL     1      -0.480  15.061  19.701  0.00  0.00    +0.000 A 
ATOM      9  C   UNL     1      -0.080  16.310  19.222  0.00  0.00    +0.000 A 
ATOM     10  C   UNL     1       1.237  16.471  18.689  0.00  0.00    +0.000 A 
ATOM     11  C   UNL     1       2.138  15.395  18.594  0.00  0.00    +0.000 A 
ATOM     12  C   UNL     1       1.736  14.167  19.042  0.00  0.00    +0.000 A 
ATOM     13  C   UNL     1       0.496  14.058  19.626  0.00  0.00    +0.000 A 
ATOM     14  C   UNL     1       0.191  12.654  19.931  0.00  0.00    +0.000 C 
ATOM     15  C   UNL     1       0.020  12.658  21.482  0.00  0.00    +0.000 C 
ATOM     16  C   UNL     1      -1.208  11.929  21.960  0.00  0.00    +0.000 C 
ATOM     17  N   UNL     1      -2.411  12.222  21.175  0.00  0.00    +0.000 NA
ATOM     18  C   UNL     1       1.504  11.978  19.509  0.00  0.00    +0.000 C 
ATOM     19  O   UNL     1       2.356  12.954  18.871  0.00  0.00    +0.000 OA
ENDROOT
BRANCH   1  21
ATOM     20  C   UNL     1       2.579   7.826  17.812  0.00  0.00    +0.000 C 
ATOM     21  O   UNL     1       1.707   8.899  17.481  0.00  0.00    +0.000 OA
ENDBRANCH   1  21
BRANCH   5  22
ATOM     22  O   UNL     1      -1.139  13.222  17.815  0.00  0.00    +0.000 OA
ATOM     23  H   UNL     1      -1.530  14.091  18.024  0.00  0.00    +0.000 HD
ENDBRANCH   5  22
BRANCH  11  24
ATOM     24  O   UNL     1       3.378  15.534  18.053  0.00  0.00    +0.000 OA
ATOM     25  H   UNL     1       3.286  15.809  17.129  0.00  0.00    +0.000 HD
ENDBRANCH  11  24
BRANCH  17  26
ATOM     26  C   UNL     1      -3.506  12.592  22.069  0.00  0.00    +0.000 C 
BRANCH  26  27
ATOM     27  C   UNL     1      -3.109  12.560  23.513  0.00  0.00    +0.000 C 
ATOM     28  C   UNL     1      -3.343  13.768  24.385  0.00  0.00    +0.000 C 
ATOM     29  C   UNL     1      -4.172  12.530  24.577  0.00  0.00    +0.000 C 
ENDBRANCH  26  27
ENDBRANCH  17  26
TORSDOF 5
ENDMDL
MODEL 6
REMARK VINA RESULT:      -6.2      2.079      5.709
REMARK  Name = 
REMARK  6 active torsions:
REMARK  status: ('A' for Active; 'I' for Inactive)
REMARK    1  A    between atoms: C_1  and  O_2
REMARK    2  A    between atoms: O_2  and  N_3
REMARK    3  A    between atoms: C_7  and  O_8
REMARK    4  A    between atoms: C_14  and  O_15
REMARK    5  A    between atoms: N_21  and  C_22
REMARK    6  A    between atoms: C_22  and  C_23
REMARK                            x       y       z     vdW  Elec       q    Type
REMARK                         _______ _______ _______ _____ _____    ______ ____
ROOT
ATOM      1  N   UNL     1       6.147   4.521  15.349  0.00  0.00    +0.000 NA
ATOM      2  C   UNL     1       5.294   5.112  16.135  0.00  0.00    +0.000 C 
ATOM      3  C   UNL     1       5.346   6.602  16.493  0.00  0.00    +0.000 C 
ATOM      4  C   UNL     1       5.462   6.700  17.995  0.00  0.00    +0.000 C 
ATOM      5  C   UNL     1       4.334   5.995  18.761  0.00  0.00    +0.000 C 
ATOM      6  C   UNL     1       3.273   6.766  19.613  0.00  0.00    +0.000 C 
ATOM      7  C   UNL     1       2.488   5.673  20.500  0.00  0.00    +0.000 C 
ATOM      8  C   UNL     1       2.691   4.189  20.078  0.00  0.00    +0.000 A 
ATOM      9  C   UNL     1       2.631   3.051  20.883  0.00  0.00    +0.000 A 
ATOM     10  C   UNL     1       3.051   1.790  20.353  0.00  0.00    +0.000 A 
ATOM     11  C   UNL     1       3.564   1.666  19.050  0.00  0.00    +0.000 A 
ATOM     12  C   UNL     1       3.643   2.787  18.270  0.00  0.00    +0.000 A 
ATOM     13  C   UNL     1       3.156   3.969  18.774  0.00  0.00    +0.000 A 
ATOM     14  C   UNL     1       3.436   5.078  17.853  0.00  0.00    +0.000 C 
ATOM     15  C   UNL     1       2.013   5.595  17.477  0.00  0.00    +0.000 C 
ATOM     16  C   UNL     1       1.870   7.092  17.559  0.00  0.00    +0.000 C 
ATOM     17  N   UNL     1       2.477   7.679  18.757  0.00  0.00    +0.000 NA
ATOM     18  C   UNL     1       4.089   4.321  16.685  0.00  0.00    +0.000 C 
ATOM     19  O   UNL     1       4.282   2.941  17.065  0.00  0.00    +0.000 OA
ENDROOT
BRANCH   1  21
ATOM     20  C   UNL     1       7.556   5.124  13.625  0.00  0.00    +0.000 C 
ATOM     21  O   UNL     1       7.175   5.396  14.967  0.00  0.00    +0.000 OA
ENDBRANCH   1  21
BRANCH   5  22
ATOM     22  O   UNL     1       5.156   5.278  19.743  0.00  0.00    +0.000 OA
ATOM     23  H   UNL     1       4.895   5.581  20.633  0.00  0.00    +0.000 HD
ENDBRANCH   5  22
BRANCH  11  24
ATOM     24  O   UNL     1       4.000   0.477  18.553  0.00  0.00    +0.000 OA
ATOM     25  H   UNL     1       3.736  -0.230  19.162  0.00  0.00    +0.000 HD
ENDBRANCH  11  24
BRANCH  17  26
ATOM     26  C   UNL     1       1.513   8.554  19.422  0.00  0.00    +0.000 C 
BRANCH  26  27
ATOM     27  C   UNL     1       1.419   8.295  20.894  0.00  0.00    +0.000 C 
ATOM     28  C   UNL     1       1.111   9.430  21.839  0.00  0.00    +0.000 C 
ATOM     29  C   UNL     1       0.081   8.367  21.578  0.00  0.00    +0.000 C 
ENDBRANCH  26  27
ENDBRANCH  17  26
TORSDOF 5
ENDMDL
MODEL 7
REMARK VINA RESULT:      -6.1      7.719     10.684
REMARK  Name = 
REMARK  6 active torsions:
REMARK  status: ('A' for Active; 'I' for Inactive)
REMARK    1  A    between atoms: C_1  and  O_2
REMARK    2  A    between atoms: O_2  and  N_3
REMARK    3  A    between atoms: C_7  and  O_8
REMARK    4  A    between atoms: C_14  and  O_15
REMARK    5  A    between atoms: N_21  and  C_22
REMARK    6  A    between atoms: C_22  and  C_23
REMARK                            x       y       z     vdW  Elec       q    Type
REMARK                         _______ _______ _______ _____ _____    ______ ____
ROOT
ATOM      1  N   UNL     1      -5.202  12.236  23.557  0.00  0.00    +0.000 NA
ATOM      2  C   UNL     1      -4.285  12.932  22.949  0.00  0.00    +0.000 C 
ATOM      3  C   UNL     1      -4.582  14.073  21.969  0.00  0.00    +0.000 C 
ATOM      4  C   UNL     1      -3.942  13.713  20.651  0.00  0.00    +0.000 C 
ATOM      5  C   UNL     1      -2.433  13.447  20.735  0.00  0.00    +0.000 C 
ATOM      6  C   UNL     1      -1.366  14.374  20.064  0.00  0.00    +0.000 C 
ATOM      7  C   UNL     1       0.040  13.589  20.102  0.00  0.00    +0.000 C 
ATOM      8  C   UNL     1       0.097  12.350  21.041  0.00  0.00    +0.000 A 
ATOM      9  C   UNL     1       0.889  11.207  20.910  0.00  0.00    +0.000 A 
ATOM     10  C   UNL     1       0.649  10.083  21.761  0.00  0.00    +0.000 A 
ATOM     11  C   UNL     1      -0.392  10.075  22.707  0.00  0.00    +0.000 A 
ATOM     12  C   UNL     1      -1.181  11.187  22.817  0.00  0.00    +0.000 A 
ATOM     13  C   UNL     1      -0.877  12.283  22.047  0.00  0.00    +0.000 A 
ATOM     14  C   UNL     1      -1.897  13.327  22.209  0.00  0.00    +0.000 C 
ATOM     15  C   UNL     1      -1.087  14.527  22.788  0.00  0.00    +0.000 C 
ATOM     16  C   UNL     1      -1.368  15.838  22.102  0.00  0.00    +0.000 C 
ATOM     17  N   UNL     1      -1.424  15.740  20.641  0.00  0.00    +0.000 NA
ATOM     18  C   UNL     1      -2.797  12.684  23.276  0.00  0.00    +0.000 C 
ATOM     19  O   UNL     1      -2.356  11.330  23.513  0.00  0.00    +0.000 OA
ENDROOT
BRANCH   1  21
ATOM     20  C   UNL     1      -7.273  12.997  24.227  0.00  0.00    +0.000 C 
ATOM     21  O   UNL     1      -6.484  12.592  23.116  0.00  0.00    +0.000 OA
ENDBRANCH   1  21
BRANCH   5  22
ATOM     22  O   UNL     1      -2.389  12.203  19.958  0.00  0.00    +0.000 OA
ATOM     23  H   UNL     1      -1.550  11.748  20.163  0.00  0.00    +0.000 HD
ENDBRANCH   5  22
BRANCH  11  24
ATOM     24  O   UNL     1      -0.649   8.995  23.492  0.00  0.00    +0.000 OA
ATOM     25  H   UNL     1      -1.275   8.416  23.031  0.00  0.00    +0.000 HD
ENDBRANCH  11  24
BRANCH  17  26
ATOM     26  C   UNL     1      -0.562  16.759  20.044  0.00  0.00    +0.000 C 
BRANCH  26  27
ATOM     27  C   UNL     1      -0.731  16.858  18.559  0.00  0.00    +0.000 C 
ATOM     28  C   UNL     1      -1.080  18.183  17.928  0.00  0.00    +0.000 C 
ATOM     29  C   UNL     1       0.292  17.600  17.742  0.00  0.00    +0.000 C 
ENDBRANCH  26  27
ENDBRANCH  17  26
TORSDOF 5
ENDMDL
MODEL 8
REMARK VINA RESULT:      -6.1      6.142      9.642
REMARK  Name = 
REMARK  6 active torsions:
REMARK  status: ('A' for Active; 'I' for Inactive)
REMARK    1  A    between atoms: C_1  and  O_2
REMARK    2  A    between atoms: O_2  and  N_3
REMARK    3  A    between atoms: C_7  and  O_8
REMARK    4  A    between atoms: C_14  and  O_15
REMARK    5  A    between atoms: N_21  and  C_22
REMARK    6  A    between atoms: C_22  and  C_23
REMARK                            x       y       z     vdW  Elec       q    Type
REMARK                         _______ _______ _______ _____ _____    ______ ____
ROOT
ATOM      1  N   UNL     1      -3.001  11.769  23.485  0.00  0.00    +0.000 NA
ATOM      2  C   UNL     1      -2.309  12.453  22.620  0.00  0.00    +0.000 C 
ATOM      3  C   UNL     1      -2.811  13.732  21.939  0.00  0.00    +0.000 C 
ATOM      4  C   UNL     1      -2.785  13.488  20.449  0.00  0.00    +0.000 C 
ATOM      5  C   UNL     1      -1.411  13.082  19.901  0.00  0.00    +0.000 C 
ATOM      6  C   UNL     1      -0.576  13.990  18.938  0.00  0.00    +0.000 C 
ATOM      7  C   UNL     1       0.619  13.087  18.346  0.00  0.00    +0.000 C 
ATOM      8  C   UNL     1       0.872  11.738  19.079  0.00  0.00    +0.000 A 
ATOM      9  C   UNL     1       1.395  10.557  18.549  0.00  0.00    +0.000 A 
ATOM     10  C   UNL     1       1.359   9.359  19.329  0.00  0.00    +0.000 A 
ATOM     11  C   UNL     1       0.775   9.321  20.608  0.00  0.00    +0.000 A 
ATOM     12  C   UNL     1       0.243  10.474  21.116  0.00  0.00    +0.000 A 
ATOM     13  C   UNL     1       0.365  11.629  20.381  0.00  0.00    +0.000 A 
ATOM     14  C   UNL     1      -0.366  12.730  21.023  0.00  0.00    +0.000 C 
ATOM     15  C   UNL     1       0.755  13.770  21.326  0.00  0.00    +0.000 C 
ATOM     16  C   UNL     1       0.404  15.178  20.920  0.00  0.00    +0.000 C 
ATOM     17  N   UNL     1      -0.227  15.271  19.600  0.00  0.00    +0.000 NA
ATOM     18  C   UNL     1      -0.857  12.037  22.303  0.00  0.00    +0.000 C 
ATOM     19  O   UNL     1      -0.540  10.630  22.233  0.00  0.00    +0.000 OA
ENDROOT
BRANCH   1  21
ATOM     20  C   UNL     1      -4.621  12.390  25.005  0.00  0.00    +0.000 C 
ATOM     21  O   UNL     1      -4.295  12.289  23.625  0.00  0.00    +0.000 OA
ENDBRANCH   1  21
BRANCH   5  22
ATOM     22  O   UNL     1      -1.835  11.948  19.072  0.00  0.00    +0.000 OA
ATOM     23  H   UNL     1      -2.066  12.289  18.188  0.00  0.00    +0.000 HD
ENDBRANCH   5  22
BRANCH  11  24
ATOM     24  O   UNL     1       0.704   8.176  21.339  0.00  0.00    +0.000 OA
ATOM     25  H   UNL     1       0.059   8.302  22.052  0.00  0.00    +0.000 HD
ENDBRANCH  11  24
BRANCH  17  26
ATOM     26  C   UNL     1       0.461  16.278  18.794  0.00  0.00    +0.000 C 
BRANCH  26  27
ATOM     27  C   UNL     1      -0.482  17.101  17.971  0.00  0.00    +0.000 C 
ATOM     28  C   UNL     1      -0.697  18.556  18.303  0.00  0.00    +0.000 C 
ATOM     29  C   UNL     1       0.061  18.171  17.064  0.00  0.00    +0.000 C 
ENDBRANCH  26  27
ENDBRANCH  17  26
TORSDOF 5
ENDMDL
MODEL 9
REMARK VINA RESULT:      -6.0      7.116      9.979
REMARK  Name = 
REMARK  6 active torsions:
REMARK  status: ('A' for Active; 'I' for Inactive)
REMARK    1  A    between atoms: C_1  and  O_2
REMARK    2  A    between atoms: O_2  and  N_3
REMARK    3  A    between atoms: C_7  and  O_8
REMARK    4  A    between atoms: C_14  and  O_15
REMARK    5  A    between atoms: N_21  and  C_22
REMARK    6  A    between atoms: C_22  and  C_23
REMARK                            x       y       z     vdW  Elec       q    Type
REMARK                         _______ _______ _______ _____ _____    ______ ____
ROOT
ATOM      1  N   UNL     1      -4.707  12.282  23.303  0.00  0.00    +0.000 NA
ATOM      2  C   UNL     1      -3.796  12.762  22.506  0.00  0.00    +0.000 C 
ATOM      3  C   UNL     1      -4.099  13.651  21.295  0.00  0.00    +0.000 C 
ATOM      4  C   UNL     1      -3.546  12.954  20.075  0.00  0.00    +0.000 C 
ATOM      5  C   UNL     1      -2.047  12.636  20.156  0.00  0.00    +0.000 C 
ATOM      6  C   UNL     1      -0.981  13.319  19.237  0.00  0.00    +0.000 C 
ATOM      7  C   UNL     1       0.391  12.492  19.403  0.00  0.00    +0.000 C 
ATOM      8  C   UNL     1       0.447  11.511  20.609  0.00  0.00    +0.000 A 
ATOM      9  C   UNL     1       1.183  10.330  20.723  0.00  0.00    +0.000 A 
ATOM     10  C   UNL     1       0.944   9.455  21.829  0.00  0.00    +0.000 A 
ATOM     11  C   UNL     1      -0.044   9.727  22.792  0.00  0.00    +0.000 A 
ATOM     12  C   UNL     1      -0.779  10.874  22.666  0.00  0.00    +0.000 A 
ATOM     13  C   UNL     1      -0.472  11.737  21.642  0.00  0.00    +0.000 A 
ATOM     14  C   UNL     1      -1.438  12.843  21.591  0.00  0.00    +0.000 C 
ATOM     15  C   UNL     1      -0.549  14.102  21.830  0.00  0.00    +0.000 C 
ATOM     16  C   UNL     1      -0.813  15.224  20.861  0.00  0.00    +0.000 C 
ATOM     17  N   UNL     1      -0.951  14.784  19.470  0.00  0.00    +0.000 NA
ATOM     18  C   UNL     1      -2.304  12.521  22.819  0.00  0.00    +0.000 C 
ATOM     19  O   UNL     1      -1.908  11.241  23.357  0.00  0.00    +0.000 OA
ENDROOT
BRANCH   1  21
ATOM     20  C   UNL     1      -6.848  12.840  23.954  0.00  0.00    +0.000 C 
ATOM     21  O   UNL     1      -5.996  12.590  22.844  0.00  0.00    +0.000 OA
ENDBRANCH   1  21
BRANCH   5  22
ATOM     22  O   UNL     1      -2.097  11.242  19.701  0.00  0.00    +0.000 OA
ATOM     23  H   UNL     1      -2.663  10.743  20.319  0.00  0.00    +0.000 HD
ENDBRANCH   5  22
BRANCH  11  24
ATOM     24  O   UNL     1      -0.302   8.881  23.825  0.00  0.00    +0.000 OA
ATOM     25  H   UNL     1      -1.175   8.483  23.690  0.00  0.00    +0.000 HD
ENDBRANCH  11  24
BRANCH  17  26
ATOM     26  C   UNL     1      -0.082  15.584  18.609  0.00  0.00    +0.000 C 
BRANCH  26  27
ATOM     27  C   UNL     1      -0.293  17.056  18.784  0.00  0.00    +0.000 C 
ATOM     28  C   UNL     1       0.627  18.035  18.098  0.00  0.00    +0.000 C 
ATOM     29  C   UNL     1      -0.791  17.879  17.627  0.00  0.00    +0.000 C 
ENDBRANCH  26  27
ENDBRANCH  17  26
TORSDOF 5
ENDMDL
