MODEL 1
REMARK VINA RESULT:      -6.9      0.000      0.000
REMARK  Name = 
REMARK  3 active torsions:
REMARK  status: ('A' for Active; 'I' for Inactive)
REMARK    1  A    between atoms: C_1  and  C_2
REMARK    2  A    between atoms: C_7  and  C_8
REMARK    3  A    between atoms: C_13  and  C_14
REMARK                            x       y       z     vdW  Elec       q    Type
REMARK                         _______ _______ _______ _____ _____    ______ ____
ROOT
ATOM      1  C   UNL     1       6.859   4.383  12.537  0.00  0.00    +0.000 C 
ATOM      2  C   UNL     1       7.411   5.087  13.749  0.00  0.00    +0.000 C 
ATOM      3  O   UNL     1       8.508   5.650  13.683  0.00  0.00    +0.000 OA
ATOM      4  N   UNL     1       6.636   5.093  14.896  0.00  0.00    +0.000 N 
ATOM      5  C   UNL     1       7.040   5.917  16.034  0.00  0.00    +0.000 C 
ATOM      6  C   UNL     1       7.177   5.061  17.291  0.00  0.00    +0.000 C 
ATOM      7  C   UNL     1       5.893   4.273  17.590  0.00  0.00    +0.000 C 
ATOM      8  C   UNL     1       5.463   3.486  16.338  0.00  0.00    +0.000 C 
ATOM      9  C   UNL     1       5.390   4.350  15.077  0.00  0.00    +0.000 C 
ENDROOT
BRANCH   7  10
ATOM     10  C   UNL     1       4.724   5.136  18.083  0.00  0.00    +0.000 C 
ATOM     11  O   UNL     1       4.739   6.362  17.934  0.00  0.00    +0.000 OA
ATOM     12  N   UNL     1       3.621   4.508  18.638  0.00  0.00    +0.000 N 
ATOM     13  C   UNL     1       2.367   5.254  18.748  0.00  0.00    +0.000 C 
ATOM     14  C   UNL     1       1.898   5.340  20.196  0.00  0.00    +0.000 C 
ATOM     15  C   UNL     1       1.827   3.956  20.861  0.00  0.00    +0.000 C 
ATOM     16  C   UNL     1       0.650   3.129  20.337  0.00  0.00    +0.000 C 
ATOM     17  C   UNL     1       3.164   3.222  20.674  0.00  0.00    +0.000 C 
ATOM     18  C   UNL     1       3.607   3.164  19.209  0.00  0.00    +0.000 C 
ENDBRANCH   7  10
TORSDOF 1
ENDMDL
MODEL 2
REMARK VINA RESULT:      -6.0      4.123      6.028
REMARK  Name = 
REMARK  3 active torsions:
REMARK  status: ('A' for Active; 'I' for Inactive)
REMARK    1  A    between atoms: C_1  and  C_2
REMARK    2  A    between atoms: C_7  and  C_8
REMARK    3  A    between atoms: C_13  and  C_14
REMARK                            x       y       z     vdW  Elec       q    Type
REMARK                         _______ _______ _______ _____ _____    ______ ____
ROOT
ATOM      1  C   UNL     1       4.222   1.606  19.343  0.00  0.00    +0.000 C 
ATOM      2  C   UNL     1       3.182   2.355  18.551  0.00  0.00    +0.000 C 
ATOM      3  O   UNL     1       2.619   1.800  17.602  0.00  0.00    +0.000 OA
ATOM      4  N   UNL     1       2.880   3.646  18.948  0.00  0.00    +0.000 N 
ATOM      5  C   UNL     1       1.752   4.343  18.334  0.00  0.00    +0.000 C 
ATOM      6  C   UNL     1       2.209   5.667  17.727  0.00  0.00    +0.000 C 
ATOM      7  C   UNL     1       2.928   6.551  18.756  0.00  0.00    +0.000 C 
ATOM      8  C   UNL     1       4.054   5.749  19.434  0.00  0.00    +0.000 C 
ATOM      9  C   UNL     1       3.587   4.398  19.982  0.00  0.00    +0.000 C 
ENDROOT
BRANCH   7  10
ATOM     10  C   UNL     1       2.007   7.150  19.827  0.00  0.00    +0.000 C 
ATOM     11  O   UNL     1       1.653   6.478  20.801  0.00  0.00    +0.000 OA
ATOM     12  N   UNL     1       1.631   8.479  19.716  0.00  0.00    +0.000 N 
ATOM     13  C   UNL     1       1.096   9.160  20.895  0.00  0.00    +0.000 C 
ATOM     14  C   UNL     1      -0.308   9.696  20.635  0.00  0.00    +0.000 C 
ATOM     15  C   UNL     1      -0.367  10.564  19.368  0.00  0.00    +0.000 C 
ATOM     16  C   UNL     1       0.312  11.921  19.571  0.00  0.00    +0.000 C 
ATOM     17  C   UNL     1       0.243   9.795  18.185  0.00  0.00    +0.000 C 
ATOM     18  C   UNL     1       1.648   9.265  18.486  0.00  0.00    +0.000 C 
ENDBRANCH   7  10
TORSDOF 1
ENDMDL
MODEL 3
REMARK VINA RESULT:      -5.8      2.209      3.288
REMARK  Name = 
REMARK  3 active torsions:
REMARK  status: ('A' for Active; 'I' for Inactive)
REMARK    1  A    between atoms: C_1  and  C_2
REMARK    2  A    between atoms: C_7  and  C_8
REMARK    3  A    between atoms: C_13  and  C_14
REMARK                            x       y       z     vdW  Elec       q    Type
REMARK                         _______ _______ _______ _____ _____    ______ ____
ROOT
ATOM      1  C   UNL     1       8.376   7.270  18.912  0.00  0.00    +0.000 C 
ATOM      2  C   UNL     1       7.678   6.970  17.611  0.00  0.00    +0.000 C 
ATOM      3  O   UNL     1       8.187   7.332  16.546  0.00  0.00    +0.000 OA
ATOM      4  N   UNL     1       6.488   6.266  17.669  0.00  0.00    +0.000 N 
ATOM      5  C   UNL     1       5.872   5.791  16.432  0.00  0.00    +0.000 C 
ATOM      6  C   UNL     1       4.441   6.310  16.314  0.00  0.00    +0.000 C 
ATOM      7  C   UNL     1       3.596   5.946  17.544  0.00  0.00    +0.000 C 
ATOM      8  C   UNL     1       4.323   6.394  18.825  0.00  0.00    +0.000 C 
ATOM      9  C   UNL     1       5.775   5.913  18.895  0.00  0.00    +0.000 C 
ENDROOT
BRANCH   7  10
ATOM     10  C   UNL     1       3.241   4.457  17.647  0.00  0.00    +0.000 C 
ATOM     11  O   UNL     1       3.361   3.712  16.669  0.00  0.00    +0.000 OA
ATOM     12  N   UNL     1       2.848   3.949  18.874  0.00  0.00    +0.000 N 
ATOM     13  C   UNL     1       2.887   2.502  19.082  0.00  0.00    +0.000 C 
ATOM     14  C   UNL     1       1.510   1.957  19.450  0.00  0.00    +0.000 C 
ATOM     15  C   UNL     1       0.890   2.713  20.635  0.00  0.00    +0.000 C 
ATOM     16  C   UNL     1       1.581   2.368  21.958  0.00  0.00    +0.000 C 
ATOM     17  C   UNL     1       0.917   4.224  20.358  0.00  0.00    +0.000 C 
ATOM     18  C   UNL     1       2.313   4.732  19.984  0.00  0.00    +0.000 C 
ENDBRANCH   7  10
TORSDOF 1
ENDMDL
MODEL 4
REMARK VINA RESULT:      -5.7      1.414      2.269
REMARK  Name = 
REMARK  3 active torsions:
REMARK  status: ('A' for Active; 'I' for Inactive)
REMARK    1  A    between atoms: C_1  and  C_2
REMARK    2  A    between atoms: C_7  and  C_8
REMARK    3  A    between atoms: C_13  and  C_14
REMARK                            x       y       z     vdW  Elec       q    Type
REMARK                         _______ _______ _______ _____ _____    ______ ____
ROOT
ATOM      1  C   UNL     1       8.728   5.832  13.065  0.00  0.00    +0.000 C 
ATOM      2  C   UNL     1       7.554   4.895  13.171  0.00  0.00    +0.000 C 
ATOM      3  O   UNL     1       7.216   4.224  12.190  0.00  0.00    +0.000 OA
ATOM      4  N   UNL     1       6.911   4.808  14.393  0.00  0.00    +0.000 N 
ATOM      5  C   UNL     1       5.891   3.782  14.599  0.00  0.00    +0.000 C 
ATOM      6  C   UNL     1       4.575   4.417  15.040  0.00  0.00    +0.000 C 
ATOM      7  C   UNL     1       4.753   5.296  16.287  0.00  0.00    +0.000 C 
ATOM      8  C   UNL     1       5.891   6.306  16.052  0.00  0.00    +0.000 C 
ATOM      9  C   UNL     1       7.183   5.655  15.553  0.00  0.00    +0.000 C 
ENDROOT
BRANCH   7  10
ATOM     10  C   UNL     1       5.019   4.512  17.579  0.00  0.00    +0.000 C 
ATOM     11  O   UNL     1       6.173   4.241  17.924  0.00  0.00    +0.000 OA
ATOM     12  N   UNL     1       3.945   4.170  18.385  0.00  0.00    +0.000 N 
ATOM     13  C   UNL     1       4.201   3.784  19.772  0.00  0.00    +0.000 C 
ATOM     14  C   UNL     1       3.683   2.379  20.061  0.00  0.00    +0.000 C 
ATOM     15  C   UNL     1       2.209   2.216  19.659  0.00  0.00    +0.000 C 
ATOM     16  C   UNL     1       1.270   2.956  20.616  0.00  0.00    +0.000 C 
ATOM     17  C   UNL     1       2.014   2.673  18.205  0.00  0.00    +0.000 C 
ATOM     18  C   UNL     1       2.553   4.084  17.951  0.00  0.00    +0.000 C 
ENDBRANCH   7  10
TORSDOF 1
ENDMDL
MODEL 5
REMARK VINA RESULT:      -5.6      9.204     11.870
REMARK  Name = 
REMARK  3 active torsions:
REMARK  status: ('A' for Active; 'I' for Inactive)
REMARK    1  A    between atoms: C_1  and  C_2
REMARK    2  A    between atoms: C_7  and  C_8
REMARK    3  A    between atoms: C_13  and  C_14
REMARK                            x       y       z     vdW  Elec       q    Type
REMARK                         _______ _______ _______ _____ _____    ______ ____
ROOT
ATOM      1  C   UNL     1       5.220  13.918  26.656  0.00  0.00    +0.000 C 
ATOM      2  C   UNL     1       5.525  12.722  25.794  0.00  0.00    +0.000 C 
ATOM      3  O   UNL     1       5.077  11.614  26.104  0.00  0.00    +0.000 OA
ATOM      4  N   UNL     1       6.288  12.928  24.657  0.00  0.00    +0.000 N 
ATOM      5  C   UNL     1       6.453  11.841  23.694  0.00  0.00    +0.000 C 
ATOM      6  C   UNL     1       7.935  11.552  23.465  0.00  0.00    +0.000 C 
ATOM      7  C   UNL     1       8.704  12.810  23.036  0.00  0.00    +0.000 C 
ATOM      8  C   UNL     1       8.434  13.950  24.036  0.00  0.00    +0.000 C 
ATOM      9  C   UNL     1       6.945  14.183  24.297  0.00  0.00    +0.000 C 
ENDROOT
BRANCH   7  10
ATOM     10  C   UNL     1       8.389  13.288  21.613  0.00  0.00    +0.000 C 
ATOM     11  O   UNL     1       7.463  14.078  21.405  0.00  0.00    +0.000 OA
ATOM     12  N   UNL     1       9.204  12.870  20.574  0.00  0.00    +0.000 N 
ATOM     13  C   UNL     1       9.166  13.605  19.310  0.00  0.00    +0.000 C 
ATOM     14  C   UNL     1       8.777  12.694  18.150  0.00  0.00    +0.000 C 
ATOM     15  C   UNL     1       9.662  11.439  18.083  0.00  0.00    +0.000 C 
ATOM     16  C   UNL     1      11.076  11.762  17.594  0.00  0.00    +0.000 C 
ATOM     17  C   UNL     1       9.680  10.744  19.453  0.00  0.00    +0.000 C 
ATOM     18  C   UNL     1      10.066  11.691  20.593  0.00  0.00    +0.000 C 
ENDBRANCH   7  10
TORSDOF 1
ENDMDL
MODEL 6
REMARK VINA RESULT:      -5.4      2.567      6.687
REMARK  Name = 
REMARK  3 active torsions:
REMARK  status: ('A' for Active; 'I' for Inactive)
REMARK    1  A    between atoms: C_1  and  C_2
REMARK    2  A    between atoms: C_7  and  C_8
REMARK    3  A    between atoms: C_13  and  C_14
REMARK                            x       y       z     vdW  Elec       q    Type
REMARK                         _______ _______ _______ _____ _____    ______ ____
ROOT
ATOM      1  C   UNL     1       0.371   8.633  21.907  0.00  0.00    +0.000 C 
ATOM      2  C   UNL     1       0.998   8.685  20.538  0.00  0.00    +0.000 C 
ATOM      3  O   UNL     1       0.843   9.686  19.832  0.00  0.00    +0.000 OA
ATOM      4  N   UNL     1       1.756   7.598  20.139  0.00  0.00    +0.000 N 
ATOM      5  C   UNL     1       2.535   7.679  18.904  0.00  0.00    +0.000 C 
ATOM      6  C   UNL     1       2.159   6.540  17.960  0.00  0.00    +0.000 C 
ATOM      7  C   UNL     1       2.305   5.167  18.632  0.00  0.00    +0.000 C 
ATOM      8  C   UNL     1       1.534   5.157  19.966  0.00  0.00    +0.000 C 
ATOM      9  C   UNL     1       1.882   6.341  20.872  0.00  0.00    +0.000 C 
ENDROOT
BRANCH   7  10
ATOM     10  C   UNL     1       3.756   4.732  18.873  0.00  0.00    +0.000 C 
ATOM     11  O   UNL     1       4.116   4.326  19.983  0.00  0.00    +0.000 OA
ATOM     12  N   UNL     1       4.640   4.741  17.807  0.00  0.00    +0.000 N 
ATOM     13  C   UNL     1       5.884   3.979  17.917  0.00  0.00    +0.000 C 
ATOM     14  C   UNL     1       7.103   4.879  17.745  0.00  0.00    +0.000 C 
ATOM     15  C   UNL     1       7.026   5.711  16.455  0.00  0.00    +0.000 C 
ATOM     16  C   UNL     1       7.256   4.854  15.207  0.00  0.00    +0.000 C 
ATOM     17  C   UNL     1       5.681   6.452  16.395  0.00  0.00    +0.000 C 
ATOM     18  C   UNL     1       4.482   5.518  16.580  0.00  0.00    +0.000 C 
ENDBRANCH   7  10
TORSDOF 1
ENDMDL
MODEL 7
REMARK VINA RESULT:      -5.4      3.518      5.711
REMARK  Name = 
REMARK  3 active torsions:
REMARK  status: ('A' for Active; 'I' for Inactive)
REMARK    1  A    between atoms: C_1  and  C_2
REMARK    2  A    between atoms: C_7  and  C_8
REMARK    3  A    between atoms: C_13  and  C_14
REMARK                            x       y       z     vdW  Elec       q    Type
REMARK                         _______ _______ _______ _____ _____    ______ ____
ROOT
ATOM      1  C   UNL     1       1.267   1.548  18.751  0.00  0.00    +0.000 C 
ATOM      2  C   UNL     1       2.587   2.220  18.477  0.00  0.00    +0.000 C 
ATOM      3  O   UNL     1       3.570   1.537  18.176  0.00  0.00    +0.000 OA
ATOM      4  N   UNL     1       2.630   3.601  18.552  0.00  0.00    +0.000 N 
ATOM      5  C   UNL     1       3.832   4.308  18.115  0.00  0.00    +0.000 C 
ATOM      6  C   UNL     1       4.369   5.194  19.237  0.00  0.00    +0.000 C 
ATOM      7  C   UNL     1       3.301   6.165  19.761  0.00  0.00    +0.000 C 
ATOM      8  C   UNL     1       2.027   5.384  20.133  0.00  0.00    +0.000 C 
ATOM      9  C   UNL     1       1.540   4.457  19.016  0.00  0.00    +0.000 C 
ENDROOT
BRANCH   7  10
ATOM     10  C   UNL     1       2.946   7.297  18.789  0.00  0.00    +0.000 C 
ATOM     11  O   UNL     1       3.565   7.435  17.729  0.00  0.00    +0.000 OA
ATOM     12  N   UNL     1       1.874   8.122  19.090  0.00  0.00    +0.000 N 
ATOM     13  C   UNL     1       1.287   8.932  18.023  0.00  0.00    +0.000 C 
ATOM     14  C   UNL     1       1.342  10.418  18.359  0.00  0.00    +0.000 C 
ATOM     15  C   UNL     1       0.734  10.719  19.738  0.00  0.00    +0.000 C 
ATOM     16  C   UNL     1      -0.792  10.590  19.730  0.00  0.00    +0.000 C 
ATOM     17  C   UNL     1       1.374   9.808  20.797  0.00  0.00    +0.000 C 
ATOM     18  C   UNL     1       1.308   8.325  20.421  0.00  0.00    +0.000 C 
ENDBRANCH   7  10
TORSDOF 1
ENDMDL
MODEL 8
REMARK VINA RESULT:      -5.4      2.426      2.977
REMARK  Name = 
REMARK  3 active torsions:
REMARK  status: ('A' for Active; 'I' for Inactive)
REMARK    1  A    between atoms: C_1  and  C_2
REMARK    2  A    between atoms: C_7  and  C_8
REMARK    3  A    between atoms: C_13  and  C_14
REMARK                            x       y       z     vdW  Elec       q    Type
REMARK                         _______ _______ _______ _____ _____    ______ ____
ROOT
ATOM      1  C   UNL     1       7.967   8.248  17.470  0.00  0.00    +0.000 C 
ATOM      2  C   UNL     1       7.664   7.016  18.281  0.00  0.00    +0.000 C 
ATOM      3  O   UNL     1       8.516   6.567  19.055  0.00  0.00    +0.000 OA
ATOM      4  N   UNL     1       6.410   6.447  18.139  0.00  0.00    +0.000 N 
ATOM      5  C   UNL     1       6.003   5.368  19.037  0.00  0.00    +0.000 C 
ATOM      6  C   UNL     1       5.593   4.134  18.238  0.00  0.00    +0.000 C 
ATOM      7  C   UNL     1       4.500   4.455  17.208  0.00  0.00    +0.000 C 
ATOM      8  C   UNL     1       4.940   5.649  16.340  0.00  0.00    +0.000 C 
ATOM      9  C   UNL     1       5.404   6.854  17.161  0.00  0.00    +0.000 C 
ENDROOT
BRANCH   7  10
ATOM     10  C   UNL     1       3.122   4.743  17.819  0.00  0.00    +0.000 C 
ATOM     11  O   UNL     1       2.410   5.647  17.369  0.00  0.00    +0.000 OA
ATOM     12  N   UNL     1       2.663   3.929  18.841  0.00  0.00    +0.000 N 
ATOM     13  C   UNL     1       1.235   3.936  19.159  0.00  0.00    +0.000 C 
ATOM     14  C   UNL     1       0.992   4.336  20.610  0.00  0.00    +0.000 C 
ATOM     15  C   UNL     1       1.816   3.484  21.588  0.00  0.00    +0.000 C 
ATOM     16  C   UNL     1       1.273   2.057  21.700  0.00  0.00    +0.000 C 
ATOM     17  C   UNL     1       3.295   3.498  21.169  0.00  0.00    +0.000 C 
ATOM     18  C   UNL     1       3.498   3.099  19.705  0.00  0.00    +0.000 C 
ENDBRANCH   7  10
TORSDOF 1
ENDMDL
MODEL 9
REMARK VINA RESULT:      -5.3      2.840      3.709
REMARK  Name = 
REMARK  3 active torsions:
REMARK  status: ('A' for Active; 'I' for Inactive)
REMARK    1  A    between atoms: C_1  and  C_2
REMARK    2  A    between atoms: C_7  and  C_8
REMARK    3  A    between atoms: C_13  and  C_14
REMARK                            x       y       z     vdW  Elec       q    Type
REMARK                         _______ _______ _______ _____ _____    ______ ____
ROOT
ATOM      1  C   UNL     1       6.760   3.921  15.118  0.00  0.00    +0.000 C 
ATOM      2  C   UNL     1       6.924   4.553  16.476  0.00  0.00    +0.000 C 
ATOM      3  O   UNL     1       7.989   4.425  17.086  0.00  0.00    +0.000 OA
ATOM      4  N   UNL     1       5.860   5.285  16.974  0.00  0.00    +0.000 N 
ATOM      5  C   UNL     1       6.035   6.069  18.196  0.00  0.00    +0.000 C 
ATOM      6  C   UNL     1       4.998   5.667  19.242  0.00  0.00    +0.000 C 
ATOM      7  C   UNL     1       3.566   5.776  18.700  0.00  0.00    +0.000 C 
ATOM      8  C   UNL     1       3.452   5.003  17.373  0.00  0.00    +0.000 C 
ATOM      9  C   UNL     1       4.537   5.378  16.361  0.00  0.00    +0.000 C 
ENDROOT
BRANCH   7  10
ATOM     10  C   UNL     1       3.074   7.216  18.500  0.00  0.00    +0.000 C 
ATOM     11  O   UNL     1       3.573   7.936  17.629  0.00  0.00    +0.000 OA
ATOM     12  N   UNL     1       2.017   7.672  19.270  0.00  0.00    +0.000 N 
ATOM     13  C   UNL     1       1.295   8.868  18.836  0.00  0.00    +0.000 C 
ATOM     14  C   UNL     1       1.341   9.960  19.900  0.00  0.00    +0.000 C 
ATOM     15  C   UNL     1       0.874   9.447  21.271  0.00  0.00    +0.000 C 
ATOM     16  C   UNL     1      -0.640   9.217  21.311  0.00  0.00    +0.000 C 
ATOM     17  C   UNL     1       1.651   8.173  21.640  0.00  0.00    +0.000 C 
ATOM     18  C   UNL     1       1.589   7.104  20.545  0.00  0.00    +0.000 C 
ENDBRANCH   7  10
TORSDOF 1
ENDMDL
