MODEL 1
REMARK VINA RESULT:      -8.0      0.000      0.000
REMARK  Name = 
REMARK  12 active torsions:
REMARK  status: ('A' for Active; 'I' for Inactive)
REMARK    1  A    between atoms: C_1  and  C_2
REMARK    2  A    between atoms: C_2  and  O_3
REMARK    3  A    between atoms: O_3  and  C_4
REMARK    4  A    between atoms: C_4  and  C_6
REMARK    5  A    between atoms: C_7  and  N_8
REMARK    6  A    between atoms: N_10  and  C_11
REMARK    7  A    between atoms: C_14  and  N_15
REMARK    8  A    between atoms: C_24  and  C_25
REMARK    9  A    between atoms: C_27  and  C_28
REMARK   10  A    between atoms: C_31  and  N_32
REMARK   11  A    between atoms: N_32  and  C_33
REMARK   12  A    between atoms: N_32  and  C_34
REMARK                            x       y       z     vdW  Elec       q    Type
REMARK                         _______ _______ _______ _____ _____    ______ ____
ROOT
ATOM      1  C   UNL     1      -0.455  11.633  19.931  0.00  0.00    +0.000 C 
ATOM      2  C   UNL     1      -0.120  11.357  18.629  0.00  0.00    +0.000 C 
ATOM      3  N   UNL     1      -1.137  11.337  17.666  0.00  0.00    +0.000 N 
ATOM      4  C   UNL     1      -2.410  11.629  17.981  0.00  0.00    +0.000 A 
ATOM      5  N   UNL     1      -3.475  11.720  17.145  0.00  0.00    +0.000 N 
ATOM      6  N   UNL     1      -4.613  12.046  17.792  0.00  0.00    +0.000 NA
ATOM      7  C   UNL     1      -4.242  12.161  19.081  0.00  0.00    +0.000 A 
ATOM      8  C   UNL     1      -5.244  12.529  20.114  0.00  0.00    +0.000 C 
ATOM      9  C   UNL     1      -2.857  11.904  19.246  0.00  0.00    +0.000 A 
ATOM     10  C   UNL     1      -1.906  11.847  20.402  0.00  0.00    +0.000 C 
ATOM     11  H   UNL     1      -0.789  11.150  16.721  0.00  0.00    +0.000 HD
ATOM     12  H   UNL     1      -3.508  11.577  16.143  0.00  0.00    +0.000 HD
ENDROOT
BRANCH  10  13
ATOM     13  C   UNL     1      -2.135  13.113  21.215  0.00  0.00    +0.000 A 
ATOM     14  C   UNL     1      -2.617  13.001  22.524  0.00  0.00    +0.000 A 
ATOM     15  C   UNL     1      -2.823  14.137  23.316  0.00  0.00    +0.000 A 
ATOM     16  C   UNL     1      -2.546  15.434  22.866  0.00  0.00    +0.000 A 
ATOM     17  C   UNL     1      -2.067  15.528  21.547  0.00  0.00    +0.000 A 
ATOM     18  C   UNL     1      -1.864  14.398  20.737  0.00  0.00    +0.000 A 
BRANCH  16  19
ATOM     19  N   UNL     1      -2.800  16.545  23.668  0.00  0.00    +0.000 N 
ATOM     20  C   UNL     1      -3.484  16.391  24.953  0.00  0.00    +0.000 C 
ATOM     21  C   UNL     1      -2.020  17.772  23.551  0.00  0.00    +0.000 C 
ENDBRANCH  16  19
ENDBRANCH  10  13
BRANCH   2  22
ATOM     22  N   UNL     1       1.185  11.085  18.229  0.00  0.00    +0.000 N 
ATOM     23  C   UNL     1       1.908   9.920  18.292  0.00  0.00    +0.000 C 
ATOM     24  N   UNL     1       1.546   8.796  18.819  0.00  0.00    +0.000 NA
ATOM     25  H   UNL     1       1.596  11.832  17.675  0.00  0.00    +0.000 HD
BRANCH  24  26
ATOM     26  C   UNL     1       2.377   7.668  18.676  0.00  0.00    +0.000 A 
ATOM     27  C   UNL     1       3.262   7.631  17.590  0.00  0.00    +0.000 A 
ATOM     28  C   UNL     1       4.260   6.651  17.503  0.00  0.00    +0.000 A 
ATOM     29  C   UNL     1       4.374   5.691  18.514  0.00  0.00    +0.000 A 
ATOM     30  C   UNL     1       3.462   5.674  19.575  0.00  0.00    +0.000 A 
ATOM     31  C   UNL     1       2.476   6.666  19.653  0.00  0.00    +0.000 A 
BRANCH  29  32
ATOM     32  N   UNL     1       5.490   4.735  18.496  0.00  0.00    +0.000 N 
ATOM     33  O   UNL     1       5.388   3.715  19.193  0.00  0.00    +0.000 OA
ATOM     34  O   UNL     1       6.461   4.998  17.771  0.00  0.00    +0.000 OA
ENDBRANCH  29  32
ENDBRANCH  24  26
ENDBRANCH   2  22
BRANCH   1  35
ATOM     35  C   UNL     1       0.528  11.686  21.044  0.00  0.00    +0.000 C 
ATOM     36  O   UNL     1       1.567  12.325  21.006  0.00  0.00    +0.000 OA
BRANCH  35  37
ATOM     37  O   UNL     1       0.134  10.893  22.077  0.00  0.00    +0.000 OA
BRANCH  37  39
ATOM     38  C   UNL     1      -0.246   8.515  21.839  0.00  0.00    +0.000 C 
ATOM     39  C   UNL     1       0.762   9.604  22.156  0.00  0.00    +0.000 C 
ENDBRANCH  37  39
ENDBRANCH  35  37
ENDBRANCH   1  35
TORSDOF 8
ENDMDL
MODEL 2
REMARK VINA RESULT:      -7.9      0.404      1.056
REMARK  Name = 
REMARK  12 active torsions:
REMARK  status: ('A' for Active; 'I' for Inactive)
REMARK    1  A    between atoms: C_1  and  C_2
REMARK    2  A    between atoms: C_2  and  O_3
REMARK    3  A    between atoms: O_3  and  C_4
REMARK    4  A    between atoms: C_4  and  C_6
REMARK    5  A    between atoms: C_7  and  N_8
REMARK    6  A    between atoms: N_10  and  C_11
REMARK    7  A    between atoms: C_14  and  N_15
REMARK    8  A    between atoms: C_24  and  C_25
REMARK    9  A    between atoms: C_27  and  C_28
REMARK   10  A    between atoms: C_31  and  N_32
REMARK   11  A    between atoms: N_32  and  C_33
REMARK   12  A    between atoms: N_32  and  C_34
REMARK                            x       y       z     vdW  Elec       q    Type
REMARK                         _______ _______ _______ _____ _____    ______ ____
ROOT
ATOM      1  C   UNL     1      -0.339  11.690  19.946  0.00  0.00    +0.000 C 
ATOM      2  C   UNL     1      -0.042  11.398  18.638  0.00  0.00    +0.000 C 
ATOM      3  N   UNL     1      -1.087  11.361  17.706  0.00  0.00    +0.000 N 
ATOM      4  C   UNL     1      -2.351  11.651  18.055  0.00  0.00    +0.000 A 
ATOM      5  N   UNL     1      -3.441  11.726  17.250  0.00  0.00    +0.000 N 
ATOM      6  N   UNL     1      -4.562  12.056  17.927  0.00  0.00    +0.000 NA
ATOM      7  C   UNL     1      -4.153  12.189  19.202  0.00  0.00    +0.000 A 
ATOM      8  C   UNL     1      -5.126  12.566  20.260  0.00  0.00    +0.000 C 
ATOM      9  C   UNL     1      -2.762  11.941  19.329  0.00  0.00    +0.000 A 
ATOM     10  C   UNL     1      -1.777  11.904  20.457  0.00  0.00    +0.000 C 
ATOM     11  H   UNL     1      -0.767  11.164  16.753  0.00  0.00    +0.000 HD
ATOM     12  H   UNL     1      -3.503  11.570  16.251  0.00  0.00    +0.000 HD
ENDROOT
BRANCH  10  13
ATOM     13  C   UNL     1      -1.988  13.179  21.259  0.00  0.00    +0.000 A 
ATOM     14  C   UNL     1      -1.787  14.415  20.634  0.00  0.00    +0.000 A 
ATOM     15  C   UNL     1      -1.989  15.615  21.327  0.00  0.00    +0.000 A 
ATOM     16  C   UNL     1      -2.417  15.657  22.660  0.00  0.00    +0.000 A 
ATOM     17  C   UNL     1      -2.609  14.406  23.274  0.00  0.00    +0.000 A 
ATOM     18  C   UNL     1      -2.401  13.193  22.594  0.00  0.00    +0.000 A 
BRANCH  16  19
ATOM     19  N   UNL     1      -2.569  16.868  23.331  0.00  0.00    +0.000 N 
ATOM     20  C   UNL     1      -1.929  18.082  22.823  0.00  0.00    +0.000 C 
ATOM     21  C   UNL     1      -3.698  17.118  24.221  0.00  0.00    +0.000 C 
ENDBRANCH  16  19
ENDBRANCH  10  13
BRANCH   2  22
ATOM     22  N   UNL     1       1.252  11.128  18.203  0.00  0.00    +0.000 N 
ATOM     23  C   UNL     1       1.971   9.959  18.231  0.00  0.00    +0.000 C 
ATOM     24  N   UNL     1       1.616   8.828  18.748  0.00  0.00    +0.000 NA
ATOM     25  H   UNL     1       1.654  11.882  17.651  0.00  0.00    +0.000 HD
BRANCH  24  26
ATOM     26  C   UNL     1       2.438   7.699  18.567  0.00  0.00    +0.000 A 
ATOM     27  C   UNL     1       3.334   7.698  17.490  0.00  0.00    +0.000 A 
ATOM     28  C   UNL     1       4.325   6.713  17.373  0.00  0.00    +0.000 A 
ATOM     29  C   UNL     1       4.419   5.711  18.345  0.00  0.00    +0.000 A 
ATOM     30  C   UNL     1       3.496   5.659  19.395  0.00  0.00    +0.000 A 
ATOM     31  C   UNL     1       2.517   6.657  19.503  0.00  0.00    +0.000 A 
BRANCH  29  32
ATOM     32  N   UNL     1       5.526   4.746  18.299  0.00  0.00    +0.000 N 
ATOM     33  O   UNL     1       6.179   4.566  19.337  0.00  0.00    +0.000 OA
ATOM     34  O   UNL     1       5.732   4.157  17.228  0.00  0.00    +0.000 OA
ENDBRANCH  29  32
ENDBRANCH  24  26
ENDBRANCH   2  22
BRANCH   1  35
ATOM     35  C   UNL     1       0.676  11.762  21.028  0.00  0.00    +0.000 C 
ATOM     36  O   UNL     1       1.693  12.435  20.965  0.00  0.00    +0.000 OA
BRANCH  35  37
ATOM     37  O   UNL     1       0.340  10.946  22.064  0.00  0.00    +0.000 OA
BRANCH  37  39
ATOM     38  C   UNL     1      -0.275   8.616  21.848  0.00  0.00    +0.000 C 
ATOM     39  C   UNL     1       0.861   9.609  22.005  0.00  0.00    +0.000 C 
ENDBRANCH  37  39
ENDBRANCH  35  37
ENDBRANCH   1  35
TORSDOF 8
ENDMDL
MODEL 3
REMARK VINA RESULT:      -7.8      1.564      2.027
REMARK  Name = 
REMARK  12 active torsions:
REMARK  status: ('A' for Active; 'I' for Inactive)
REMARK    1  A    between atoms: C_1  and  C_2
REMARK    2  A    between atoms: C_2  and  O_3
REMARK    3  A    between atoms: O_3  and  C_4
REMARK    4  A    between atoms: C_4  and  C_6
REMARK    5  A    between atoms: C_7  and  N_8
REMARK    6  A    between atoms: N_10  and  C_11
REMARK    7  A    between atoms: C_14  and  N_15
REMARK    8  A    between atoms: C_24  and  C_25
REMARK    9  A    between atoms: C_27  and  C_28
REMARK   10  A    between atoms: C_31  and  N_32
REMARK   11  A    between atoms: N_32  and  C_33
REMARK   12  A    between atoms: N_32  and  C_34
REMARK                            x       y       z     vdW  Elec       q    Type
REMARK                         _______ _______ _______ _____ _____    ______ ____
ROOT
ATOM      1  C   UNL     1       0.116  10.556  19.564  0.00  0.00    +0.000 C 
ATOM      2  C   UNL     1       0.571  10.010  18.389  0.00  0.00    +0.000 C 
ATOM      3  N   UNL     1      -0.317   9.909  17.310  0.00  0.00    +0.000 N 
ATOM      4  C   UNL     1      -1.574  10.377  17.388  0.00  0.00    +0.000 A 
ATOM      5  N   UNL     1      -2.511  10.412  16.407  0.00  0.00    +0.000 N 
ATOM      6  N   UNL     1      -3.672  10.963  16.821  0.00  0.00    +0.000 NA
ATOM      7  C   UNL     1      -3.448  11.280  18.109  0.00  0.00    +0.000 A 
ATOM      8  C   UNL     1      -4.516  11.931  18.912  0.00  0.00    +0.000 C 
ATOM      9  C   UNL     1      -2.134  10.926  18.510  0.00  0.00    +0.000 A 
ATOM     10  C   UNL     1      -1.345  10.994  19.781  0.00  0.00    +0.000 C 
ATOM     11  H   UNL     1       0.118   9.516  16.470  0.00  0.00    +0.000 HD
ATOM     12  H   UNL     1      -2.439  10.089  15.450  0.00  0.00    +0.000 HD
ENDROOT
BRANCH  10  13
ATOM     13  C   UNL     1      -1.516  12.406  20.323  0.00  0.00    +0.000 A 
ATOM     14  C   UNL     1      -2.119  12.585  21.572  0.00  0.00    +0.000 A 
ATOM     15  C   UNL     1      -2.279  13.864  22.120  0.00  0.00    +0.000 A 
ATOM     16  C   UNL     1      -1.834  15.025  21.474  0.00  0.00    +0.000 A 
ATOM     17  C   UNL     1      -1.235  14.827  20.217  0.00  0.00    +0.000 A 
ATOM     18  C   UNL     1      -1.076  13.551  19.651  0.00  0.00    +0.000 A 
BRANCH  16  19
ATOM     19  N   UNL     1      -2.046  16.285  22.030  0.00  0.00    +0.000 N 
ATOM     20  C   UNL     1      -2.935  17.245  21.375  0.00  0.00    +0.000 C 
ATOM     21  C   UNL     1      -1.831  16.544  23.449  0.00  0.00    +0.000 C 
ENDBRANCH  16  19
ENDBRANCH  10  13
BRANCH   2  22
ATOM     22  N   UNL     1       1.872   9.544  18.231  0.00  0.00    +0.000 N 
ATOM     23  C   UNL     1       2.379   8.273  18.344  0.00  0.00    +0.000 C 
ATOM     24  N   UNL     1       1.748   7.203  18.704  0.00  0.00    +0.000 NA
ATOM     25  H   UNL     1       2.498  10.235  17.825  0.00  0.00    +0.000 HD
BRANCH  24  26
ATOM     26  C   UNL     1       2.408   5.960  18.639  0.00  0.00    +0.000 A 
ATOM     27  C   UNL     1       3.579   5.791  19.389  0.00  0.00    +0.000 A 
ATOM     28  C   UNL     1       4.166   4.527  19.542  0.00  0.00    +0.000 A 
ATOM     29  C   UNL     1       3.575   3.415  18.932  0.00  0.00    +0.000 A 
ATOM     30  C   UNL     1       2.440   3.572  18.128  0.00  0.00    +0.000 A 
ATOM     31  C   UNL     1       1.861   4.841  17.993  0.00  0.00    +0.000 A 
BRANCH  29  32
ATOM     32  N   UNL     1       4.110   2.070  19.184  0.00  0.00    +0.000 N 
ATOM     33  O   UNL     1       4.912   1.933  20.119  0.00  0.00    +0.000 OA
ATOM     34  O   UNL     1       3.714   1.147  18.457  0.00  0.00    +0.000 OA
ENDBRANCH  29  32
ENDBRANCH  24  26
ENDBRANCH   2  22
BRANCH   1  35
ATOM     35  C   UNL     1       0.957  10.721  20.778  0.00  0.00    +0.000 C 
ATOM     36  O   UNL     1       1.402  11.791  21.159  0.00  0.00    +0.000 OA
BRANCH  35  37
ATOM     37  O   UNL     1       1.195   9.519  21.370  0.00  0.00    +0.000 OA
BRANCH  37  39
ATOM     38  C   UNL     1      -0.360   9.676  23.216  0.00  0.00    +0.000 C 
ATOM     39  C   UNL     1       0.064   8.889  21.991  0.00  0.00    +0.000 C 
ENDBRANCH  37  39
ENDBRANCH  35  37
ENDBRANCH   1  35
TORSDOF 8
ENDMDL
MODEL 4
REMARK VINA RESULT:      -7.8      0.519      1.278
REMARK  Name = 
REMARK  12 active torsions:
REMARK  status: ('A' for Active; 'I' for Inactive)
REMARK    1  A    between atoms: C_1  and  C_2
REMARK    2  A    between atoms: C_2  and  O_3
REMARK    3  A    between atoms: O_3  and  C_4
REMARK    4  A    between atoms: C_4  and  C_6
REMARK    5  A    between atoms: C_7  and  N_8
REMARK    6  A    between atoms: N_10  and  C_11
REMARK    7  A    between atoms: C_14  and  N_15
REMARK    8  A    between atoms: C_24  and  C_25
REMARK    9  A    between atoms: C_27  and  C_28
REMARK   10  A    between atoms: C_31  and  N_32
REMARK   11  A    between atoms: N_32  and  C_33
REMARK   12  A    between atoms: N_32  and  C_34
REMARK                            x       y       z     vdW  Elec       q    Type
REMARK                         _______ _______ _______ _____ _____    ______ ____
ROOT
ATOM      1  C   UNL     1      -0.493  11.704  19.931  0.00  0.00    +0.000 C 
ATOM      2  C   UNL     1      -0.176  11.428  18.624  0.00  0.00    +0.000 C 
ATOM      3  N   UNL     1      -1.209  11.389  17.679  0.00  0.00    +0.000 N 
ATOM      4  C   UNL     1      -2.481  11.662  18.016  0.00  0.00    +0.000 A 
ATOM      5  N   UNL     1      -3.562  11.733  17.198  0.00  0.00    +0.000 N 
ATOM      6  N   UNL     1      -4.694  12.043  17.865  0.00  0.00    +0.000 NA
ATOM      7  C   UNL     1      -4.302  12.168  19.146  0.00  0.00    +0.000 A 
ATOM      8  C   UNL     1      -5.292  12.523  20.196  0.00  0.00    +0.000 C 
ATOM      9  C   UNL     1      -2.910  11.933  19.287  0.00  0.00    +0.000 A 
ATOM     10  C   UNL     1      -1.939  11.896  20.427  0.00  0.00    +0.000 C 
ATOM     11  H   UNL     1      -0.876  11.205  16.728  0.00  0.00    +0.000 HD
ATOM     12  H   UNL     1      -3.611  11.587  16.197  0.00  0.00    +0.000 HD
ENDROOT
BRANCH  10  13
ATOM     13  C   UNL     1      -2.173  13.161  21.240  0.00  0.00    +0.000 A 
ATOM     14  C   UNL     1      -1.974  14.405  20.631  0.00  0.00    +0.000 A 
ATOM     15  C   UNL     1      -2.197  15.596  21.333  0.00  0.00    +0.000 A 
ATOM     16  C   UNL     1      -2.647  15.619  22.660  0.00  0.00    +0.000 A 
ATOM     17  C   UNL     1      -2.836  14.360  23.257  0.00  0.00    +0.000 A 
ATOM     18  C   UNL     1      -2.607  13.157  22.568  0.00  0.00    +0.000 A 
BRANCH  16  19
ATOM     19  N   UNL     1      -2.820  16.822  23.341  0.00  0.00    +0.000 N 
ATOM     20  C   UNL     1      -3.431  16.840  24.671  0.00  0.00    +0.000 C 
ATOM     21  C   UNL     1      -2.010  17.998  23.042  0.00  0.00    +0.000 C 
ENDBRANCH  16  19
ENDBRANCH  10  13
BRANCH   2  22
ATOM     22  N   UNL     1       1.125  11.177  18.202  0.00  0.00    +0.000 N 
ATOM     23  C   UNL     1       1.888  10.040  18.307  0.00  0.00    +0.000 C 
ATOM     24  N   UNL     1       1.577   8.936  18.904  0.00  0.00    +0.000 NA
ATOM     25  H   UNL     1       1.497  11.905  17.597  0.00  0.00    +0.000 HD
BRANCH  24  26
ATOM     26  C   UNL     1       2.441   7.829  18.798  0.00  0.00    +0.000 A 
ATOM     27  C   UNL     1       2.340   6.814  19.759  0.00  0.00    +0.000 A 
ATOM     28  C   UNL     1       3.010   5.594  19.599  0.00  0.00    +0.000 A 
ATOM     29  C   UNL     1       3.798   5.385  18.461  0.00  0.00    +0.000 A 
ATOM     30  C   UNL     1       3.961   6.408  17.520  0.00  0.00    +0.000 A 
ATOM     31  C   UNL     1       3.277   7.618  17.691  0.00  0.00    +0.000 A 
BRANCH  29  32
ATOM     32  N   UNL     1       4.406   4.069  18.222  0.00  0.00    +0.000 N 
ATOM     33  O   UNL     1       3.821   3.293  17.453  0.00  0.00    +0.000 OA
ATOM     34  O   UNL     1       5.478   3.818  18.792  0.00  0.00    +0.000 OA
ENDBRANCH  29  32
ENDBRANCH  24  26
ENDBRANCH   2  22
BRANCH   1  35
ATOM     35  C   UNL     1       0.509  11.776  21.026  0.00  0.00    +0.000 C 
ATOM     36  O   UNL     1       1.541  12.424  20.964  0.00  0.00    +0.000 OA
BRANCH  35  37
ATOM     37  O   UNL     1       0.140  10.989  22.073  0.00  0.00    +0.000 OA
BRANCH  37  39
ATOM     38  C   UNL     1      -0.370   8.626  21.963  0.00  0.00    +0.000 C 
ATOM     39  C   UNL     1       0.718   9.674  22.106  0.00  0.00    +0.000 C 
ENDBRANCH  37  39
ENDBRANCH  35  37
ENDBRANCH   1  35
TORSDOF 8
ENDMDL
MODEL 5
REMARK VINA RESULT:      -7.7      0.708      1.172
REMARK  Name = 
REMARK  12 active torsions:
REMARK  status: ('A' for Active; 'I' for Inactive)
REMARK    1  A    between atoms: C_1  and  C_2
REMARK    2  A    between atoms: C_2  and  O_3
REMARK    3  A    between atoms: O_3  and  C_4
REMARK    4  A    between atoms: C_4  and  C_6
REMARK    5  A    between atoms: C_7  and  N_8
REMARK    6  A    between atoms: N_10  and  C_11
REMARK    7  A    between atoms: C_14  and  N_15
REMARK    8  A    between atoms: C_24  and  C_25
REMARK    9  A    between atoms: C_27  and  C_28
REMARK   10  A    between atoms: C_31  and  N_32
REMARK   11  A    between atoms: N_32  and  C_33
REMARK   12  A    between atoms: N_32  and  C_34
REMARK                            x       y       z     vdW  Elec       q    Type
REMARK                         _______ _______ _______ _____ _____    ______ ____
ROOT
ATOM      1  C   UNL     1      -0.733  11.512  19.844  0.00  0.00    +0.000 C 
ATOM      2  C   UNL     1      -0.238  11.337  18.576  0.00  0.00    +0.000 C 
ATOM      3  N   UNL     1      -1.135  11.343  17.500  0.00  0.00    +0.000 N 
ATOM      4  C   UNL     1      -2.448  11.566  17.681  0.00  0.00    +0.000 A 
ATOM      5  N   UNL     1      -3.413  11.672  16.732  0.00  0.00    +0.000 N 
ATOM      6  N   UNL     1      -4.632  11.911  17.261  0.00  0.00    +0.000 NA
ATOM      7  C   UNL     1      -4.417  11.953  18.588  0.00  0.00    +0.000 A 
ATOM      8  C   UNL     1      -5.547  12.213  19.517  0.00  0.00    +0.000 C 
ATOM      9  C   UNL     1      -3.050  11.738  18.899  0.00  0.00    +0.000 A 
ATOM     10  C   UNL     1      -2.237  11.639  20.153  0.00  0.00    +0.000 C 
ATOM     11  H   UNL     1      -0.673  11.234  16.593  0.00  0.00    +0.000 HD
ATOM     12  H   UNL     1      -3.324  11.596  15.727  0.00  0.00    +0.000 HD
ENDROOT
BRANCH  10  13
ATOM     13  C   UNL     1      -2.614  12.839  21.010  0.00  0.00    +0.000 A 
ATOM     14  C   UNL     1      -2.317  14.125  20.546  0.00  0.00    +0.000 A 
ATOM     15  C   UNL     1      -2.664  15.259  21.292  0.00  0.00    +0.000 A 
ATOM     16  C   UNL     1      -3.338  15.182  22.518  0.00  0.00    +0.000 A 
ATOM     17  C   UNL     1      -3.623  13.882  22.971  0.00  0.00    +0.000 A 
ATOM     18  C   UNL     1      -3.273  12.734  22.239  0.00  0.00    +0.000 A 
BRANCH  16  19
ATOM     19  N   UNL     1      -3.632  16.329  23.252  0.00  0.00    +0.000 N 
ATOM     20  C   UNL     1      -4.954  16.949  23.161  0.00  0.00    +0.000 C 
ATOM     21  C   UNL     1      -2.891  16.680  24.458  0.00  0.00    +0.000 C 
ENDBRANCH  16  19
ENDBRANCH  10  13
BRANCH   2  22
ATOM     22  N   UNL     1       1.115  11.142  18.316  0.00  0.00    +0.000 N 
ATOM     23  C   UNL     1       1.867   9.994  18.344  0.00  0.00    +0.000 C 
ATOM     24  N   UNL     1       1.485   8.811  18.698  0.00  0.00    +0.000 NA
ATOM     25  H   UNL     1       1.563  11.955  17.902  0.00  0.00    +0.000 HD
BRANCH  24  26
ATOM     26  C   UNL     1       2.369   7.725  18.539  0.00  0.00    +0.000 A 
ATOM     27  C   UNL     1       3.283   7.764  17.478  0.00  0.00    +0.000 A 
ATOM     28  C   UNL     1       4.326   6.832  17.386  0.00  0.00    +0.000 A 
ATOM     29  C   UNL     1       4.455   5.843  18.367  0.00  0.00    +0.000 A 
ATOM     30  C   UNL     1       3.517   5.749  19.401  0.00  0.00    +0.000 A 
ATOM     31  C   UNL     1       2.486   6.694  19.484  0.00  0.00    +0.000 A 
BRANCH  29  32
ATOM     32  N   UNL     1       5.612   4.937  18.347  0.00  0.00    +0.000 N 
ATOM     33  O   UNL     1       5.887   4.374  17.278  0.00  0.00    +0.000 OA
ATOM     34  O   UNL     1       6.255   4.802  19.398  0.00  0.00    +0.000 OA
ENDBRANCH  29  32
ENDBRANCH  24  26
ENDBRANCH   2  22
BRANCH   1  35
ATOM     35  C   UNL     1       0.112  11.527  21.066  0.00  0.00    +0.000 C 
ATOM     36  O   UNL     1       1.119  12.206  21.190  0.00  0.00    +0.000 OA
BRANCH  35  37
ATOM     37  O   UNL     1      -0.362  10.652  21.994  0.00  0.00    +0.000 OA
BRANCH  37  39
ATOM     38  C   UNL     1       1.373   8.988  22.264  0.00  0.00    +0.000 C 
ATOM     39  C   UNL     1      -0.036   9.270  21.780  0.00  0.00    +0.000 C 
ENDBRANCH  37  39
ENDBRANCH  35  37
ENDBRANCH   1  35
TORSDOF 8
ENDMDL
MODEL 6
REMARK VINA RESULT:      -7.6      0.845      1.657
REMARK  Name = 
REMARK  12 active torsions:
REMARK  status: ('A' for Active; 'I' for Inactive)
REMARK    1  A    between atoms: C_1  and  C_2
REMARK    2  A    between atoms: C_2  and  O_3
REMARK    3  A    between atoms: O_3  and  C_4
REMARK    4  A    between atoms: C_4  and  C_6
REMARK    5  A    between atoms: C_7  and  N_8
REMARK    6  A    between atoms: N_10  and  C_11
REMARK    7  A    between atoms: C_14  and  N_15
REMARK    8  A    between atoms: C_24  and  C_25
REMARK    9  A    between atoms: C_27  and  C_28
REMARK   10  A    between atoms: C_31  and  N_32
REMARK   11  A    between atoms: N_32  and  C_33
REMARK   12  A    between atoms: N_32  and  C_34
REMARK                            x       y       z     vdW  Elec       q    Type
REMARK                         _______ _______ _______ _____ _____    ______ ____
ROOT
ATOM      1  C   UNL     1      -0.378  11.420  19.709  0.00  0.00    +0.000 C 
ATOM      2  C   UNL     1      -0.044  11.080  18.422  0.00  0.00    +0.000 C 
ATOM      3  N   UNL     1      -1.056  11.049  17.455  0.00  0.00    +0.000 N 
ATOM      4  C   UNL     1      -2.322  11.389  17.750  0.00  0.00    +0.000 A 
ATOM      5  N   UNL     1      -3.380  11.475  16.904  0.00  0.00    +0.000 N 
ATOM      6  N   UNL     1      -4.512  11.860  17.531  0.00  0.00    +0.000 NA
ATOM      7  C   UNL     1      -4.144  12.018  18.815  0.00  0.00    +0.000 A 
ATOM      8  C   UNL     1      -5.140  12.457  19.826  0.00  0.00    +0.000 C 
ATOM      9  C   UNL     1      -2.767  11.729  18.999  0.00  0.00    +0.000 A 
ATOM     10  C   UNL     1      -1.824  11.694  20.162  0.00  0.00    +0.000 C 
ATOM     11  H   UNL     1      -0.710  10.813  16.520  0.00  0.00    +0.000 HD
ATOM     12  H   UNL     1      -3.412  11.291  15.909  0.00  0.00    +0.000 HD
ENDROOT
BRANCH  10  13
ATOM     13  C   UNL     1      -2.021  12.999  20.920  0.00  0.00    +0.000 A 
ATOM     14  C   UNL     1      -2.427  12.952  22.259  0.00  0.00    +0.000 A 
ATOM     15  C   UNL     1      -2.601  14.126  23.002  0.00  0.00    +0.000 A 
ATOM     16  C   UNL     1      -2.364  15.400  22.470  0.00  0.00    +0.000 A 
ATOM     17  C   UNL     1      -1.962  15.429  21.123  0.00  0.00    +0.000 A 
ATOM     18  C   UNL     1      -1.792  14.260  20.362  0.00  0.00    +0.000 A 
BRANCH  16  19
ATOM     19  N   UNL     1      -2.586  16.549  23.226  0.00  0.00    +0.000 N 
ATOM     20  C   UNL     1      -3.327  17.678  22.660  0.00  0.00    +0.000 C 
ATOM     21  C   UNL     1      -2.556  16.527  24.684  0.00  0.00    +0.000 C 
ENDBRANCH  16  19
ENDBRANCH  10  13
BRANCH   2  22
ATOM     22  N   UNL     1       1.254  10.756  18.042  0.00  0.00    +0.000 N 
ATOM     23  C   UNL     1       1.962   9.592  18.208  0.00  0.00    +0.000 C 
ATOM     24  N   UNL     1       1.589   8.526  18.837  0.00  0.00    +0.000 NA
ATOM     25  H   UNL     1       1.672  11.443  17.420  0.00  0.00    +0.000 HD
BRANCH  24  26
ATOM     26  C   UNL     1       2.405   7.378  18.793  0.00  0.00    +0.000 A 
ATOM     27  C   UNL     1       3.398   7.308  17.807  0.00  0.00    +0.000 A 
ATOM     28  C   UNL     1       4.377   6.306  17.834  0.00  0.00    +0.000 A 
ATOM     29  C   UNL     1       4.362   5.356  18.862  0.00  0.00    +0.000 A 
ATOM     30  C   UNL     1       3.344   5.372  19.821  0.00  0.00    +0.000 A 
ATOM     31  C   UNL     1       2.378   6.386  19.785  0.00  0.00    +0.000 A 
BRANCH  29  32
ATOM     32  N   UNL     1       5.451   4.376  18.970  0.00  0.00    +0.000 N 
ATOM     33  O   UNL     1       6.581   4.725  18.598  0.00  0.00    +0.000 OA
ATOM     34  O   UNL     1       5.180   3.263  19.442  0.00  0.00    +0.000 OA
ENDBRANCH  29  32
ENDBRANCH  24  26
ENDBRANCH   2  22
BRANCH   1  35
ATOM     35  C   UNL     1       0.602  11.492  20.825  0.00  0.00    +0.000 C 
ATOM     36  O   UNL     1       0.435  10.964  21.913  0.00  0.00    +0.000 OA
BRANCH  35  37
ATOM     37  O   UNL     1       1.672  12.259  20.483  0.00  0.00    +0.000 OA
BRANCH  37  39
ATOM     38  C   UNL     1       1.857  14.552  19.732  0.00  0.00    +0.000 C 
ATOM     39  C   UNL     1       1.627  13.629  20.914  0.00  0.00    +0.000 C 
ENDBRANCH  37  39
ENDBRANCH  35  37
ENDBRANCH   1  35
TORSDOF 8
ENDMDL
MODEL 7
REMARK VINA RESULT:      -7.6      2.750      4.145
REMARK  Name = 
REMARK  12 active torsions:
REMARK  status: ('A' for Active; 'I' for Inactive)
REMARK    1  A    between atoms: C_1  and  C_2
REMARK    2  A    between atoms: C_2  and  O_3
REMARK    3  A    between atoms: O_3  and  C_4
REMARK    4  A    between atoms: C_4  and  C_6
REMARK    5  A    between atoms: C_7  and  N_8
REMARK    6  A    between atoms: N_10  and  C_11
REMARK    7  A    between atoms: C_14  and  N_15
REMARK    8  A    between atoms: C_24  and  C_25
REMARK    9  A    between atoms: C_27  and  C_28
REMARK   10  A    between atoms: C_31  and  N_32
REMARK   11  A    between atoms: N_32  and  C_33
REMARK   12  A    between atoms: N_32  and  C_34
REMARK                            x       y       z     vdW  Elec       q    Type
REMARK                         _______ _______ _______ _____ _____    ______ ____
ROOT
ATOM      1  C   UNL     1      -0.556  11.499  18.591  0.00  0.00    +0.000 C 
ATOM      2  C   UNL     1       0.699  10.963  18.441  0.00  0.00    +0.000 C 
ATOM      3  N   UNL     1       1.786  11.629  19.021  0.00  0.00    +0.000 N 
ATOM      4  C   UNL     1       1.618  12.743  19.754  0.00  0.00    +0.000 A 
ATOM      5  N   UNL     1       2.562  13.445  20.429  0.00  0.00    +0.000 N 
ATOM      6  N   UNL     1       2.048  14.512  21.076  0.00  0.00    +0.000 NA
ATOM      7  C   UNL     1       0.734  14.472  20.791  0.00  0.00    +0.000 A 
ATOM      8  C   UNL     1      -0.181  15.502  21.349  0.00  0.00    +0.000 C 
ATOM      9  C   UNL     1       0.418  13.370  19.955  0.00  0.00    +0.000 A 
ATOM     10  C   UNL     1      -0.821  12.841  19.300  0.00  0.00    +0.000 C 
ATOM     11  H   UNL     1       2.675  11.142  18.881  0.00  0.00    +0.000 HD
ATOM     12  H   UNL     1       3.557  13.267  20.497  0.00  0.00    +0.000 HD
ENDROOT
BRANCH  10  13
ATOM     13  C   UNL     1      -1.896  12.794  20.377  0.00  0.00    +0.000 A 
ATOM     14  C   UNL     1      -1.633  12.108  21.568  0.00  0.00    +0.000 A 
ATOM     15  C   UNL     1      -2.584  12.056  22.595  0.00  0.00    +0.000 A 
ATOM     16  C   UNL     1      -3.829  12.692  22.506  0.00  0.00    +0.000 A 
ATOM     17  C   UNL     1      -4.077  13.372  21.300  0.00  0.00    +0.000 A 
ATOM     18  C   UNL     1      -3.137  13.425  20.258  0.00  0.00    +0.000 A 
BRANCH  16  19
ATOM     19  N   UNL     1      -4.767  12.586  23.531  0.00  0.00    +0.000 N 
ATOM     20  C   UNL     1      -4.334  12.434  24.920  0.00  0.00    +0.000 C 
ATOM     21  C   UNL     1      -6.127  13.092  23.383  0.00  0.00    +0.000 C 
ENDBRANCH  16  19
ENDBRANCH  10  13
BRANCH   2  22
ATOM     22  N   UNL     1       0.936   9.791  17.728  0.00  0.00    +0.000 N 
ATOM     23  C   UNL     1       1.491   8.603  18.134  0.00  0.00    +0.000 C 
ATOM     24  N   UNL     1       1.996   8.324  19.291  0.00  0.00    +0.000 NA
ATOM     25  H   UNL     1       0.490   9.783  16.814  0.00  0.00    +0.000 HD
BRANCH  24  26
ATOM     26  C   UNL     1       2.406   7.005  19.564  0.00  0.00    +0.000 A 
ATOM     27  C   UNL     1       1.755   6.307  20.590  0.00  0.00    +0.000 A 
ATOM     28  C   UNL     1       1.958   4.933  20.775  0.00  0.00    +0.000 A 
ATOM     29  C   UNL     1       2.830   4.245  19.923  0.00  0.00    +0.000 A 
ATOM     30  C   UNL     1       3.537   4.934  18.932  0.00  0.00    +0.000 A 
ATOM     31  C   UNL     1       3.314   6.306  18.754  0.00  0.00    +0.000 A 
BRANCH  29  32
ATOM     32  N   UNL     1       2.959   2.786  20.030  0.00  0.00    +0.000 N 
ATOM     33  O   UNL     1       4.060   2.325  20.366  0.00  0.00    +0.000 OA
ATOM     34  O   UNL     1       1.954   2.100  19.793  0.00  0.00    +0.000 OA
ENDBRANCH  29  32
ENDBRANCH  24  26
ENDBRANCH   2  22
BRANCH   1  35
ATOM     35  C   UNL     1      -1.788  10.889  18.027  0.00  0.00    +0.000 C 
ATOM     36  O   UNL     1      -2.269   9.838  18.419  0.00  0.00    +0.000 OA
BRANCH  35  37
ATOM     37  O   UNL     1      -2.270  11.634  16.995  0.00  0.00    +0.000 OA
BRANCH  37  39
ATOM     38  C   UNL     1      -2.957  10.421  15.018  0.00  0.00    +0.000 C 
ATOM     39  C   UNL     1      -3.405  11.090  16.304  0.00  0.00    +0.000 C 
ENDBRANCH  37  39
ENDBRANCH  35  37
ENDBRANCH   1  35
TORSDOF 8
ENDMDL
MODEL 8
REMARK VINA RESULT:      -7.5      1.133      1.974
REMARK  Name = 
REMARK  12 active torsions:
REMARK  status: ('A' for Active; 'I' for Inactive)
REMARK    1  A    between atoms: C_1  and  C_2
REMARK    2  A    between atoms: C_2  and  O_3
REMARK    3  A    between atoms: O_3  and  C_4
REMARK    4  A    between atoms: C_4  and  C_6
REMARK    5  A    between atoms: C_7  and  N_8
REMARK    6  A    between atoms: N_10  and  C_11
REMARK    7  A    between atoms: C_14  and  N_15
REMARK    8  A    between atoms: C_24  and  C_25
REMARK    9  A    between atoms: C_27  and  C_28
REMARK   10  A    between atoms: C_31  and  N_32
REMARK   11  A    between atoms: N_32  and  C_33
REMARK   12  A    between atoms: N_32  and  C_34
REMARK                            x       y       z     vdW  Elec       q    Type
REMARK                         _______ _______ _______ _____ _____    ______ ____
ROOT
ATOM      1  C   UNL     1      -0.120  11.494  19.653  0.00  0.00    +0.000 C 
ATOM      2  C   UNL     1       0.010  11.010  18.376  0.00  0.00    +0.000 C 
ATOM      3  N   UNL     1      -1.136  10.916  17.576  0.00  0.00    +0.000 N 
ATOM      4  C   UNL     1      -2.336  11.332  18.014  0.00  0.00    +0.000 A 
ATOM      5  N   UNL     1      -3.506  11.367  17.328  0.00  0.00    +0.000 N 
ATOM      6  N   UNL     1      -4.523  11.857  18.068  0.00  0.00    +0.000 NA
ATOM      7  C   UNL     1      -3.964  12.134  19.260  0.00  0.00    +0.000 A 
ATOM      8  C   UNL     1      -4.789  12.712  20.352  0.00  0.00    +0.000 C 
ATOM      9  C   UNL     1      -2.582  11.815  19.271  0.00  0.00    +0.000 A 
ATOM     10  C   UNL     1      -1.477  11.867  20.280  0.00  0.00    +0.000 C 
ATOM     11  H   UNL     1      -0.938  10.571  16.632  0.00  0.00    +0.000 HD
ATOM     12  H   UNL     1      -3.690  11.083  16.374  0.00  0.00    +0.000 HD
ENDROOT
BRANCH  10  13
ATOM     13  C   UNL     1      -1.531  13.250  20.913  0.00  0.00    +0.000 A 
ATOM     14  C   UNL     1      -1.376  14.376  20.097  0.00  0.00    +0.000 A 
ATOM     15  C   UNL     1      -1.439  15.669  20.631  0.00  0.00    +0.000 A 
ATOM     16  C   UNL     1      -1.677  15.916  21.990  0.00  0.00    +0.000 A 
ATOM     17  C   UNL     1      -1.825  14.773  22.796  0.00  0.00    +0.000 A 
ATOM     18  C   UNL     1      -1.755  13.469  22.275  0.00  0.00    +0.000 A 
BRANCH  16  19
ATOM     19  N   UNL     1      -1.693  17.214  22.494  0.00  0.00    +0.000 N 
ATOM     20  C   UNL     1      -2.961  17.918  22.689  0.00  0.00    +0.000 C 
ATOM     21  C   UNL     1      -0.590  17.743  23.288  0.00  0.00    +0.000 C 
ENDBRANCH  16  19
ENDBRANCH  10  13
BRANCH   2  22
ATOM     22  N   UNL     1       1.230  10.600  17.847  0.00  0.00    +0.000 N 
ATOM     23  C   UNL     1       1.936   9.439  18.042  0.00  0.00    +0.000 C 
ATOM     24  N   UNL     1       1.646   8.466  18.841  0.00  0.00    +0.000 NA
ATOM     25  H   UNL     1       1.559  11.198  17.093  0.00  0.00    +0.000 HD
BRANCH  24  26
ATOM     26  C   UNL     1       2.426   7.294  18.812  0.00  0.00    +0.000 A 
ATOM     27  C   UNL     1       3.446   7.200  17.856  0.00  0.00    +0.000 A 
ATOM     28  C   UNL     1       4.393   6.168  17.905  0.00  0.00    +0.000 A 
ATOM     29  C   UNL     1       4.316   5.211  18.923  0.00  0.00    +0.000 A 
ATOM     30  C   UNL     1       3.270   5.251  19.850  0.00  0.00    +0.000 A 
ATOM     31  C   UNL     1       2.337   6.295  19.793  0.00  0.00    +0.000 A 
BRANCH  29  32
ATOM     32  N   UNL     1       5.371   4.196  19.056  0.00  0.00    +0.000 N 
ATOM     33  O   UNL     1       6.504   4.484  18.644  0.00  0.00    +0.000 OA
ATOM     34  O   UNL     1       5.069   3.118  19.586  0.00  0.00    +0.000 OA
ENDBRANCH  29  32
ENDBRANCH  24  26
ENDBRANCH   2  22
BRANCH   1  35
ATOM     35  C   UNL     1       1.016  11.645  20.600  0.00  0.00    +0.000 C 
ATOM     36  O   UNL     1       1.083  11.082  21.680  0.00  0.00    +0.000 OA
BRANCH  35  37
ATOM     37  O   UNL     1       1.934  12.526  20.118  0.00  0.00    +0.000 OA
BRANCH  37  39
ATOM     38  C   UNL     1       2.277  14.920  20.042  0.00  0.00    +0.000 C 
ATOM     39  C   UNL     1       2.171  13.691  20.924  0.00  0.00    +0.000 C 
ENDBRANCH  37  39
ENDBRANCH  35  37
ENDBRANCH   1  35
TORSDOF 8
ENDMDL
MODEL 9
REMARK VINA RESULT:      -7.5      0.839      1.764
REMARK  Name = 
REMARK  12 active torsions:
REMARK  status: ('A' for Active; 'I' for Inactive)
REMARK    1  A    between atoms: C_1  and  C_2
REMARK    2  A    between atoms: C_2  and  O_3
REMARK    3  A    between atoms: O_3  and  C_4
REMARK    4  A    between atoms: C_4  and  C_6
REMARK    5  A    between atoms: C_7  and  N_8
REMARK    6  A    between atoms: N_10  and  C_11
REMARK    7  A    between atoms: C_14  and  N_15
REMARK    8  A    between atoms: C_24  and  C_25
REMARK    9  A    between atoms: C_27  and  C_28
REMARK   10  A    between atoms: C_31  and  N_32
REMARK   11  A    between atoms: N_32  and  C_33
REMARK   12  A    between atoms: N_32  and  C_34
REMARK                            x       y       z     vdW  Elec       q    Type
REMARK                         _______ _______ _______ _____ _____    ______ ____
ROOT
ATOM      1  C   UNL     1      -0.577  11.573  19.820  0.00  0.00    +0.000 C 
ATOM      2  C   UNL     1      -0.233  11.331  18.514  0.00  0.00    +0.000 C 
ATOM      3  N   UNL     1      -1.245  11.320  17.546  0.00  0.00    +0.000 N 
ATOM      4  C   UNL     1      -2.523  11.589  17.862  0.00  0.00    +0.000 A 
ATOM      5  N   UNL     1      -3.585  11.686  17.023  0.00  0.00    +0.000 N 
ATOM      6  N   UNL     1      -4.731  11.983  17.673  0.00  0.00    +0.000 NA
ATOM      7  C   UNL     1      -4.366  12.073  18.965  0.00  0.00    +0.000 A 
ATOM      8  C   UNL     1      -5.378  12.406  20.002  0.00  0.00    +0.000 C 
ATOM      9  C   UNL     1      -2.979  11.830  19.130  0.00  0.00    +0.000 A 
ATOM     10  C   UNL     1      -2.033  11.759  20.289  0.00  0.00    +0.000 C 
ATOM     11  H   UNL     1      -0.891  11.159  16.598  0.00  0.00    +0.000 HD
ATOM     12  H   UNL     1      -3.612  11.566  16.018  0.00  0.00    +0.000 HD
ENDROOT
BRANCH  10  13
ATOM     13  C   UNL     1      -2.280  13.003  21.129  0.00  0.00    +0.000 A 
ATOM     14  C   UNL     1      -2.663  12.853  22.467  0.00  0.00    +0.000 A 
ATOM     15  C   UNL     1      -2.883  13.970  23.284  0.00  0.00    +0.000 A 
ATOM     16  C   UNL     1      -2.715  15.284  22.830  0.00  0.00    +0.000 A 
ATOM     17  C   UNL     1      -2.335  15.416  21.482  0.00  0.00    +0.000 A 
ATOM     18  C   UNL     1      -2.121  14.305  20.648  0.00  0.00    +0.000 A 
BRANCH  16  19
ATOM     19  N   UNL     1      -2.981  16.372  23.659  0.00  0.00    +0.000 N 
ATOM     20  C   UNL     1      -3.662  16.180  24.939  0.00  0.00    +0.000 C 
ATOM     21  C   UNL     1      -2.212  17.609  23.573  0.00  0.00    +0.000 C 
ENDBRANCH  16  19
ENDBRANCH  10  13
BRANCH   2  22
ATOM     22  N   UNL     1       1.077  11.084  18.114  0.00  0.00    +0.000 N 
ATOM     23  C   UNL     1       1.852   9.961  18.258  0.00  0.00    +0.000 C 
ATOM     24  N   UNL     1       1.548   8.869  18.881  0.00  0.00    +0.000 NA
ATOM     25  H   UNL     1       1.447  11.801  17.494  0.00  0.00    +0.000 HD
BRANCH  24  26
ATOM     26  C   UNL     1       2.427   7.770  18.814  0.00  0.00    +0.000 A 
ATOM     27  C   UNL     1       2.342   6.792  19.814  0.00  0.00    +0.000 A 
ATOM     28  C   UNL     1       3.029   5.576  19.697  0.00  0.00    +0.000 A 
ATOM     29  C   UNL     1       3.816   5.334  18.566  0.00  0.00    +0.000 A 
ATOM     30  C   UNL     1       3.963   6.322  17.586  0.00  0.00    +0.000 A 
ATOM     31  C   UNL     1       3.262   7.529  17.713  0.00  0.00    +0.000 A 
BRANCH  29  32
ATOM     32  N   UNL     1       4.442   4.019  18.375  0.00  0.00    +0.000 N 
ATOM     33  O   UNL     1       5.543   3.820  18.909  0.00  0.00    +0.000 OA
ATOM     34  O   UNL     1       3.824   3.179  17.705  0.00  0.00    +0.000 OA
ENDBRANCH  29  32
ENDBRANCH  24  26
ENDBRANCH   2  22
BRANCH   1  35
ATOM     35  C   UNL     1       0.401  11.613  20.939  0.00  0.00    +0.000 C 
ATOM     36  O   UNL     1       0.249  11.025  21.997  0.00  0.00    +0.000 OA
BRANCH  35  37
ATOM     37  O   UNL     1       1.451  12.424  20.636  0.00  0.00    +0.000 OA
BRANCH  37  39
ATOM     38  C   UNL     1       1.491  14.740  19.938  0.00  0.00    +0.000 C 
ATOM     39  C   UNL     1       1.353  13.779  21.103  0.00  0.00    +0.000 C 
ENDBRANCH  37  39
ENDBRANCH  35  37
ENDBRANCH   1  35
TORSDOF 8
ENDMDL
