MODEL 1
REMARK VINA RESULT:      -8.1      0.000      0.000
REMARK  Name = 
REMARK  6 active torsions:
REMARK  status: ('A' for Active; 'I' for Inactive)
REMARK    1  A    between atoms: C_2  and  C_4
REMARK    2  A    between atoms: C_9  and  C_11
REMARK    3  A    between atoms: C_11  and  C_12
REMARK    4  A    between atoms: C_11  and  N_18
REMARK    5  A    between atoms: C_12  and  C_13
REMARK    6  A    between atoms: C_19  and  C_21
REMARK                            x       y       z     vdW  Elec       q    Type
REMARK                         _______ _______ _______ _____ _____    ______ ____
ROOT
ATOM      1  C   UNL     1       4.796   4.174  17.714  0.00  0.00    +0.000 C 
ENDROOT
BRANCH   1   7
ATOM      2  C   UNL     1       1.880   4.762  18.982  0.00  0.00    +0.000 C 
ATOM      3  C   UNL     1       1.285   4.244  20.292  0.00  0.00    +0.000 C 
ATOM      4  C   UNL     1       0.568   2.981  19.814  0.00  0.00    +0.000 C 
ATOM      5  C   UNL     1       1.478   2.437  18.712  0.00  0.00    +0.000 C 
ATOM      6  N   UNL     1       2.416   3.516  18.401  0.00  0.00    +0.000 N 
ATOM      7  C   UNL     1       3.682   3.142  17.973  0.00  0.00    +0.000 C 
ATOM      8  O   UNL     1       3.923   1.949  17.722  0.00  0.00    +0.000 OA
BRANCH   2  10
ATOM      9  N   UNL     1       2.749   6.764  20.197  0.00  0.00    +0.000 N 
ATOM     10  C   UNL     1       2.549   6.151  18.998  0.00  0.00    +0.000 C 
ATOM     11  O   UNL     1       2.830   6.776  17.981  0.00  0.00    +0.000 OA
ATOM     12  H   UNL     1       3.080   7.719  20.135  0.00  0.00    +0.000 HD
ATOM     13  H   UNL     1       2.247   6.511  21.038  0.00  0.00    +0.000 HD
ENDBRANCH   2  10
ENDBRANCH   1   7
BRANCH   1  14
ATOM     14  N   UNL     1       5.559   3.744  16.532  0.00  0.00    +0.000 N 
ATOM     15  C   UNL     1       5.651   4.511  15.401  0.00  0.00    +0.000 C 
ATOM     16  O   UNL     1       5.017   5.553  15.242  0.00  0.00    +0.000 OA
ATOM     17  H   UNL     1       6.056   2.859  16.606  0.00  0.00    +0.000 HD
BRANCH  15  18
ATOM     18  C   UNL     1       6.515   3.930  14.280  0.00  0.00    +0.000 C 
ATOM     19  C   UNL     1       6.974   4.968  13.270  0.00  0.00    +0.000 C 
ATOM     20  C   UNL     1       7.268   4.133  12.026  0.00  0.00    +0.000 C 
ATOM     21  C   UNL     1       6.292   2.990  12.156  0.00  0.00    +0.000 C 
ATOM     22  O   UNL     1       6.008   2.172  11.301  0.00  0.00    +0.000 OA
ATOM     23  N   UNL     1       5.816   2.979  13.449  0.00  0.00    +0.000 N 
ATOM     24  H   UNL     1       5.257   2.206  13.788  0.00  0.00    +0.000 HD
ENDBRANCH  15  18
ENDBRANCH   1  14
BRANCH   1  25
ATOM     25  C   UNL     1       5.715   4.426  18.917  0.00  0.00    +0.000 C 
BRANCH  25  26
ATOM     26  C   UNL     1       6.666   5.574  18.780  0.00  0.00    +0.000 A 
ATOM     27  C   UNL     1       7.856   5.813  19.440  0.00  0.00    +0.000 A 
ATOM     28  N   UNL     1       8.370   6.945  18.865  0.00  0.00    +0.000 N 
ATOM     29  C   UNL     1       7.494   7.345  17.897  0.00  0.00    +0.000 A 
ATOM     30  N   UNL     1       6.461   6.537  17.816  0.00  0.00    +0.000 NA
ATOM     31  H   UNL     1       9.246   7.393  19.091  0.00  0.00    +0.000 HD
ENDBRANCH  25  26
ENDBRANCH   1  25
TORSDOF 6
ENDMDL
MODEL 2
REMARK VINA RESULT:      -7.7      2.614      7.309
REMARK  Name = 
REMARK  6 active torsions:
REMARK  status: ('A' for Active; 'I' for Inactive)
REMARK    1  A    between atoms: C_2  and  C_4
REMARK    2  A    between atoms: C_9  and  C_11
REMARK    3  A    between atoms: C_11  and  C_12
REMARK    4  A    between atoms: C_11  and  N_18
REMARK    5  A    between atoms: C_12  and  C_13
REMARK    6  A    between atoms: C_19  and  C_21
REMARK                            x       y       z     vdW  Elec       q    Type
REMARK                         _______ _______ _______ _____ _____    ______ ____
ROOT
ATOM      1  C   UNL     1       3.177   5.766  17.908  0.00  0.00    +0.000 C 
ENDROOT
BRANCH   1   7
ATOM      2  C   UNL     1       6.254   5.705  16.915  0.00  0.00    +0.000 C 
ATOM      3  C   UNL     1       7.275   4.573  17.037  0.00  0.00    +0.000 C 
ATOM      4  C   UNL     1       7.951   4.923  18.362  0.00  0.00    +0.000 C 
ATOM      5  C   UNL     1       6.817   5.495  19.213  0.00  0.00    +0.000 C 
ATOM      6  N   UNL     1       5.712   5.746  18.287  0.00  0.00    +0.000 N 
ATOM      7  C   UNL     1       4.427   5.632  18.798  0.00  0.00    +0.000 C 
ATOM      8  O   UNL     1       4.258   5.482  20.021  0.00  0.00    +0.000 OA
BRANCH   2  10
ATOM      9  N   UNL     1       5.299   4.705  14.835  0.00  0.00    +0.000 N 
ATOM     10  C   UNL     1       5.468   5.822  15.594  0.00  0.00    +0.000 C 
ATOM     11  O   UNL     1       5.063   6.888  15.143  0.00  0.00    +0.000 OA
ATOM     12  H   UNL     1       4.881   4.868  13.926  0.00  0.00    +0.000 HD
ATOM     13  H   UNL     1       5.878   3.881  14.926  0.00  0.00    +0.000 HD
ENDBRANCH   2  10
ENDBRANCH   1   7
BRANCH   1  14
ATOM     14  N   UNL     1       2.274   6.751  18.524  0.00  0.00    +0.000 N 
ATOM     15  C   UNL     1       2.228   8.058  18.118  0.00  0.00    +0.000 C 
ATOM     16  O   UNL     1       3.009   8.533  17.295  0.00  0.00    +0.000 OA
ATOM     17  H   UNL     1       1.647   6.405  19.248  0.00  0.00    +0.000 HD
BRANCH  15  18
ATOM     18  C   UNL     1       1.206   8.937  18.840  0.00  0.00    +0.000 C 
ATOM     19  C   UNL     1       1.361  10.418  18.539  0.00  0.00    +0.000 C 
ATOM     20  C   UNL     1       0.698  11.086  19.742  0.00  0.00    +0.000 C 
ATOM     21  C   UNL     1       0.946  10.093  20.850  0.00  0.00    +0.000 C 
ATOM     22  O   UNL     1       0.783  10.275  22.042  0.00  0.00    +0.000 OA
ATOM     23  N   UNL     1       1.330   8.900  20.277  0.00  0.00    +0.000 N 
ATOM     24  H   UNL     1       1.406   8.059  20.837  0.00  0.00    +0.000 HD
ENDBRANCH  15  18
ENDBRANCH   1  14
BRANCH   1  25
ATOM     25  C   UNL     1       2.458   4.440  17.626  0.00  0.00    +0.000 C 
BRANCH  25  26
ATOM     26  C   UNL     1       2.019   3.670  18.833  0.00  0.00    +0.000 A 
ATOM     27  C   UNL     1       2.409   2.417  19.265  0.00  0.00    +0.000 A 
ATOM     28  N   UNL     1       1.782   2.236  20.469  0.00  0.00    +0.000 N 
ATOM     29  C   UNL     1       1.049   3.360  20.720  0.00  0.00    +0.000 A 
ATOM     30  N   UNL     1       1.175   4.245  19.757  0.00  0.00    +0.000 NA
ATOM     31  H   UNL     1       1.861   1.434  21.077  0.00  0.00    +0.000 HD
ENDBRANCH  25  26
ENDBRANCH   1  25
TORSDOF 6
ENDMDL
MODEL 3
REMARK VINA RESULT:      -7.5      2.069      6.260
REMARK  Name = 
REMARK  6 active torsions:
REMARK  status: ('A' for Active; 'I' for Inactive)
REMARK    1  A    between atoms: C_2  and  C_4
REMARK    2  A    between atoms: C_9  and  C_11
REMARK    3  A    between atoms: C_11  and  C_12
REMARK    4  A    between atoms: C_11  and  N_18
REMARK    5  A    between atoms: C_12  and  C_13
REMARK    6  A    between atoms: C_19  and  C_21
REMARK                            x       y       z     vdW  Elec       q    Type
REMARK                         _______ _______ _______ _____ _____    ______ ____
ROOT
ATOM      1  C   UNL     1       5.738   4.217  16.814  0.00  0.00    +0.000 C 
ENDROOT
BRANCH   1   7
ATOM      2  C   UNL     1       6.179   7.308  17.656  0.00  0.00    +0.000 C 
ATOM      3  C   UNL     1       7.295   8.264  17.233  0.00  0.00    +0.000 C 
ATOM      4  C   UNL     1       8.310   8.053  18.357  0.00  0.00    +0.000 C 
ATOM      5  C   UNL     1       8.184   6.566  18.692  0.00  0.00    +0.000 C 
ATOM      6  N   UNL     1       6.958   6.113  18.035  0.00  0.00    +0.000 N 
ATOM      7  C   UNL     1       6.925   4.792  17.611  0.00  0.00    +0.000 C 
ATOM      8  O   UNL     1       7.842   4.016  17.932  0.00  0.00    +0.000 OA
BRANCH   2  10
ATOM      9  N   UNL     1       3.688   7.455  17.549  0.00  0.00    +0.000 N 
ATOM     10  C   UNL     1       4.859   7.352  16.862  0.00  0.00    +0.000 C 
ATOM     11  O   UNL     1       4.799   7.207  15.645  0.00  0.00    +0.000 OA
ATOM     12  H   UNL     1       2.854   7.358  16.982  0.00  0.00    +0.000 HD
ATOM     13  H   UNL     1       3.600   7.224  18.529  0.00  0.00    +0.000 HD
ENDBRANCH   2  10
ENDBRANCH   1   7
BRANCH   1  14
ATOM     14  N   UNL     1       4.859   3.496  17.748  0.00  0.00    +0.000 N 
ATOM     15  C   UNL     1       3.516   3.750  17.833  0.00  0.00    +0.000 C 
ATOM     16  O   UNL     1       2.966   4.668  17.227  0.00  0.00    +0.000 OA
ATOM     17  H   UNL     1       5.290   2.763  18.307  0.00  0.00    +0.000 HD
BRANCH  15  18
ATOM     18  C   UNL     1       2.744   2.885  18.830  0.00  0.00    +0.000 C 
ATOM     19  C   UNL     1       1.303   3.326  19.026  0.00  0.00    +0.000 C 
ATOM     20  C   UNL     1       0.951   2.755  20.398  0.00  0.00    +0.000 C 
ATOM     21  C   UNL     1       2.279   2.771  21.114  0.00  0.00    +0.000 C 
ATOM     22  O   UNL     1       2.468   2.600  22.304  0.00  0.00    +0.000 OA
ATOM     23  N   UNL     1       3.270   2.945  20.173  0.00  0.00    +0.000 N 
ATOM     24  H   UNL     1       4.246   2.842  20.424  0.00  0.00    +0.000 HD
ENDBRANCH  15  18
ENDBRANCH   1  14
BRANCH   1  25
ATOM     25  C   UNL     1       6.145   3.333  15.627  0.00  0.00    +0.000 C 
BRANCH  25  26
ATOM     26  C   UNL     1       6.614   4.062  14.406  0.00  0.00    +0.000 A 
ATOM     27  C   UNL     1       7.411   5.185  14.305  0.00  0.00    +0.000 A 
ATOM     28  N   UNL     1       7.613   5.369  12.963  0.00  0.00    +0.000 N 
ATOM     29  C   UNL     1       6.947   4.372  12.310  0.00  0.00    +0.000 A 
ATOM     30  N   UNL     1       6.340   3.565  13.151  0.00  0.00    +0.000 NA
ATOM     31  H   UNL     1       8.172   6.089  12.529  0.00  0.00    +0.000 HD
ENDBRANCH  25  26
ENDBRANCH   1  25
TORSDOF 6
ENDMDL
MODEL 4
REMARK VINA RESULT:      -7.4      2.697      7.236
REMARK  Name = 
REMARK  6 active torsions:
REMARK  status: ('A' for Active; 'I' for Inactive)
REMARK    1  A    between atoms: C_2  and  C_4
REMARK    2  A    between atoms: C_9  and  C_11
REMARK    3  A    between atoms: C_11  and  C_12
REMARK    4  A    between atoms: C_11  and  N_18
REMARK    5  A    between atoms: C_12  and  C_13
REMARK    6  A    between atoms: C_19  and  C_21
REMARK                            x       y       z     vdW  Elec       q    Type
REMARK                         _______ _______ _______ _____ _____    ______ ____
ROOT
ATOM      1  C   UNL     1       3.156   5.960  17.967  0.00  0.00    +0.000 C 
ENDROOT
BRANCH   1   7
ATOM      2  C   UNL     1       6.190   5.690  16.880  0.00  0.00    +0.000 C 
ATOM      3  C   UNL     1       7.121   4.478  16.938  0.00  0.00    +0.000 C 
ATOM      4  C   UNL     1       7.860   4.733  18.251  0.00  0.00    +0.000 C 
ATOM      5  C   UNL     1       6.799   5.366  19.153  0.00  0.00    +0.000 C 
ATOM      6  N   UNL     1       5.692   5.731  18.269  0.00  0.00    +0.000 N 
ATOM      7  C   UNL     1       4.417   5.701  18.815  0.00  0.00    +0.000 C 
ATOM      8  O   UNL     1       4.271   5.526  20.037  0.00  0.00    +0.000 OA
BRANCH   2  10
ATOM      9  N   UNL     1       5.078   4.829  14.815  0.00  0.00    +0.000 N 
ATOM     10  C   UNL     1       5.378   5.909  15.587  0.00  0.00    +0.000 C 
ATOM     11  O   UNL     1       5.066   7.018  15.167  0.00  0.00    +0.000 OA
ATOM     12  H   UNL     1       4.650   5.050  13.924  0.00  0.00    +0.000 HD
ATOM     13  H   UNL     1       5.576   3.951  14.874  0.00  0.00    +0.000 HD
ENDBRANCH   2  10
ENDBRANCH   1   7
BRANCH   1  14
ATOM     14  N   UNL     1       2.432   7.098  18.552  0.00  0.00    +0.000 N 
ATOM     15  C   UNL     1       2.377   8.323  17.942  0.00  0.00    +0.000 C 
ATOM     16  O   UNL     1       3.017   8.597  16.927  0.00  0.00    +0.000 OA
ATOM     17  H   UNL     1       1.931   6.924  19.421  0.00  0.00    +0.000 HD
BRANCH  15  18
ATOM     18  C   UNL     1       1.550   9.385  18.668  0.00  0.00    +0.000 C 
ATOM     19  C   UNL     1       0.964   8.901  19.984  0.00  0.00    +0.000 C 
ATOM     20  C   UNL     1      -0.221   9.839  20.199  0.00  0.00    +0.000 C 
ATOM     21  C   UNL     1      -0.645  10.168  18.789  0.00  0.00    +0.000 C 
ATOM     22  O   UNL     1      -1.674  10.719  18.447  0.00  0.00    +0.000 OA
ATOM     23  N   UNL     1       0.374   9.796  17.939  0.00  0.00    +0.000 N 
ATOM     24  H   UNL     1       0.354  10.060  16.962  0.00  0.00    +0.000 HD
ENDBRANCH  15  18
ENDBRANCH   1  14
BRANCH   1  25
ATOM     25  C   UNL     1       2.245   4.736  17.802  0.00  0.00    +0.000 C 
BRANCH  25  26
ATOM     26  C   UNL     1       1.890   4.015  19.066  0.00  0.00    +0.000 A 
ATOM     27  C   UNL     1       0.996   4.368  20.058  0.00  0.00    +0.000 A 
ATOM     28  N   UNL     1       0.983   3.312  20.929  0.00  0.00    +0.000 N 
ATOM     29  C   UNL     1       1.851   2.375  20.447  0.00  0.00    +0.000 A 
ATOM     30  N   UNL     1       2.408   2.765  19.323  0.00  0.00    +0.000 NA
ATOM     31  H   UNL     1       0.421   3.223  21.763  0.00  0.00    +0.000 HD
ENDBRANCH  25  26
ENDBRANCH   1  25
TORSDOF 6
ENDMDL
MODEL 5
REMARK VINA RESULT:      -7.4      2.716      6.978
REMARK  Name = 
REMARK  6 active torsions:
REMARK  status: ('A' for Active; 'I' for Inactive)
REMARK    1  A    between atoms: C_2  and  C_4
REMARK    2  A    between atoms: C_9  and  C_11
REMARK    3  A    between atoms: C_11  and  C_12
REMARK    4  A    between atoms: C_11  and  N_18
REMARK    5  A    between atoms: C_12  and  C_13
REMARK    6  A    between atoms: C_19  and  C_21
REMARK                            x       y       z     vdW  Elec       q    Type
REMARK                         _______ _______ _______ _____ _____    ______ ____
ROOT
ATOM      1  C   UNL     1       3.051   5.891  17.898  0.00  0.00    +0.000 C 
ENDROOT
BRANCH   1   7
ATOM      2  C   UNL     1       6.135   5.695  16.944  0.00  0.00    +0.000 C 
ATOM      3  C   UNL     1       7.098   4.513  17.062  0.00  0.00    +0.000 C 
ATOM      4  C   UNL     1       7.773   4.811  18.401  0.00  0.00    +0.000 C 
ATOM      5  C   UNL     1       6.656   5.425  19.246  0.00  0.00    +0.000 C 
ATOM      6  N   UNL     1       5.577   5.743  18.309  0.00  0.00    +0.000 N 
ATOM      7  C   UNL     1       4.281   5.683  18.802  0.00  0.00    +0.000 C 
ATOM      8  O   UNL     1       4.089   5.524  20.020  0.00  0.00    +0.000 OA
BRANCH   2  10
ATOM      9  N   UNL     1       5.007   7.124  15.233  0.00  0.00    +0.000 N 
ATOM     10  C   UNL     1       5.374   5.869  15.615  0.00  0.00    +0.000 C 
ATOM     11  O   UNL     1       4.998   4.927  14.925  0.00  0.00    +0.000 OA
ATOM     12  H   UNL     1       4.409   7.161  14.417  0.00  0.00    +0.000 HD
ATOM     13  H   UNL     1       4.947   7.902  15.876  0.00  0.00    +0.000 HD
ENDBRANCH   2  10
ENDBRANCH   1   7
BRANCH   1  14
ATOM     14  N   UNL     1       2.319   7.073  18.377  0.00  0.00    +0.000 N 
ATOM     15  C   UNL     1       2.500   8.318  17.834  0.00  0.00    +0.000 C 
ATOM     16  O   UNL     1       3.362   8.563  16.991  0.00  0.00    +0.000 OA
ATOM     17  H   UNL     1       1.633   6.918  19.113  0.00  0.00    +0.000 HD
BRANCH  15  18
ATOM     18  C   UNL     1       1.631   9.428  18.426  0.00  0.00    +0.000 C 
ATOM     19  C   UNL     1       1.076   9.094  19.801  0.00  0.00    +0.000 C 
ATOM     20  C   UNL     1      -0.148  10.000  19.907  0.00  0.00    +0.000 C 
ATOM     21  C   UNL     1      -0.595  10.124  18.472  0.00  0.00    +0.000 C 
ATOM     22  O   UNL     1      -1.650  10.582  18.073  0.00  0.00    +0.000 OA
ATOM     23  N   UNL     1       0.434   9.690  17.665  0.00  0.00    +0.000 N 
ATOM     24  H   UNL     1       0.396   9.823  16.661  0.00  0.00    +0.000 HD
ENDBRANCH  15  18
ENDBRANCH   1  14
BRANCH   1  25
ATOM     25  C   UNL     1       2.134   4.665  17.789  0.00  0.00    +0.000 C 
BRANCH  25  26
ATOM     26  C   UNL     1       2.795   3.339  18.000  0.00  0.00    +0.000 A 
ATOM     27  C   UNL     1       3.806   2.736  17.276  0.00  0.00    +0.000 A 
ATOM     28  N   UNL     1       4.102   1.584  17.954  0.00  0.00    +0.000 N 
ATOM     29  C   UNL     1       3.280   1.528  19.043  0.00  0.00    +0.000 A 
ATOM     30  N   UNL     1       2.486   2.573  19.102  0.00  0.00    +0.000 NA
ATOM     31  H   UNL     1       4.813   0.908  17.715  0.00  0.00    +0.000 HD
ENDBRANCH  25  26
ENDBRANCH   1  25
TORSDOF 6
ENDMDL
MODEL 6
REMARK VINA RESULT:      -7.2      2.797      7.220
REMARK  Name = 
REMARK  6 active torsions:
REMARK  status: ('A' for Active; 'I' for Inactive)
REMARK    1  A    between atoms: C_2  and  C_4
REMARK    2  A    between atoms: C_9  and  C_11
REMARK    3  A    between atoms: C_11  and  C_12
REMARK    4  A    between atoms: C_11  and  N_18
REMARK    5  A    between atoms: C_12  and  C_13
REMARK    6  A    between atoms: C_19  and  C_21
REMARK                            x       y       z     vdW  Elec       q    Type
REMARK                         _______ _______ _______ _____ _____    ______ ____
ROOT
ATOM      1  C   UNL     1       3.171   5.847  17.887  0.00  0.00    +0.000 C 
ENDROOT
BRANCH   1   7
ATOM      2  C   UNL     1       6.243   5.700  16.888  0.00  0.00    +0.000 C 
ATOM      3  C   UNL     1       7.233   4.541  17.011  0.00  0.00    +0.000 C 
ATOM      4  C   UNL     1       7.922   4.877  18.334  0.00  0.00    +0.000 C 
ATOM      5  C   UNL     1       6.805   5.482  19.185  0.00  0.00    +0.000 C 
ATOM      6  N   UNL     1       5.705   5.760  18.261  0.00  0.00    +0.000 N 
ATOM      7  C   UNL     1       4.419   5.682  18.775  0.00  0.00    +0.000 C 
ATOM      8  O   UNL     1       4.249   5.540  19.998  0.00  0.00    +0.000 OA
BRANCH   2  10
ATOM      9  N   UNL     1       5.263   4.722  14.809  0.00  0.00    +0.000 N 
ATOM     10  C   UNL     1       5.458   5.835  15.568  0.00  0.00    +0.000 C 
ATOM     11  O   UNL     1       5.076   6.910  15.118  0.00  0.00    +0.000 OA
ATOM     12  H   UNL     1       4.848   4.895  13.901  0.00  0.00    +0.000 HD
ATOM     13  H   UNL     1       5.824   3.886  14.899  0.00  0.00    +0.000 HD
ENDBRANCH   2  10
ENDBRANCH   1   7
BRANCH   1  14
ATOM     14  N   UNL     1       2.314   6.885  18.482  0.00  0.00    +0.000 N 
ATOM     15  C   UNL     1       2.263   8.163  17.992  0.00  0.00    +0.000 C 
ATOM     16  O   UNL     1       3.006   8.570  17.100  0.00  0.00    +0.000 OA
ATOM     17  H   UNL     1       1.722   6.598  19.258  0.00  0.00    +0.000 HD
BRANCH  15  18
ATOM     18  C   UNL     1       1.292   9.104  18.706  0.00  0.00    +0.000 C 
ATOM     19  C   UNL     1       0.006   9.346  17.933  0.00  0.00    +0.000 C 
ATOM     20  C   UNL     1      -0.487  10.678  18.495  0.00  0.00    +0.000 C 
ATOM     21  C   UNL     1       0.797  11.378  18.863  0.00  0.00    +0.000 C 
ATOM     22  O   UNL     1       0.929  12.551  19.160  0.00  0.00    +0.000 OA
ATOM     23  N   UNL     1       1.807  10.441  18.875  0.00  0.00    +0.000 N 
ATOM     24  H   UNL     1       2.724  10.674  19.237  0.00  0.00    +0.000 HD
ENDBRANCH  15  18
ENDBRANCH   1  14
BRANCH   1  25
ATOM     25  C   UNL     1       2.394   4.547  17.641  0.00  0.00    +0.000 C 
BRANCH  25  26
ATOM     26  C   UNL     1       2.013   3.776  18.867  0.00  0.00    +0.000 A 
ATOM     27  C   UNL     1       2.459   2.544  19.304  0.00  0.00    +0.000 A 
ATOM     28  N   UNL     1       1.869   2.355  20.525  0.00  0.00    +0.000 N 
ATOM     29  C   UNL     1       1.103   3.455  20.782  0.00  0.00    +0.000 A 
ATOM     30  N   UNL     1       1.173   4.332  19.806  0.00  0.00    +0.000 NA
ATOM     31  H   UNL     1       1.992   1.564  21.140  0.00  0.00    +0.000 HD
ENDBRANCH  25  26
ENDBRANCH   1  25
TORSDOF 6
ENDMDL
MODEL 7
REMARK VINA RESULT:      -7.2      2.673      7.176
REMARK  Name = 
REMARK  6 active torsions:
REMARK  status: ('A' for Active; 'I' for Inactive)
REMARK    1  A    between atoms: C_2  and  C_4
REMARK    2  A    between atoms: C_9  and  C_11
REMARK    3  A    between atoms: C_11  and  C_12
REMARK    4  A    between atoms: C_11  and  N_18
REMARK    5  A    between atoms: C_12  and  C_13
REMARK    6  A    between atoms: C_19  and  C_21
REMARK                            x       y       z     vdW  Elec       q    Type
REMARK                         _______ _______ _______ _____ _____    ______ ____
ROOT
ATOM      1  C   UNL     1       3.112   5.953  17.844  0.00  0.00    +0.000 C 
ENDROOT
BRANCH   1   7
ATOM      2  C   UNL     1       6.196   5.695  16.904  0.00  0.00    +0.000 C 
ATOM      3  C   UNL     1       7.130   4.490  17.012  0.00  0.00    +0.000 C 
ATOM      4  C   UNL     1       7.804   4.754  18.359  0.00  0.00    +0.000 C 
ATOM      5  C   UNL     1       6.697   5.384  19.206  0.00  0.00    +0.000 C 
ATOM      6  N   UNL     1       5.631   5.740  18.268  0.00  0.00    +0.000 N 
ATOM      7  C   UNL     1       4.332   5.705  18.752  0.00  0.00    +0.000 C 
ATOM      8  O   UNL     1       4.129   5.535  19.967  0.00  0.00    +0.000 OA
BRANCH   2  10
ATOM      9  N   UNL     1       5.258   4.833  14.757  0.00  0.00    +0.000 N 
ATOM     10  C   UNL     1       5.447   5.905  15.574  0.00  0.00    +0.000 C 
ATOM     11  O   UNL     1       5.091   7.006  15.166  0.00  0.00    +0.000 OA
ATOM     12  H   UNL     1       4.868   5.055  13.848  0.00  0.00    +0.000 HD
ATOM     13  H   UNL     1       5.806   3.985  14.820  0.00  0.00    +0.000 HD
ENDBRANCH   2  10
ENDBRANCH   1   7
BRANCH   1  14
ATOM     14  N   UNL     1       2.251   6.955  18.490  0.00  0.00    +0.000 N 
ATOM     15  C   UNL     1       2.137   8.236  18.020  0.00  0.00    +0.000 C 
ATOM     16  O   UNL     1       2.826   8.678  17.101  0.00  0.00    +0.000 OA
ATOM     17  H   UNL     1       1.703   6.640  19.288  0.00  0.00    +0.000 HD
BRANCH  15  18
ATOM     18  C   UNL     1       1.169   9.137  18.789  0.00  0.00    +0.000 C 
ATOM     19  C   UNL     1       1.423  10.620  18.575  0.00  0.00    +0.000 C 
ATOM     20  C   UNL     1       0.796  11.258  19.813  0.00  0.00    +0.000 C 
ATOM     21  C   UNL     1       0.971  10.189  20.862  0.00  0.00    +0.000 C 
ATOM     22  O   UNL     1       0.811  10.312  22.062  0.00  0.00    +0.000 OA
ATOM     23  N   UNL     1       1.280   9.008  20.222  0.00  0.00    +0.000 N 
ATOM     24  H   UNL     1       1.297   8.133  20.732  0.00  0.00    +0.000 HD
ENDBRANCH  15  18
ENDBRANCH   1  14
BRANCH   1  25
ATOM     25  C   UNL     1       2.328   4.685  17.480  0.00  0.00    +0.000 C 
BRANCH  25  26
ATOM     26  C   UNL     1       2.887   3.401  18.010  0.00  0.00    +0.000 A 
ATOM     27  C   UNL     1       3.918   2.623  17.520  0.00  0.00    +0.000 A 
ATOM     28  N   UNL     1       4.084   1.619  18.437  0.00  0.00    +0.000 N 
ATOM     29  C   UNL     1       3.168   1.819  19.430  0.00  0.00    +0.000 A 
ATOM     30  N   UNL     1       2.437   2.887  19.206  0.00  0.00    +0.000 NA
ATOM     31  H   UNL     1       4.770   0.880  18.406  0.00  0.00    +0.000 HD
ENDBRANCH  25  26
ENDBRANCH   1  25
TORSDOF 6
ENDMDL
MODEL 8
REMARK VINA RESULT:      -6.9      2.194      4.991
REMARK  Name = 
REMARK  6 active torsions:
REMARK  status: ('A' for Active; 'I' for Inactive)
REMARK    1  A    between atoms: C_2  and  C_4
REMARK    2  A    between atoms: C_9  and  C_11
REMARK    3  A    between atoms: C_11  and  C_12
REMARK    4  A    between atoms: C_11  and  N_18
REMARK    5  A    between atoms: C_12  and  C_13
REMARK    6  A    between atoms: C_19  and  C_21
REMARK                            x       y       z     vdW  Elec       q    Type
REMARK                         _______ _______ _______ _____ _____    ______ ____
ROOT
ATOM      1  C   UNL     1       4.744   4.913  17.945  0.00  0.00    +0.000 C 
ENDROOT
BRANCH   1   7
ATOM      2  C   UNL     1       2.916   3.113  19.914  0.00  0.00    +0.000 C 
ATOM      3  C   UNL     1       1.411   2.853  19.847  0.00  0.00    +0.000 C 
ATOM      4  C   UNL     1       0.875   3.967  20.746  0.00  0.00    +0.000 C 
ATOM      5  C   UNL     1       1.815   5.142  20.473  0.00  0.00    +0.000 C 
ATOM      6  N   UNL     1       2.957   4.580  19.752  0.00  0.00    +0.000 N 
ATOM      7  C   UNL     1       3.597   5.411  18.844  0.00  0.00    +0.000 C 
ATOM      8  O   UNL     1       3.294   6.616  18.788  0.00  0.00    +0.000 OA
BRANCH   2  10
ATOM      9  N   UNL     1       5.094   1.896  19.798  0.00  0.00    +0.000 N 
ATOM     10  C   UNL     1       3.853   2.074  19.268  0.00  0.00    +0.000 C 
ATOM     11  O   UNL     1       3.575   1.461  18.242  0.00  0.00    +0.000 OA
ATOM     12  H   UNL     1       5.703   1.290  19.260  0.00  0.00    +0.000 HD
ATOM     13  H   UNL     1       5.545   2.578  20.394  0.00  0.00    +0.000 HD
ENDBRANCH   2  10
ENDBRANCH   1   7
BRANCH   1  14
ATOM     14  N   UNL     1       5.742   5.988  17.829  0.00  0.00    +0.000 N 
ATOM     15  C   UNL     1       7.076   5.778  18.064  0.00  0.00    +0.000 C 
ATOM     16  O   UNL     1       7.522   4.716  18.496  0.00  0.00    +0.000 OA
ATOM     17  H   UNL     1       5.401   6.897  17.524  0.00  0.00    +0.000 HD
BRANCH  15  18
ATOM     18  C   UNL     1       7.979   6.995  17.862  0.00  0.00    +0.000 C 
ATOM     19  C   UNL     1       8.544   7.551  19.159  0.00  0.00    +0.000 C 
ATOM     20  C   UNL     1       8.876   8.997  18.798  0.00  0.00    +0.000 C 
ATOM     21  C   UNL     1       7.845   9.322  17.746  0.00  0.00    +0.000 C 
ATOM     22  O   UNL     1       7.578  10.422  17.301  0.00  0.00    +0.000 OA
ATOM     23  N   UNL     1       7.291   8.137  17.311  0.00  0.00    +0.000 N 
ATOM     24  H   UNL     1       6.680   8.118  16.503  0.00  0.00    +0.000 HD
ENDBRANCH  15  18
ENDBRANCH   1  14
BRANCH   1  25
ATOM     25  C   UNL     1       4.293   4.412  16.566  0.00  0.00    +0.000 C 
BRANCH  25  26
ATOM     26  C   UNL     1       5.358   4.355  15.515  0.00  0.00    +0.000 A 
ATOM     27  C   UNL     1       5.918   3.258  14.891  0.00  0.00    +0.000 A 
ATOM     28  N   UNL     1       6.766   3.771  13.945  0.00  0.00    +0.000 N 
ATOM     29  C   UNL     1       6.692   5.132  14.026  0.00  0.00    +0.000 A 
ATOM     30  N   UNL     1       5.848   5.515  14.958  0.00  0.00    +0.000 NA
ATOM     31  H   UNL     1       7.326   3.248  13.288  0.00  0.00    +0.000 HD
ENDBRANCH  25  26
ENDBRANCH   1  25
TORSDOF 6
ENDMDL
MODEL 9
REMARK VINA RESULT:      -6.8      9.223     11.418
REMARK  Name = 
REMARK  6 active torsions:
REMARK  status: ('A' for Active; 'I' for Inactive)
REMARK    1  A    between atoms: C_2  and  C_4
REMARK    2  A    between atoms: C_9  and  C_11
REMARK    3  A    between atoms: C_11  and  C_12
REMARK    4  A    between atoms: C_11  and  N_18
REMARK    5  A    between atoms: C_12  and  C_13
REMARK    6  A    between atoms: C_19  and  C_21
REMARK                            x       y       z     vdW  Elec       q    Type
REMARK                         _______ _______ _______ _____ _____    ______ ____
ROOT
ATOM      1  C   UNL     1      -0.705  13.664  20.311  0.00  0.00    +0.000 C 
ENDROOT
BRANCH   1   7
ATOM      2  C   UNL     1       1.747  15.110  18.777  0.00  0.00    +0.000 C 
ATOM      3  C   UNL     1       2.706  16.179  19.303  0.00  0.00    +0.000 C 
ATOM      4  C   UNL     1       1.987  17.459  18.876  0.00  0.00    +0.000 C 
ATOM      5  C   UNL     1       0.505  17.118  19.035  0.00  0.00    +0.000 C 
ATOM      6  N   UNL     1       0.445  15.665  19.197  0.00  0.00    +0.000 N 
ATOM      7  C   UNL     1      -0.588  15.163  19.974  0.00  0.00    +0.000 C 
ATOM      8  O   UNL     1      -1.494  15.920  20.364  0.00  0.00    +0.000 OA
BRANCH   2  10
ATOM      9  N   UNL     1       2.220  12.906  17.702  0.00  0.00    +0.000 N 
ATOM     10  C   UNL     1       2.204  13.639  18.848  0.00  0.00    +0.000 C 
ATOM     11  O   UNL     1       2.467  13.066  19.900  0.00  0.00    +0.000 OA
ATOM     12  H   UNL     1       2.414  11.920  17.832  0.00  0.00    +0.000 HD
ATOM     13  H   UNL     1       1.698  13.160  16.874  0.00  0.00    +0.000 HD
ENDBRANCH   2  10
ENDBRANCH   1   7
BRANCH   1  14
ATOM     14  N   UNL     1      -1.662  13.052  19.375  0.00  0.00    +0.000 N 
ATOM     15  C   UNL     1      -1.336  11.974  18.596  0.00  0.00    +0.000 C 
ATOM     16  O   UNL     1      -0.198  11.511  18.532  0.00  0.00    +0.000 OA
ATOM     17  H   UNL     1      -2.601  13.444  19.362  0.00  0.00    +0.000 HD
BRANCH  15  18
ATOM     18  C   UNL     1      -2.460  11.441  17.706  0.00  0.00    +0.000 C 
ATOM     19  C   UNL     1      -2.643   9.935  17.799  0.00  0.00    +0.000 C 
ATOM     20  C   UNL     1      -3.336   9.591  16.482  0.00  0.00    +0.000 C 
ATOM     21  C   UNL     1      -2.801  10.642  15.541  0.00  0.00    +0.000 C 
ATOM     22  O   UNL     1      -2.905  10.657  14.329  0.00  0.00    +0.000 OA
ATOM     23  N   UNL     1      -2.221  11.638  16.297  0.00  0.00    +0.000 N 
ATOM     24  H   UNL     1      -1.927  12.507  15.869  0.00  0.00    +0.000 HD
ENDBRANCH  15  18
ENDBRANCH   1  14
BRANCH   1  25
ATOM     25  C   UNL     1      -1.080  13.373  21.771  0.00  0.00    +0.000 C 
BRANCH  25  26
ATOM     26  C   UNL     1      -0.791  11.985  22.251  0.00  0.00    +0.000 A 
ATOM     27  C   UNL     1      -1.491  11.204  23.151  0.00  0.00    +0.000 A 
ATOM     28  N   UNL     1      -0.854   9.991  23.152  0.00  0.00    +0.000 N 
ATOM     29  C   UNL     1       0.186  10.076  22.272  0.00  0.00    +0.000 A 
ATOM     30  N   UNL     1       0.247  11.262  21.709  0.00  0.00    +0.000 NA
ATOM     31  H   UNL     1      -1.114   9.172  23.682  0.00  0.00    +0.000 HD
ENDBRANCH  25  26
ENDBRANCH   1  25
TORSDOF 6
ENDMDL
