MODEL 1
REMARK VINA RESULT:      -8.5      0.000      0.000
REMARK  Name = 
REMARK  7 active torsions:
REMARK  status: ('A' for Active; 'I' for Inactive)
REMARK    1  A    between atoms: C_1  and  O_2
REMARK    2  A    between atoms: O_2  and  C_3
REMARK    3  A    between atoms: C_8  and  C_9
REMARK    4  A    between atoms: C_12  and  N_13
REMARK    5  A    between atoms: N_13  and  C_14
REMARK    6  A    between atoms: C_24  and  O_25
REMARK    7  A    between atoms: O_25  and  C_26
REMARK                            x       y       z     vdW  Elec       q    Type
REMARK                         _______ _______ _______ _____ _____    ______ ____
ROOT
ATOM      1  C   UNL     1       6.440   5.259  15.988  0.00  0.00    +0.000 A 
ATOM      2  C   UNL     1       5.620   4.148  16.230  0.00  0.00    +0.000 A 
ATOM      3  C   UNL     1       4.621   4.150  17.199  0.00  0.00    +0.000 A 
ATOM      4  N   UNL     1       3.844   3.067  17.293  0.00  0.00    +0.000 NA
ATOM      5  C   UNL     1       2.837   3.080  18.196  0.00  0.00    +0.000 A 
ATOM      6  C   UNL     1       2.510   4.165  18.998  0.00  0.00    +0.000 A 
ATOM      7  C   UNL     1       3.300   5.331  18.873  0.00  0.00    +0.000 A 
ATOM      8  C   UNL     1       4.452   5.280  18.015  0.00  0.00    +0.000 A 
ATOM      9  C   UNL     1       5.441   6.284  17.909  0.00  0.00    +0.000 A 
ATOM     10  C   UNL     1       6.381   6.331  16.872  0.00  0.00    +0.000 A 
ENDROOT
BRANCH   6  11
ATOM     11  C   UNL     1       1.346   3.971  19.905  0.00  0.00    +0.000 C 
ATOM     12  N   UNL     1       0.502   2.923  19.675  0.00  0.00    +0.000 N 
ATOM     13  O   UNL     1       1.137   4.727  20.847  0.00  0.00    +0.000 OA
ATOM     14  H   UNL     1       0.769   2.159  19.067  0.00  0.00    +0.000 HD
ATOM     15  H   UNL     1      -0.226   2.763  20.359  0.00  0.00    +0.000 HD
ENDBRANCH   6  11
BRANCH   1  17
ATOM     16  C   UNL     1       6.899   4.553  13.773  0.00  0.00    +0.000 C 
ATOM     17  O   UNL     1       7.302   5.299  14.925  0.00  0.00    +0.000 OA
ENDBRANCH   1  17
BRANCH   7  18
ATOM     18  N   UNL     1       2.965   6.498  19.634  0.00  0.00    +0.000 N 
ATOM     19  H   UNL     1       3.782   6.778  20.191  0.00  0.00    +0.000 HD
BRANCH  18  20
ATOM     20  C   UNL     1       2.250   7.662  19.207  0.00  0.00    +0.000 A 
ATOM     21  C   UNL     1       2.340   8.124  17.882  0.00  0.00    +0.000 A 
ATOM     22  C   UNL     1       1.824   9.371  17.525  0.00  0.00    +0.000 A 
ATOM     23  C   UNL     1       1.138  10.135  18.465  0.00  0.00    +0.000 A 
ATOM     24  C   UNL     1       0.927   9.638  19.753  0.00  0.00    +0.000 A 
ATOM     25 CL   UNL     1       0.027  10.623  20.852  0.00  0.00    +0.000 Cl
ATOM     26  C   UNL     1       1.466   8.398  20.125  0.00  0.00    +0.000 A 
ATOM     27 CL   UNL     1       1.244   7.759  21.724  0.00  0.00    +0.000 Cl
ENDBRANCH  18  20
ENDBRANCH   7  18
BRANCH  10  28
ATOM     28  O   UNL     1       7.081   7.501  16.896  0.00  0.00    +0.000 OA
ATOM     29  C   UNL     1       7.929   7.800  17.992  0.00  0.00    +0.000 C 
ENDBRANCH  10  28
TORSDOF 5
ENDMDL
MODEL 2
REMARK VINA RESULT:      -7.3      1.320      1.705
REMARK  Name = 
REMARK  7 active torsions:
REMARK  status: ('A' for Active; 'I' for Inactive)
REMARK    1  A    between atoms: C_1  and  O_2
REMARK    2  A    between atoms: O_2  and  C_3
REMARK    3  A    between atoms: C_8  and  C_9
REMARK    4  A    between atoms: C_12  and  N_13
REMARK    5  A    between atoms: N_13  and  C_14
REMARK    6  A    between atoms: C_24  and  O_25
REMARK    7  A    between atoms: O_25  and  C_26
REMARK                            x       y       z     vdW  Elec       q    Type
REMARK                         _______ _______ _______ _____ _____    ______ ____
ROOT
ATOM      1  C   UNL     1       5.777   5.252  15.592  0.00  0.00    +0.000 A 
ATOM      2  C   UNL     1       4.906   4.194  15.884  0.00  0.00    +0.000 A 
ATOM      3  C   UNL     1       4.130   4.157  17.038  0.00  0.00    +0.000 A 
ATOM      4  N   UNL     1       3.273   3.141  17.179  0.00  0.00    +0.000 NA
ATOM      5  C   UNL     1       2.477   3.125  18.273  0.00  0.00    +0.000 A 
ATOM      6  C   UNL     1       2.442   4.122  19.239  0.00  0.00    +0.000 A 
ATOM      7  C   UNL     1       3.313   5.222  19.074  0.00  0.00    +0.000 A 
ATOM      8  C   UNL     1       4.255   5.183  17.988  0.00  0.00    +0.000 A 
ATOM      9  C   UNL     1       5.307   6.104  17.782  0.00  0.00    +0.000 A 
ATOM     10  C   UNL     1       6.017   6.203  16.578  0.00  0.00    +0.000 A 
ENDROOT
BRANCH   6  11
ATOM     11  C   UNL     1       1.470   3.913  20.347  0.00  0.00    +0.000 C 
ATOM     12  N   UNL     1       0.194   3.540  20.041  0.00  0.00    +0.000 N 
ATOM     13  O   UNL     1       1.797   4.064  21.519  0.00  0.00    +0.000 OA
ATOM     14  H   UNL     1      -0.042   3.183  19.123  0.00  0.00    +0.000 HD
ATOM     15  H   UNL     1      -0.417   3.317  20.816  0.00  0.00    +0.000 HD
ENDBRANCH   6  11
BRANCH   1  17
ATOM     16  C   UNL     1       6.570   4.129  13.663  0.00  0.00    +0.000 C 
ATOM     17  O   UNL     1       6.405   5.355  14.381  0.00  0.00    +0.000 OA
ENDBRANCH   1  17
BRANCH   7  18
ATOM     18  N   UNL     1       3.271   6.305  20.010  0.00  0.00    +0.000 N 
ATOM     19  H   UNL     1       4.206   6.724  20.078  0.00  0.00    +0.000 HD
BRANCH  18  20
ATOM     20  C   UNL     1       2.275   7.325  20.143  0.00  0.00    +0.000 A 
ATOM     21  C   UNL     1       1.519   7.451  21.322  0.00  0.00    +0.000 A 
ATOM     22  C   UNL     1       0.407   8.295  21.370  0.00  0.00    +0.000 A 
ATOM     23  C   UNL     1       0.087   9.087  20.270  0.00  0.00    +0.000 A 
ATOM     24  C   UNL     1       0.901   9.071  19.135  0.00  0.00    +0.000 A 
ATOM     25 CL   UNL     1       0.467  10.114  17.827  0.00  0.00    +0.000 Cl
ATOM     26  C   UNL     1       2.002   8.205  19.072  0.00  0.00    +0.000 A 
ATOM     27 CL   UNL     1       3.021   8.141  17.667  0.00  0.00    +0.000 Cl
ENDBRANCH  18  20
ENDBRANCH   7  18
BRANCH  10  28
ATOM     28  O   UNL     1       6.833   7.297  16.578  0.00  0.00    +0.000 OA
ATOM     29  C   UNL     1       7.651   7.574  17.702  0.00  0.00    +0.000 C 
ENDBRANCH  10  28
TORSDOF 5
ENDMDL
MODEL 3
REMARK VINA RESULT:      -7.3      3.161      6.027
REMARK  Name = 
REMARK  7 active torsions:
REMARK  status: ('A' for Active; 'I' for Inactive)
REMARK    1  A    between atoms: C_1  and  O_2
REMARK    2  A    between atoms: O_2  and  C_3
REMARK    3  A    between atoms: C_8  and  C_9
REMARK    4  A    between atoms: C_12  and  N_13
REMARK    5  A    between atoms: N_13  and  C_14
REMARK    6  A    between atoms: C_24  and  O_25
REMARK    7  A    between atoms: O_25  and  C_26
REMARK                            x       y       z     vdW  Elec       q    Type
REMARK                         _______ _______ _______ _____ _____    ______ ____
ROOT
ATOM      1  C   UNL     1       1.232   7.774  20.567  0.00  0.00    +0.000 A 
ATOM      2  C   UNL     1       1.062   6.462  21.030  0.00  0.00    +0.000 A 
ATOM      3  C   UNL     1       1.787   5.388  20.524  0.00  0.00    +0.000 A 
ATOM      4  N   UNL     1       1.604   4.192  21.092  0.00  0.00    +0.000 NA
ATOM      5  C   UNL     1       2.344   3.152  20.643  0.00  0.00    +0.000 A 
ATOM      6  C   UNL     1       3.327   3.246  19.667  0.00  0.00    +0.000 A 
ATOM      7  C   UNL     1       3.557   4.516  19.092  0.00  0.00    +0.000 A 
ATOM      8  C   UNL     1       2.687   5.598  19.467  0.00  0.00    +0.000 A 
ATOM      9  C   UNL     1       2.662   6.876  18.866  0.00  0.00    +0.000 A 
ATOM     10  C   UNL     1       2.013   7.980  19.434  0.00  0.00    +0.000 A 
ENDROOT
BRANCH   6  11
ATOM     11  C   UNL     1       4.037   1.979  19.341  0.00  0.00    +0.000 C 
ATOM     12  N   UNL     1       5.133   1.632  20.076  0.00  0.00    +0.000 N 
ATOM     13  O   UNL     1       3.654   1.247  18.436  0.00  0.00    +0.000 OA
ATOM     14  H   UNL     1       5.332   2.079  20.963  0.00  0.00    +0.000 HD
ATOM     15  H   UNL     1       5.539   0.723  19.893  0.00  0.00    +0.000 HD
ENDBRANCH   6  11
BRANCH   1  17
ATOM     16  C   UNL     1       1.200   9.219  22.445  0.00  0.00    +0.000 C 
ATOM     17  O   UNL     1       0.636   8.840  21.186  0.00  0.00    +0.000 OA
ENDBRANCH   1  17
BRANCH   7  18
ATOM     18  N   UNL     1       4.603   4.678  18.126  0.00  0.00    +0.000 N 
ATOM     19  H   UNL     1       4.191   4.985  17.237  0.00  0.00    +0.000 HD
BRANCH  18  20
ATOM     20  C   UNL     1       5.886   5.289  18.299  0.00  0.00    +0.000 A 
ATOM     21  C   UNL     1       6.823   4.763  19.205  0.00  0.00    +0.000 A 
ATOM     22  C   UNL     1       7.977   5.479  19.533  0.00  0.00    +0.000 A 
ATOM     23  C   UNL     1       8.250   6.687  18.899  0.00  0.00    +0.000 A 
ATOM     24  C   UNL     1       7.395   7.164  17.903  0.00  0.00    +0.000 A 
ATOM     25 CL   UNL     1       7.823   8.648  17.126  0.00  0.00    +0.000 Cl
ATOM     26  C   UNL     1       6.222   6.463  17.589  0.00  0.00    +0.000 A 
ATOM     27 CL   UNL     1       5.123   7.039  16.373  0.00  0.00    +0.000 Cl
ENDBRANCH  18  20
ENDBRANCH   7  18
BRANCH  10  28
ATOM     28  O   UNL     1       2.311   9.127  18.758  0.00  0.00    +0.000 OA
ATOM     29  C   UNL     1       1.375   9.682  17.850  0.00  0.00    +0.000 C 
ENDBRANCH  10  28
TORSDOF 5
ENDMDL
MODEL 4
REMARK VINA RESULT:      -7.2      3.746      5.240
REMARK  Name = 
REMARK  7 active torsions:
REMARK  status: ('A' for Active; 'I' for Inactive)
REMARK    1  A    between atoms: C_1  and  O_2
REMARK    2  A    between atoms: O_2  and  C_3
REMARK    3  A    between atoms: C_8  and  C_9
REMARK    4  A    between atoms: C_12  and  N_13
REMARK    5  A    between atoms: N_13  and  C_14
REMARK    6  A    between atoms: C_24  and  O_25
REMARK    7  A    between atoms: O_25  and  C_26
REMARK                            x       y       z     vdW  Elec       q    Type
REMARK                         _______ _______ _______ _____ _____    ______ ____
ROOT
ATOM      1  C   UNL     1       7.007   4.567  12.913  0.00  0.00    +0.000 A 
ATOM      2  C   UNL     1       7.386   5.484  13.903  0.00  0.00    +0.000 A 
ATOM      3  C   UNL     1       6.926   5.407  15.213  0.00  0.00    +0.000 A 
ATOM      4  N   UNL     1       7.413   6.285  16.096  0.00  0.00    +0.000 NA
ATOM      5  C   UNL     1       7.012   6.184  17.384  0.00  0.00    +0.000 A 
ATOM      6  C   UNL     1       6.171   5.194  17.874  0.00  0.00    +0.000 A 
ATOM      7  C   UNL     1       5.687   4.235  16.955  0.00  0.00    +0.000 A 
ATOM      8  C   UNL     1       5.999   4.412  15.563  0.00  0.00    +0.000 A 
ATOM      9  C   UNL     1       5.458   3.657  14.498  0.00  0.00    +0.000 A 
ATOM     10  C   UNL     1       5.990   3.663  13.203  0.00  0.00    +0.000 A 
ENDROOT
BRANCH   6  11
ATOM     11  C   UNL     1       5.880   5.257  19.332  0.00  0.00    +0.000 C 
ATOM     12  N   UNL     1       4.659   5.711  19.739  0.00  0.00    +0.000 N 
ATOM     13  O   UNL     1       6.709   4.908  20.165  0.00  0.00    +0.000 OA
ATOM     14  H   UNL     1       3.883   5.781  19.092  0.00  0.00    +0.000 HD
ATOM     15  H   UNL     1       4.456   5.657  20.729  0.00  0.00    +0.000 HD
ENDBRANCH   6  11
BRANCH   1  17
ATOM     16  C   UNL     1       7.823   5.842  11.090  0.00  0.00    +0.000 C 
ATOM     17  O   UNL     1       7.594   4.557  11.677  0.00  0.00    +0.000 OA
ENDBRANCH   1  17
BRANCH   7  18
ATOM     18  N   UNL     1       4.866   3.158  17.423  0.00  0.00    +0.000 N 
ATOM     19  H   UNL     1       5.446   2.506  17.963  0.00  0.00    +0.000 HD
BRANCH  18  20
ATOM     20  C   UNL     1       3.555   3.224  17.994  0.00  0.00    +0.000 A 
ATOM     21  C   UNL     1       2.486   3.808  17.292  0.00  0.00    +0.000 A 
ATOM     22  C   UNL     1       1.271   4.068  17.931  0.00  0.00    +0.000 A 
ATOM     23  C   UNL     1       1.081   3.673  19.252  0.00  0.00    +0.000 A 
ATOM     24  C   UNL     1       2.086   2.978  19.927  0.00  0.00    +0.000 A 
ATOM     25 CL   UNL     1       1.761   2.479  21.550  0.00  0.00    +0.000 Cl
ATOM     26  C   UNL     1       3.317   2.737  19.300  0.00  0.00    +0.000 A 
ATOM     27 CL   UNL     1       4.599   1.897  20.117  0.00  0.00    +0.000 Cl
ENDBRANCH  18  20
ENDBRANCH   7  18
BRANCH  10  28
ATOM     28  O   UNL     1       5.408   2.703  12.428  0.00  0.00    +0.000 OA
ATOM     29  C   UNL     1       4.402   3.056  11.494  0.00  0.00    +0.000 C 
ENDBRANCH  10  28
TORSDOF 5
ENDMDL
MODEL 5
REMARK VINA RESULT:      -6.7      3.528      6.259
REMARK  Name = 
REMARK  7 active torsions:
REMARK  status: ('A' for Active; 'I' for Inactive)
REMARK    1  A    between atoms: C_1  and  O_2
REMARK    2  A    between atoms: O_2  and  C_3
REMARK    3  A    between atoms: C_8  and  C_9
REMARK    4  A    between atoms: C_12  and  N_13
REMARK    5  A    between atoms: N_13  and  C_14
REMARK    6  A    between atoms: C_24  and  O_25
REMARK    7  A    between atoms: O_25  and  C_26
REMARK                            x       y       z     vdW  Elec       q    Type
REMARK                         _______ _______ _______ _____ _____    ______ ____
ROOT
ATOM      1  C   UNL     1       1.456   8.260  20.053  0.00  0.00    +0.000 A 
ATOM      2  C   UNL     1       1.468   7.084  20.816  0.00  0.00    +0.000 A 
ATOM      3  C   UNL     1       2.020   5.895  20.352  0.00  0.00    +0.000 A 
ATOM      4  N   UNL     1       2.052   4.855  21.191  0.00  0.00    +0.000 NA
ATOM      5  C   UNL     1       2.635   3.710  20.767  0.00  0.00    +0.000 A 
ATOM      6  C   UNL     1       3.258   3.550  19.537  0.00  0.00    +0.000 A 
ATOM      7  C   UNL     1       3.268   4.659  18.661  0.00  0.00    +0.000 A 
ATOM      8  C   UNL     1       2.537   5.835  19.048  0.00  0.00    +0.000 A 
ATOM      9  C   UNL     1       2.296   6.958  18.226  0.00  0.00    +0.000 A 
ATOM     10  C   UNL     1       1.835   8.186  18.717  0.00  0.00    +0.000 A 
ENDROOT
BRANCH   6  11
ATOM     11  C   UNL     1       3.857   2.210  19.286  0.00  0.00    +0.000 C 
ATOM     12  N   UNL     1       4.924   1.815  20.039  0.00  0.00    +0.000 N 
ATOM     13  O   UNL     1       3.409   1.462  18.424  0.00  0.00    +0.000 OA
ATOM     14  H   UNL     1       5.165   2.295  20.898  0.00  0.00    +0.000 HD
ATOM     15  H   UNL     1       5.251   0.867  19.909  0.00  0.00    +0.000 HD
ENDBRANCH   6  11
BRANCH   1  17
ATOM     16  C   UNL     1      -0.147   9.429  21.349  0.00  0.00    +0.000 C 
ATOM     17  O   UNL     1       1.062   9.459  20.584  0.00  0.00    +0.000 OA
ENDBRANCH   1  17
BRANCH   7  18
ATOM     18  N   UNL     1       3.952   4.564  17.406  0.00  0.00    +0.000 N 
ATOM     19  H   UNL     1       3.291   4.775  16.649  0.00  0.00    +0.000 HD
BRANCH  18  20
ATOM     20  C   UNL     1       5.252   5.057  17.063  0.00  0.00    +0.000 A 
ATOM     21  C   UNL     1       6.002   5.820  17.974  0.00  0.00    +0.000 A 
ATOM     22  C   UNL     1       7.162   6.481  17.566  0.00  0.00    +0.000 A 
ATOM     23  C   UNL     1       7.634   6.320  16.266  0.00  0.00    +0.000 A 
ATOM     24  C   UNL     1       6.973   5.464  15.383  0.00  0.00    +0.000 A 
ATOM     25 CL   UNL     1       7.642   5.279  13.799  0.00  0.00    +0.000 Cl
ATOM     26  C   UNL     1       5.792   4.820  15.779  0.00  0.00    +0.000 A 
ATOM     27 CL   UNL     1       4.931   3.767  14.698  0.00  0.00    +0.000 Cl
ENDBRANCH  18  20
ENDBRANCH   7  18
BRANCH  10  28
ATOM     28  O   UNL     1       1.880   9.149  17.752  0.00  0.00    +0.000 OA
ATOM     29  C   UNL     1       2.173  10.492  18.100  0.00  0.00    +0.000 C 
ENDBRANCH  10  28
TORSDOF 5
ENDMDL
MODEL 6
REMARK VINA RESULT:      -6.6      3.499      5.582
REMARK  Name = 
REMARK  7 active torsions:
REMARK  status: ('A' for Active; 'I' for Inactive)
REMARK    1  A    between atoms: C_1  and  O_2
REMARK    2  A    between atoms: O_2  and  C_3
REMARK    3  A    between atoms: C_8  and  C_9
REMARK    4  A    between atoms: C_12  and  N_13
REMARK    5  A    between atoms: N_13  and  C_14
REMARK    6  A    between atoms: C_24  and  O_25
REMARK    7  A    between atoms: O_25  and  C_26
REMARK                            x       y       z     vdW  Elec       q    Type
REMARK                         _______ _______ _______ _____ _____    ______ ____
ROOT
ATOM      1  C   UNL     1       6.727   3.594  12.157  0.00  0.00    +0.000 A 
ATOM      2  C   UNL     1       7.453   4.306  13.122  0.00  0.00    +0.000 A 
ATOM      3  C   UNL     1       6.906   4.688  14.342  0.00  0.00    +0.000 A 
ATOM      4  N   UNL     1       7.709   5.294  15.222  0.00  0.00    +0.000 NA
ATOM      5  C   UNL     1       7.200   5.621  16.432  0.00  0.00    +0.000 A 
ATOM      6  C   UNL     1       5.911   5.322  16.853  0.00  0.00    +0.000 A 
ATOM      7  C   UNL     1       5.068   4.642  15.944  0.00  0.00    +0.000 A 
ATOM      8  C   UNL     1       5.556   4.409  14.612  0.00  0.00    +0.000 A 
ATOM      9  C   UNL     1       4.792   3.907  13.534  0.00  0.00    +0.000 A 
ATOM     10  C   UNL     1       5.359   3.429  12.346  0.00  0.00    +0.000 A 
ENDROOT
BRANCH   6  11
ATOM     11  C   UNL     1       5.566   5.754  18.235  0.00  0.00    +0.000 C 
ATOM     12  N   UNL     1       6.194   5.153  19.287  0.00  0.00    +0.000 N 
ATOM     13  O   UNL     1       4.739   6.635  18.441  0.00  0.00    +0.000 OA
ATOM     14  H   UNL     1       7.034   4.604  19.152  0.00  0.00    +0.000 HD
ATOM     15  H   UNL     1       6.008   5.530  20.208  0.00  0.00    +0.000 HD
ENDBRANCH   6  11
BRANCH   1  17
ATOM     16  C   UNL     1       7.387   1.655  10.966  0.00  0.00    +0.000 C 
ATOM     17  O   UNL     1       7.326   3.083  11.037  0.00  0.00    +0.000 OA
ENDBRANCH   1  17
BRANCH   7  18
ATOM     18  N   UNL     1       3.750   4.256  16.353  0.00  0.00    +0.000 N 
ATOM     19  H   UNL     1       3.227   3.934  15.530  0.00  0.00    +0.000 HD
BRANCH  18  20
ATOM     20  C   UNL     1       3.365   3.492  17.500  0.00  0.00    +0.000 A 
ATOM     21  C   UNL     1       3.913   2.220  17.742  0.00  0.00    +0.000 A 
ATOM     22  C   UNL     1       3.379   1.389  18.730  0.00  0.00    +0.000 A 
ATOM     23  C   UNL     1       2.348   1.850  19.543  0.00  0.00    +0.000 A 
ATOM     24  C   UNL     1       1.875   3.156  19.403  0.00  0.00    +0.000 A 
ATOM     25 CL   UNL     1       0.624   3.673  20.478  0.00  0.00    +0.000 Cl
ATOM     26  C   UNL     1       2.388   3.985  18.395  0.00  0.00    +0.000 A 
ATOM     27 CL   UNL     1       1.808   5.607  18.176  0.00  0.00    +0.000 Cl
ENDBRANCH  18  20
ENDBRANCH   7  18
BRANCH  10  28
ATOM     28  O   UNL     1       4.421   2.823  11.563  0.00  0.00    +0.000 OA
ATOM     29  C   UNL     1       3.667   3.585  10.636  0.00  0.00    +0.000 C 
ENDBRANCH  10  28
TORSDOF 5
ENDMDL
MODEL 7
REMARK VINA RESULT:      -6.6      2.913      6.875
REMARK  Name = 
REMARK  7 active torsions:
REMARK  status: ('A' for Active; 'I' for Inactive)
REMARK    1  A    between atoms: C_1  and  O_2
REMARK    2  A    between atoms: O_2  and  C_3
REMARK    3  A    between atoms: C_8  and  C_9
REMARK    4  A    between atoms: C_12  and  N_13
REMARK    5  A    between atoms: N_13  and  C_14
REMARK    6  A    between atoms: C_24  and  O_25
REMARK    7  A    between atoms: O_25  and  C_26
REMARK                            x       y       z     vdW  Elec       q    Type
REMARK                         _______ _______ _______ _____ _____    ______ ____
ROOT
ATOM      1  C   UNL     1      -0.082   9.757  19.806  0.00  0.00    +0.000 A 
ATOM      2  C   UNL     1       0.712   9.824  18.653  0.00  0.00    +0.000 A 
ATOM      3  C   UNL     1       1.771   8.954  18.420  0.00  0.00    +0.000 A 
ATOM      4  N   UNL     1       2.413   9.054  17.251  0.00  0.00    +0.000 NA
ATOM      5  C   UNL     1       3.410   8.177  16.994  0.00  0.00    +0.000 A 
ATOM      6  C   UNL     1       3.783   7.137  17.834  0.00  0.00    +0.000 A 
ATOM      7  C   UNL     1       3.081   6.997  19.053  0.00  0.00    +0.000 A 
ATOM      8  C   UNL     1       2.112   8.002  19.395  0.00  0.00    +0.000 A 
ATOM      9  C   UNL     1       1.451   8.115  20.639  0.00  0.00    +0.000 A 
ATOM     10  C   UNL     1       0.321   8.918  20.839  0.00  0.00    +0.000 A 
ENDROOT
BRANCH   6  11
ATOM     11  C   UNL     1       4.893   6.275  17.341  0.00  0.00    +0.000 C 
ATOM     12  N   UNL     1       5.593   6.671  16.239  0.00  0.00    +0.000 N 
ATOM     13  O   UNL     1       5.187   5.228  17.907  0.00  0.00    +0.000 OA
ATOM     14  H   UNL     1       5.536   7.622  15.896  0.00  0.00    +0.000 HD
ATOM     15  H   UNL     1       6.398   6.114  15.982  0.00  0.00    +0.000 HD
ENDBRANCH   6  11
BRANCH   1  17
ATOM     16  C   UNL     1      -1.865  10.881  18.723  0.00  0.00    +0.000 C 
ATOM     17  O   UNL     1      -1.219  10.507  19.944  0.00  0.00    +0.000 OA
ENDBRANCH   1  17
BRANCH   7  18
ATOM     18  N   UNL     1       3.387   5.903  19.925  0.00  0.00    +0.000 N 
ATOM     19  H   UNL     1       3.862   6.265  20.761  0.00  0.00    +0.000 HD
BRANCH  18  20
ATOM     20  C   UNL     1       2.556   4.795  20.286  0.00  0.00    +0.000 A 
ATOM     21  C   UNL     1       2.474   4.352  21.618  0.00  0.00    +0.000 A 
ATOM     22  C   UNL     1       1.842   3.147  21.931  0.00  0.00    +0.000 A 
ATOM     23  C   UNL     1       1.212   2.411  20.932  0.00  0.00    +0.000 A 
ATOM     24  C   UNL     1       1.172   2.898  19.623  0.00  0.00    +0.000 A 
ATOM     25 CL   UNL     1       0.332   1.952  18.445  0.00  0.00    +0.000 Cl
ATOM     26  C   UNL     1       1.828   4.094  19.298  0.00  0.00    +0.000 A 
ATOM     27 CL   UNL     1       1.820   4.716  17.677  0.00  0.00    +0.000 Cl
ENDBRANCH  18  20
ENDBRANCH   7  18
BRANCH  10  28
ATOM     28  O   UNL     1      -0.232   8.690  22.066  0.00  0.00    +0.000 OA
ATOM     29  C   UNL     1       0.009   9.591  23.133  0.00  0.00    +0.000 C 
ENDBRANCH  10  28
TORSDOF 5
ENDMDL
MODEL 8
REMARK VINA RESULT:      -6.6      2.861      6.142
REMARK  Name = 
REMARK  7 active torsions:
REMARK  status: ('A' for Active; 'I' for Inactive)
REMARK    1  A    between atoms: C_1  and  O_2
REMARK    2  A    between atoms: O_2  and  C_3
REMARK    3  A    between atoms: C_8  and  C_9
REMARK    4  A    between atoms: C_12  and  N_13
REMARK    5  A    between atoms: N_13  and  C_14
REMARK    6  A    between atoms: C_24  and  O_25
REMARK    7  A    between atoms: O_25  and  C_26
REMARK                            x       y       z     vdW  Elec       q    Type
REMARK                         _______ _______ _______ _____ _____    ______ ____
ROOT
ATOM      1  C   UNL     1       1.411   8.195  20.751  0.00  0.00    +0.000 A 
ATOM      2  C   UNL     1       1.462   6.902  21.290  0.00  0.00    +0.000 A 
ATOM      3  C   UNL     1       1.883   5.799  20.555  0.00  0.00    +0.000 A 
ATOM      4  N   UNL     1       1.970   4.625  21.189  0.00  0.00    +0.000 NA
ATOM      5  C   UNL     1       2.430   3.558  20.497  0.00  0.00    +0.000 A 
ATOM      6  C   UNL     1       2.876   3.602  19.183  0.00  0.00    +0.000 A 
ATOM      7  C   UNL     1       2.829   4.848  18.518  0.00  0.00    +0.000 A 
ATOM      8  C   UNL     1       2.219   5.957  19.201  0.00  0.00    +0.000 A 
ATOM      9  C   UNL     1       1.932   7.216  18.627  0.00  0.00    +0.000 A 
ATOM     10  C   UNL     1       1.606   8.350  19.382  0.00  0.00    +0.000 A 
ENDROOT
BRANCH   6  11
ATOM     11  C   UNL     1       3.364   2.312  18.623  0.00  0.00    +0.000 C 
ATOM     12  N   UNL     1       4.418   1.690  19.226  0.00  0.00    +0.000 N 
ATOM     13  O   UNL     1       2.836   1.801  17.641  0.00  0.00    +0.000 OA
ATOM     14  H   UNL     1       4.719   1.953  20.157  0.00  0.00    +0.000 HD
ATOM     15  H   UNL     1       4.668   0.772  18.881  0.00  0.00    +0.000 HD
ENDBRANCH   6  11
BRANCH   1  17
ATOM     16  C   UNL     1      -0.109   9.293  22.198  0.00  0.00    +0.000 C 
ATOM     17  O   UNL     1       1.156   9.291  21.529  0.00  0.00    +0.000 OA
ENDBRANCH   1  17
BRANCH   7  18
ATOM     18  N   UNL     1       3.335   4.958  17.183  0.00  0.00    +0.000 N 
ATOM     19  H   UNL     1       2.775   5.649  16.669  0.00  0.00    +0.000 HD
BRANCH  18  20
ATOM     20  C   UNL     1       4.699   5.028  16.752  0.00  0.00    +0.000 A 
ATOM     21  C   UNL     1       5.306   3.949  16.087  0.00  0.00    +0.000 A 
ATOM     22  C   UNL     1       6.685   3.932  15.866  0.00  0.00    +0.000 A 
ATOM     23  C   UNL     1       7.461   5.028  16.231  0.00  0.00    +0.000 A 
ATOM     24  C   UNL     1       6.858   6.162  16.778  0.00  0.00    +0.000 A 
ATOM     25 CL   UNL     1       7.881   7.502  17.165  0.00  0.00    +0.000 Cl
ATOM     26  C   UNL     1       5.479   6.174  17.027  0.00  0.00    +0.000 A 
ATOM     27 CL   UNL     1       4.699   7.559  17.728  0.00  0.00    +0.000 Cl
ENDBRANCH  18  20
ENDBRANCH   7  18
BRANCH  10  28
ATOM     28  O   UNL     1       1.575   9.468  18.601  0.00  0.00    +0.000 OA
ATOM     29  C   UNL     1       0.335  10.065  18.264  0.00  0.00    +0.000 C 
ENDBRANCH  10  28
TORSDOF 5
ENDMDL
MODEL 9
REMARK VINA RESULT:      -6.5      4.593      7.330
REMARK  Name = 
REMARK  7 active torsions:
REMARK  status: ('A' for Active; 'I' for Inactive)
REMARK    1  A    between atoms: C_1  and  O_2
REMARK    2  A    between atoms: O_2  and  C_3
REMARK    3  A    between atoms: C_8  and  C_9
REMARK    4  A    between atoms: C_12  and  N_13
REMARK    5  A    between atoms: N_13  and  C_14
REMARK    6  A    between atoms: C_24  and  O_25
REMARK    7  A    between atoms: O_25  and  C_26
REMARK                            x       y       z     vdW  Elec       q    Type
REMARK                         _______ _______ _______ _____ _____    ______ ____
ROOT
ATOM      1  C   UNL     1       1.817   7.731  20.281  0.00  0.00    +0.000 A 
ATOM      2  C   UNL     1       1.362   8.130  21.545  0.00  0.00    +0.000 A 
ATOM      3  C   UNL     1       0.533   9.232  21.730  0.00  0.00    +0.000 A 
ATOM      4  N   UNL     1       0.092   9.477  22.968  0.00  0.00    +0.000 NA
ATOM      5  C   UNL     1      -0.758  10.514  23.149  0.00  0.00    +0.000 A 
ATOM      6  C   UNL     1      -1.255  11.315  22.129  0.00  0.00    +0.000 A 
ATOM      7  C   UNL     1      -0.828  11.034  20.811  0.00  0.00    +0.000 A 
ATOM      8  C   UNL     1       0.175  10.021  20.625  0.00  0.00    +0.000 A 
ATOM      9  C   UNL     1       0.838   9.737  19.411  0.00  0.00    +0.000 A 
ATOM     10  C   UNL     1       1.589   8.574  19.198  0.00  0.00    +0.000 A 
ENDROOT
BRANCH   6  11
ATOM     11  C   UNL     1      -2.198  12.386  22.551  0.00  0.00    +0.000 C 
ATOM     12  N   UNL     1      -3.284  12.047  23.304  0.00  0.00    +0.000 N 
ATOM     13  O   UNL     1      -2.015  13.558  22.240  0.00  0.00    +0.000 OA
ATOM     14  H   UNL     1      -3.339  11.149  23.770  0.00  0.00    +0.000 HD
ATOM     15  H   UNL     1      -3.856  12.806  23.653  0.00  0.00    +0.000 HD
ENDBRANCH   6  11
BRANCH   1  17
ATOM     16  C   UNL     1       1.828   5.379  20.571  0.00  0.00    +0.000 C 
ATOM     17  O   UNL     1       2.492   6.554  20.097  0.00  0.00    +0.000 OA
ENDBRANCH   1  17
BRANCH   7  18
ATOM     18  N   UNL     1      -1.361  11.792  19.718  0.00  0.00    +0.000 N 
ATOM     19  H   UNL     1      -0.620  12.393  19.337  0.00  0.00    +0.000 HD
BRANCH  18  20
ATOM     20  C   UNL     1      -2.211  11.343  18.657  0.00  0.00    +0.000 A 
ATOM     21  C   UNL     1      -1.721  10.504  17.641  0.00  0.00    +0.000 A 
ATOM     22  C   UNL     1      -2.483  10.249  16.499  0.00  0.00    +0.000 A 
ATOM     23  C   UNL     1      -3.775  10.757  16.396  0.00  0.00    +0.000 A 
ATOM     24  C   UNL     1      -4.326  11.487  17.451  0.00  0.00    +0.000 A 
ATOM     25 CL   UNL     1      -5.952  12.048  17.271  0.00  0.00    +0.000 Cl
ATOM     26  C   UNL     1      -3.556  11.770  18.588  0.00  0.00    +0.000 A 
ATOM     27 CL   UNL     1      -4.201  12.694  19.910  0.00  0.00    +0.000 Cl
ENDBRANCH  18  20
ENDBRANCH   7  18
BRANCH  10  28
ATOM     28  O   UNL     1       1.949   8.453  17.888  0.00  0.00    +0.000 OA
ATOM     29  C   UNL     1       3.217   7.922  17.544  0.00  0.00    +0.000 C 
ENDBRANCH  10  28
TORSDOF 5
ENDMDL
