MODEL 1
REMARK VINA RESULT:      -7.2      0.000      0.000
REMARK  Name = 
REMARK  4 active torsions:
REMARK  status: ('A' for Active; 'I' for Inactive)
REMARK    1  A    between atoms: N_6  and  C_7
REMARK    2  A    between atoms: C_9  and  C_10
REMARK    3  A    between atoms: C_10  and  O_11
REMARK    4  A    between atoms: C_12  and  O_13
REMARK                            x       y       z     vdW  Elec       q    Type
REMARK                         _______ _______ _______ _____ _____    ______ ____
ROOT
ATOM      1  C   UNL     1       5.060   4.180  17.920  0.00  0.00    +0.000 C 
ATOM      2  O   UNL     1       6.236   4.229  18.758  0.00  0.00    +0.000 OA
ATOM      3  C   UNL     1       7.300   4.866  18.025  0.00  0.00    +0.000 C 
ATOM      4  C   UNL     1       6.675   5.559  16.823  0.00  0.00    +0.000 C 
ATOM      5  C   UNL     1       5.470   4.697  16.538  0.00  0.00    +0.000 C 
ATOM      6  F   UNL     1       5.894   3.636  15.779  0.00  0.00    +0.000 F 
ENDROOT
BRANCH   1  12
ATOM      7  O   UNL     1       1.244   6.900  20.753  0.00  0.00    +0.000 OA
ATOM      8  C   UNL     1       2.027   6.291  20.029  0.00  0.00    +0.000 A 
ATOM      9  N   UNL     1       2.443   5.027  20.354  0.00  0.00    +0.000 N 
ATOM     10  C   UNL     1       3.433   4.319  19.730  0.00  0.00    +0.000 A 
ATOM     11  O   UNL     1       3.833   3.260  20.212  0.00  0.00    +0.000 OA
ATOM     12  N   UNL     1       3.936   4.875  18.562  0.00  0.00    +0.000 N 
ATOM     13  C   UNL     1       3.516   6.123  18.129  0.00  0.00    +0.000 A 
ATOM     14  C   UNL     1       2.604   6.857  18.782  0.00  0.00    +0.000 A 
ATOM     15  I   UNL     1       2.038   8.713  18.141  0.00  0.00    +0.000 I 
ATOM     16  H   UNL     1       2.086   4.645  21.216  0.00  0.00    +0.000 HD
ENDBRANCH   1  12
BRANCH   4  17
ATOM     17  O   UNL     1       7.578   5.612  15.719  0.00  0.00    +0.000 OA
ATOM     18  H   UNL     1       7.042   5.500  14.908  0.00  0.00    +0.000 HD
ENDBRANCH   4  17
BRANCH   3  19
ATOM     19  C   UNL     1       8.059   5.842  18.926  0.00  0.00    +0.000 C 
BRANCH  19  20
ATOM     20  O   UNL     1       7.875   5.507  20.303  0.00  0.00    +0.000 OA
ATOM     21  H   UNL     1       8.334   4.661  20.452  0.00  0.00    +0.000 HD
ENDBRANCH  19  20
ENDBRANCH   3  19
TORSDOF 4
ENDMDL
MODEL 2
REMARK VINA RESULT:      -6.9      1.446      1.490
REMARK  Name = 
REMARK  4 active torsions:
REMARK  status: ('A' for Active; 'I' for Inactive)
REMARK    1  A    between atoms: N_6  and  C_7
REMARK    2  A    between atoms: C_9  and  C_10
REMARK    3  A    between atoms: C_10  and  O_11
REMARK    4  A    between atoms: C_12  and  O_13
REMARK                            x       y       z     vdW  Elec       q    Type
REMARK                         _______ _______ _______ _____ _____    ______ ____
ROOT
ATOM      1  C   UNL     1       5.411   3.759  17.608  0.00  0.00    +0.000 C 
ATOM      2  O   UNL     1       6.450   4.036  18.572  0.00  0.00    +0.000 OA
ATOM      3  C   UNL     1       7.301   5.075  18.051  0.00  0.00    +0.000 C 
ATOM      4  C   UNL     1       6.570   5.720  16.882  0.00  0.00    +0.000 C 
ATOM      5  C   UNL     1       5.727   4.585  16.356  0.00  0.00    +0.000 C 
ATOM      6  F   UNL     1       6.518   3.836  15.523  0.00  0.00    +0.000 F 
ENDROOT
BRANCH   1  12
ATOM      7  O   UNL     1       0.674   4.280  20.305  0.00  0.00    +0.000 OA
ATOM      8  C   UNL     1       1.693   4.234  19.620  0.00  0.00    +0.000 A 
ATOM      9  N   UNL     1       2.127   3.048  19.089  0.00  0.00    +0.000 N 
ATOM     10  C   UNL     1       3.323   2.835  18.463  0.00  0.00    +0.000 A 
ATOM     11  O   UNL     1       3.675   1.692  18.173  0.00  0.00    +0.000 OA
ATOM     12  N   UNL     1       4.082   3.967  18.200  0.00  0.00    +0.000 N 
ATOM     13  C   UNL     1       3.678   5.215  18.646  0.00  0.00    +0.000 A 
ATOM     14  C   UNL     1       2.544   5.417  19.332  0.00  0.00    +0.000 A 
ATOM     15  I   UNL     1       1.996   7.263  20.015  0.00  0.00    +0.000 I 
ATOM     16  H   UNL     1       1.577   2.231  19.307  0.00  0.00    +0.000 HD
ENDBRANCH   1  12
BRANCH   4  17
ATOM     17  O   UNL     1       7.481   6.218  15.904  0.00  0.00    +0.000 OA
ATOM     18  H   UNL     1       8.374   6.180  16.302  0.00  0.00    +0.000 HD
ENDBRANCH   4  17
BRANCH   3  19
ATOM     19  C   UNL     1       7.645   6.084  19.148  0.00  0.00    +0.000 C 
BRANCH  19  20
ATOM     20  O   UNL     1       7.917   5.417  20.383  0.00  0.00    +0.000 OA
ATOM     21  H   UNL     1       8.879   5.270  20.418  0.00  0.00    +0.000 HD
ENDBRANCH  19  20
ENDBRANCH   3  19
TORSDOF 4
ENDMDL
MODEL 3
REMARK VINA RESULT:      -6.9      3.195      5.603
REMARK  Name = 
REMARK  4 active torsions:
REMARK  status: ('A' for Active; 'I' for Inactive)
REMARK    1  A    between atoms: N_6  and  C_7
REMARK    2  A    between atoms: C_9  and  C_10
REMARK    3  A    between atoms: C_10  and  O_11
REMARK    4  A    between atoms: C_12  and  O_13
REMARK                            x       y       z     vdW  Elec       q    Type
REMARK                         _______ _______ _______ _____ _____    ______ ____
ROOT
ATOM      1  C   UNL     1       4.481   4.895  17.984  0.00  0.00    +0.000 C 
ATOM      2  O   UNL     1       4.642   3.550  18.486  0.00  0.00    +0.000 OA
ATOM      3  C   UNL     1       3.366   2.884  18.443  0.00  0.00    +0.000 C 
ATOM      4  C   UNL     1       2.449   3.712  17.555  0.00  0.00    +0.000 C 
ATOM      5  C   UNL     1       2.983   5.110  17.746  0.00  0.00    +0.000 C 
ATOM      6  F   UNL     1       2.422   5.611  18.894  0.00  0.00    +0.000 F 
ENDROOT
BRANCH   1  12
ATOM      7  O   UNL     1       8.143   5.410  13.946  0.00  0.00    +0.000 OA
ATOM      8  C   UNL     1       7.245   5.343  14.782  0.00  0.00    +0.000 A 
ATOM      9  N   UNL     1       7.351   6.001  15.979  0.00  0.00    +0.000 N 
ATOM     10  C   UNL     1       6.511   5.868  17.048  0.00  0.00    +0.000 A 
ATOM     11  O   UNL     1       6.798   6.383  18.129  0.00  0.00    +0.000 OA
ATOM     12  N   UNL     1       5.358   5.127  16.828  0.00  0.00    +0.000 N 
ATOM     13  C   UNL     1       5.144   4.485  15.619  0.00  0.00    +0.000 A 
ATOM     14  C   UNL     1       6.005   4.546  14.594  0.00  0.00    +0.000 A 
ATOM     15  I   UNL     1       5.682   3.552  12.838  0.00  0.00    +0.000 I 
ATOM     16  H   UNL     1       8.204   6.517  16.132  0.00  0.00    +0.000 HD
ENDBRANCH   1  12
BRANCH   4  17
ATOM     17  O   UNL     1       1.084   3.593  17.956  0.00  0.00    +0.000 OA
ATOM     18  H   UNL     1       0.567   3.398  17.148  0.00  0.00    +0.000 HD
ENDBRANCH   4  17
BRANCH   3  19
ATOM     19  C   UNL     1       3.529   1.451  17.931  0.00  0.00    +0.000 C 
BRANCH  19  20
ATOM     20  O   UNL     1       4.451   0.723  18.746  0.00  0.00    +0.000 OA
ATOM     21  H   UNL     1       4.140  -0.200  18.768  0.00  0.00    +0.000 HD
ENDBRANCH  19  20
ENDBRANCH   3  19
TORSDOF 4
ENDMDL
MODEL 4
REMARK VINA RESULT:      -6.9      0.833      1.060
REMARK  Name = 
REMARK  4 active torsions:
REMARK  status: ('A' for Active; 'I' for Inactive)
REMARK    1  A    between atoms: N_6  and  C_7
REMARK    2  A    between atoms: C_9  and  C_10
REMARK    3  A    between atoms: C_10  and  O_11
REMARK    4  A    between atoms: C_12  and  O_13
REMARK                            x       y       z     vdW  Elec       q    Type
REMARK                         _______ _______ _______ _____ _____    ______ ____
ROOT
ATOM      1  C   UNL     1       5.474   4.203  17.938  0.00  0.00    +0.000 C 
ATOM      2  O   UNL     1       6.641   4.752  18.589  0.00  0.00    +0.000 OA
ATOM      3  C   UNL     1       7.437   5.443  17.607  0.00  0.00    +0.000 C 
ATOM      4  C   UNL     1       6.569   5.642  16.373  0.00  0.00    +0.000 C 
ATOM      5  C   UNL     1       5.635   4.458  16.435  0.00  0.00    +0.000 C 
ATOM      6  F   UNL     1       6.288   3.389  15.875  0.00  0.00    +0.000 F 
ENDROOT
BRANCH   1  12
ATOM      7  O   UNL     1       1.218   6.258  20.704  0.00  0.00    +0.000 OA
ATOM      8  C   UNL     1       2.107   5.800  19.990  0.00  0.00    +0.000 A 
ATOM      9  N   UNL     1       2.627   4.555  20.230  0.00  0.00    +0.000 N 
ATOM     10  C   UNL     1       3.723   4.009  19.623  0.00  0.00    +0.000 A 
ATOM     11  O   UNL     1       4.196   2.951  20.035  0.00  0.00    +0.000 OA
ATOM     12  N   UNL     1       4.244   4.722  18.551  0.00  0.00    +0.000 N 
ATOM     13  C   UNL     1       3.730   5.960  18.202  0.00  0.00    +0.000 A 
ATOM     14  C   UNL     1       2.705   6.537  18.847  0.00  0.00    +0.000 A 
ATOM     15  I   UNL     1       1.997   8.385  18.336  0.00  0.00    +0.000 I 
ATOM     16  H   UNL     1       2.253   4.059  21.024  0.00  0.00    +0.000 HD
ENDBRANCH   1  12
BRANCH   4  17
ATOM     17  O   UNL     1       7.350   5.655  15.179  0.00  0.00    +0.000 OA
ATOM     18  H   UNL     1       6.958   6.332  14.592  0.00  0.00    +0.000 HD
ENDBRANCH   4  17
BRANCH   3  19
ATOM     19  C   UNL     1       7.952   6.768  18.174  0.00  0.00    +0.000 C 
BRANCH  19  20
ATOM     20  O   UNL     1       7.807   7.819  17.216  0.00  0.00    +0.000 OA
ATOM     21  H   UNL     1       6.851   7.946  17.080  0.00  0.00    +0.000 HD
ENDBRANCH  19  20
ENDBRANCH   3  19
TORSDOF 4
ENDMDL
MODEL 5
REMARK VINA RESULT:      -6.8      3.312      5.895
REMARK  Name = 
REMARK  4 active torsions:
REMARK  status: ('A' for Active; 'I' for Inactive)
REMARK    1  A    between atoms: N_6  and  C_7
REMARK    2  A    between atoms: C_9  and  C_10
REMARK    3  A    between atoms: C_10  and  O_11
REMARK    4  A    between atoms: C_12  and  O_13
REMARK                            x       y       z     vdW  Elec       q    Type
REMARK                         _______ _______ _______ _____ _____    ______ ____
ROOT
ATOM      1  C   UNL     1       5.484   4.350  17.780  0.00  0.00    +0.000 C 
ATOM      2  O   UNL     1       4.574   3.231  17.704  0.00  0.00    +0.000 OA
ATOM      3  C   UNL     1       3.295   3.637  18.228  0.00  0.00    +0.000 C 
ATOM      4  C   UNL     1       3.295   5.156  18.305  0.00  0.00    +0.000 C 
ATOM      5  C   UNL     1       4.753   5.473  18.524  0.00  0.00    +0.000 C 
ATOM      6  F   UNL     1       5.004   5.347  19.867  0.00  0.00    +0.000 F 
ENDROOT
BRANCH   1  12
ATOM      7  O   UNL     1       7.888   5.284  12.950  0.00  0.00    +0.000 OA
ATOM      8  C   UNL     1       7.254   5.121  13.989  0.00  0.00    +0.000 A 
ATOM      9  N   UNL     1       7.643   5.733  15.152  0.00  0.00    +0.000 N 
ATOM     10  C   UNL     1       7.130   5.498  16.397  0.00  0.00    +0.000 A 
ATOM     11  O   UNL     1       7.669   5.985  17.390  0.00  0.00    +0.000 OA
ATOM     12  N   UNL     1       6.002   4.690  16.448  0.00  0.00    +0.000 N 
ATOM     13  C   UNL     1       5.506   4.086  15.304  0.00  0.00    +0.000 A 
ATOM     14  C   UNL     1       6.055   4.249  14.092  0.00  0.00    +0.000 A 
ATOM     15  I   UNL     1       5.325   3.311  12.429  0.00  0.00    +0.000 I 
ATOM     16  H   UNL     1       8.476   6.299  15.103  0.00  0.00    +0.000 HD
ENDBRANCH   1  12
BRANCH   4  17
ATOM     17  O   UNL     1       2.471   5.628  19.370  0.00  0.00    +0.000 OA
ATOM     18  H   UNL     1       1.570   5.282  19.206  0.00  0.00    +0.000 HD
ENDBRANCH   4  17
BRANCH   3  19
ATOM     19  C   UNL     1       2.163   3.101  17.348  0.00  0.00    +0.000 C 
BRANCH  19  20
ATOM     20  O   UNL     1       1.067   4.018  17.318  0.00  0.00    +0.000 OA
ATOM     21  H   UNL     1       0.922   4.253  16.384  0.00  0.00    +0.000 HD
ENDBRANCH  19  20
ENDBRANCH   3  19
TORSDOF 4
ENDMDL
MODEL 6
REMARK VINA RESULT:      -6.7      3.031      5.600
REMARK  Name = 
REMARK  4 active torsions:
REMARK  status: ('A' for Active; 'I' for Inactive)
REMARK    1  A    between atoms: N_6  and  C_7
REMARK    2  A    between atoms: C_9  and  C_10
REMARK    3  A    between atoms: C_10  and  O_11
REMARK    4  A    between atoms: C_12  and  O_13
REMARK                            x       y       z     vdW  Elec       q    Type
REMARK                         _______ _______ _______ _____ _____    ______ ____
ROOT
ATOM      1  C   UNL     1       5.238   4.720  18.679  0.00  0.00    +0.000 C 
ATOM      2  O   UNL     1       5.135   3.290  18.855  0.00  0.00    +0.000 OA
ATOM      3  C   UNL     1       3.751   2.947  19.062  0.00  0.00    +0.000 C 
ATOM      4  C   UNL     1       2.916   4.150  18.648  0.00  0.00    +0.000 C 
ATOM      5  C   UNL     1       3.845   5.306  18.931  0.00  0.00    +0.000 C 
ATOM      6  F   UNL     1       3.729   5.610  20.263  0.00  0.00    +0.000 F 
ENDROOT
BRANCH   1  12
ATOM      7  O   UNL     1       7.980   5.600  14.022  0.00  0.00    +0.000 OA
ATOM      8  C   UNL     1       7.273   5.445  15.014  0.00  0.00    +0.000 A 
ATOM      9  N   UNL     1       7.562   6.090  16.188  0.00  0.00    +0.000 N 
ATOM     10  C   UNL     1       6.962   5.872  17.397  0.00  0.00    +0.000 A 
ATOM     11  O   UNL     1       7.415   6.391  18.416  0.00  0.00    +0.000 OA
ATOM     12  N   UNL     1       5.849   5.042  17.382  0.00  0.00    +0.000 N 
ATOM     13  C   UNL     1       5.451   4.403  16.219  0.00  0.00    +0.000 A 
ATOM     14  C   UNL     1       6.086   4.551  15.047  0.00  0.00    +0.000 A 
ATOM     15  I   UNL     1       5.502   3.562  13.357  0.00  0.00    +0.000 I 
ATOM     16  H   UNL     1       8.385   6.673  16.188  0.00  0.00    +0.000 HD
ENDBRANCH   1  12
BRANCH   4  17
ATOM     17  O   UNL     1       1.705   4.231  19.398  0.00  0.00    +0.000 OA
ATOM     18  H   UNL     1       1.027   4.610  18.802  0.00  0.00    +0.000 HD
ENDBRANCH   4  17
BRANCH   3  19
ATOM     19  C   UNL     1       3.389   1.690  18.269  0.00  0.00    +0.000 C 
BRANCH  19  20
ATOM     20  O   UNL     1       2.203   1.901  17.499  0.00  0.00    +0.000 OA
ATOM     21  H   UNL     1       2.431   1.709  16.571  0.00  0.00    +0.000 HD
ENDBRANCH  19  20
ENDBRANCH   3  19
TORSDOF 4
ENDMDL
MODEL 7
REMARK VINA RESULT:      -6.6      1.652      1.843
REMARK  Name = 
REMARK  4 active torsions:
REMARK  status: ('A' for Active; 'I' for Inactive)
REMARK    1  A    between atoms: N_6  and  C_7
REMARK    2  A    between atoms: C_9  and  C_10
REMARK    3  A    between atoms: C_10  and  O_11
REMARK    4  A    between atoms: C_12  and  O_13
REMARK                            x       y       z     vdW  Elec       q    Type
REMARK                         _______ _______ _______ _____ _____    ______ ____
ROOT
ATOM      1  C   UNL     1       5.285   3.628  17.425  0.00  0.00    +0.000 C 
ATOM      2  O   UNL     1       6.361   4.275  18.139  0.00  0.00    +0.000 OA
ATOM      3  C   UNL     1       7.013   5.204  17.252  0.00  0.00    +0.000 C 
ATOM      4  C   UNL     1       6.099   5.410  16.054  0.00  0.00    +0.000 C 
ATOM      5  C   UNL     1       5.371   4.091  15.966  0.00  0.00    +0.000 C 
ATOM      6  F   UNL     1       6.177   3.222  15.276  0.00  0.00    +0.000 F 
ENDROOT
BRANCH   1  12
ATOM      7  O   UNL     1       0.747   4.254  20.425  0.00  0.00    +0.000 OA
ATOM      8  C   UNL     1       1.716   4.180  19.672  0.00  0.00    +0.000 A 
ATOM      9  N   UNL     1       2.120   2.973  19.166  0.00  0.00    +0.000 N 
ATOM     10  C   UNL     1       3.270   2.736  18.467  0.00  0.00    +0.000 A 
ATOM     11  O   UNL     1       3.609   1.583  18.205  0.00  0.00    +0.000 OA
ATOM     12  N   UNL     1       4.000   3.858  18.099  0.00  0.00    +0.000 N 
ATOM     13  C   UNL     1       3.620   5.124  18.516  0.00  0.00    +0.000 A 
ATOM     14  C   UNL     1       2.536   5.352  19.271  0.00  0.00    +0.000 A 
ATOM     15  I   UNL     1       2.025   7.226  19.905  0.00  0.00    +0.000 I 
ATOM     16  H   UNL     1       1.592   2.165  19.460  0.00  0.00    +0.000 HD
ENDBRANCH   1  12
BRANCH   4  17
ATOM     17  O   UNL     1       6.842   5.699  14.870  0.00  0.00    +0.000 OA
ATOM     18  H   UNL     1       7.138   6.629  14.942  0.00  0.00    +0.000 HD
ENDBRANCH   4  17
BRANCH   3  19
ATOM     19  C   UNL     1       7.318   6.514  17.981  0.00  0.00    +0.000 C 
BRANCH  19  20
ATOM     20  O   UNL     1       7.503   7.581  17.049  0.00  0.00    +0.000 OA
ATOM     21  H   UNL     1       6.761   7.538  16.419  0.00  0.00    +0.000 HD
ENDBRANCH  19  20
ENDBRANCH   3  19
TORSDOF 4
ENDMDL
MODEL 8
REMARK VINA RESULT:      -6.6      2.915      5.321
REMARK  Name = 
REMARK  4 active torsions:
REMARK  status: ('A' for Active; 'I' for Inactive)
REMARK    1  A    between atoms: N_6  and  C_7
REMARK    2  A    between atoms: C_9  and  C_10
REMARK    3  A    between atoms: C_10  and  O_11
REMARK    4  A    between atoms: C_12  and  O_13
REMARK                            x       y       z     vdW  Elec       q    Type
REMARK                         _______ _______ _______ _____ _____    ______ ____
ROOT
ATOM      1  C   UNL     1       2.918   4.896  18.233  0.00  0.00    +0.000 C 
ATOM      2  O   UNL     1       2.803   4.659  19.654  0.00  0.00    +0.000 OA
ATOM      3  C   UNL     1       1.981   3.495  19.864  0.00  0.00    +0.000 C 
ATOM      4  C   UNL     1       1.870   2.768  18.533  0.00  0.00    +0.000 C 
ATOM      5  C   UNL     1       1.996   3.892  17.534  0.00  0.00    +0.000 C 
ATOM      6  F   UNL     1       0.754   4.458  17.394  0.00  0.00    +0.000 F 
ENDROOT
BRANCH   1  12
ATOM      7  O   UNL     1       8.193   4.276  16.903  0.00  0.00    +0.000 OA
ATOM      8  C   UNL     1       7.010   4.508  17.135  0.00  0.00    +0.000 A 
ATOM      9  N   UNL     1       6.583   4.763  18.412  0.00  0.00    +0.000 N 
ATOM     10  C   UNL     1       5.283   4.864  18.822  0.00  0.00    +0.000 A 
ATOM     11  O   UNL     1       5.016   4.930  20.022  0.00  0.00    +0.000 OA
ATOM     12  N   UNL     1       4.326   4.877  17.816  0.00  0.00    +0.000 N 
ATOM     13  C   UNL     1       4.685   4.692  16.491  0.00  0.00    +0.000 A 
ATOM     14  C   UNL     1       5.952   4.511  16.092  0.00  0.00    +0.000 A 
ATOM     15  I   UNL     1       6.444   4.199  14.133  0.00  0.00    +0.000 I 
ATOM     16  H   UNL     1       7.286   4.729  19.134  0.00  0.00    +0.000 HD
ENDBRANCH   1  12
BRANCH   4  17
ATOM     17  O   UNL     1       0.629   2.073  18.415  0.00  0.00    +0.000 OA
ATOM     18  H   UNL     1       0.770   1.176  18.779  0.00  0.00    +0.000 HD
ENDBRANCH   4  17
BRANCH   3  19
ATOM     19  C   UNL     1       2.579   2.610  20.960  0.00  0.00    +0.000 C 
BRANCH  19  20
ATOM     20  O   UNL     1       1.972   2.889  22.224  0.00  0.00    +0.000 OA
ATOM     21  H   UNL     1       1.469   2.094  22.477  0.00  0.00    +0.000 HD
ENDBRANCH  19  20
ENDBRANCH   3  19
TORSDOF 4
ENDMDL
MODEL 9
REMARK VINA RESULT:      -6.5      3.066      4.966
REMARK  Name = 
REMARK  4 active torsions:
REMARK  status: ('A' for Active; 'I' for Inactive)
REMARK    1  A    between atoms: N_6  and  C_7
REMARK    2  A    between atoms: C_9  and  C_10
REMARK    3  A    between atoms: C_10  and  O_11
REMARK    4  A    between atoms: C_12  and  O_13
REMARK                            x       y       z     vdW  Elec       q    Type
REMARK                         _______ _______ _______ _____ _____    ______ ____
ROOT
ATOM      1  C   UNL     1       2.217   4.596  19.139  0.00  0.00    +0.000 C 
ATOM      2  O   UNL     1       2.982   4.151  20.281  0.00  0.00    +0.000 OA
ATOM      3  C   UNL     1       2.858   2.721  20.394  0.00  0.00    +0.000 C 
ATOM      4  C   UNL     1       2.292   2.207  19.079  0.00  0.00    +0.000 C 
ATOM      5  C   UNL     1       1.465   3.374  18.600  0.00  0.00    +0.000 C 
ATOM      6  F   UNL     1       0.245   3.298  19.222  0.00  0.00    +0.000 F 
ENDROOT
BRANCH   1  12
ATOM      7  O   UNL     1       5.780   7.342  16.018  0.00  0.00    +0.000 OA
ATOM      8  C   UNL     1       4.933   6.688  16.621  0.00  0.00    +0.000 A 
ATOM      9  N   UNL     1       4.034   7.304  17.452  0.00  0.00    +0.000 N 
ATOM     10  C   UNL     1       3.165   6.679  18.302  0.00  0.00    +0.000 A 
ATOM     11  O   UNL     1       2.520   7.336  19.120  0.00  0.00    +0.000 OA
ATOM     12  N   UNL     1       3.078   5.299  18.179  0.00  0.00    +0.000 N 
ATOM     13  C   UNL     1       3.907   4.608  17.311  0.00  0.00    +0.000 A 
ATOM     14  C   UNL     1       4.819   5.209  16.533  0.00  0.00    +0.000 A 
ATOM     15  I   UNL     1       6.058   4.159  15.294  0.00  0.00    +0.000 I 
ATOM     16  H   UNL     1       4.123   8.303  17.547  0.00  0.00    +0.000 HD
ENDBRANCH   1  12
BRANCH   4  17
ATOM     17  O   UNL     1       1.508   1.029  19.270  0.00  0.00    +0.000 OA
ATOM     18  H   UNL     1       2.114   0.335  19.598  0.00  0.00    +0.000 HD
ENDBRANCH   4  17
BRANCH   3  19
ATOM     19  C   UNL     1       4.212   2.092  20.728  0.00  0.00    +0.000 C 
BRANCH  19  20
ATOM     20  O   UNL     1       5.127   2.252  19.641  0.00  0.00    +0.000 OA
ATOM     21  H   UNL     1       4.609   2.160  18.821  0.00  0.00    +0.000 HD
ENDBRANCH  19  20
ENDBRANCH   3  19
TORSDOF 4
ENDMDL
