MODEL 1
REMARK VINA RESULT:      -8.3      0.000      0.000
REMARK  Name = 
REMARK  8 active torsions:
REMARK  status: ('A' for Active; 'I' for Inactive)
REMARK    1  A    between atoms: C_2  and  O_3
REMARK    2  A    between atoms: C_2  and  C_4
REMARK    3  A    between atoms: C_4  and  C_5
REMARK    4  A    between atoms: C_5  and  O_6
REMARK    5  A    between atoms: O_6  and  C_7
REMARK    6  A    between atoms: C_10  and  C_11
REMARK    7  A    between atoms: C_14  and  C_15
REMARK    8  A    between atoms: C_18  and  C_19
REMARK                            x       y       z     vdW  Elec       q    Type
REMARK                         _______ _______ _______ _____ _____    ______ ____
ROOT
ATOM      1  C   UNL     1       3.198   6.113  18.341  0.00  0.00    +0.000 A 
ATOM      2  C   UNL     1       3.068   7.370  17.779  0.00  0.00    +0.000 A 
ATOM      3  C   UNL     1       2.351   8.339  18.484  0.00  0.00    +0.000 A 
ATOM      4  C   UNL     1       1.786   8.045  19.737  0.00  0.00    +0.000 A 
ATOM      5  C   UNL     1       2.007   6.746  20.201  0.00  0.00    +0.000 A 
ATOM      6  N   UNL     1       2.681   5.780  19.537  0.00  0.00    +0.000 NA
ENDROOT
BRANCH   4   7
ATOM      7  C   UNL     1       1.007   9.030  20.511  0.00  0.00    +0.000 A 
ATOM      8  C   UNL     1       0.746   8.868  21.878  0.00  0.00    +0.000 A 
ATOM      9  C   UNL     1       0.023   9.830  22.582  0.00  0.00    +0.000 A 
ATOM     10  C   UNL     1      -0.448  10.944  21.903  0.00  0.00    +0.000 A 
ATOM     11  N   UNL     1      -0.242  11.145  20.579  0.00  0.00    +0.000 NA
ATOM     12  C   UNL     1       0.480  10.193  19.932  0.00  0.00    +0.000 A 
BRANCH  10  13
ATOM     13  C   UNL     1      -1.196  11.983  22.598  0.00  0.00    +0.000 A 
ATOM     14  N   UNL     1      -0.891  13.268  22.676  0.00  0.00    +0.000 NA
ATOM     15  C   UNL     1      -1.874  13.849  23.429  0.00  0.00    +0.000 A 
ATOM     16  C   UNL     1      -2.795  12.914  23.836  0.00  0.00    +0.000 A 
ATOM     17  N   UNL     1      -2.362  11.733  23.289  0.00  0.00    +0.000 N 
ATOM     18  H   UNL     1      -2.787  10.817  23.365  0.00  0.00    +0.000 HD
BRANCH  16  19
ATOM     19  C   UNL     1      -4.000  13.028  24.666  0.00  0.00    +0.000 C 
ATOM     20  F   UNL     1      -4.843  13.990  24.220  0.00  0.00    +0.000 F 
ATOM     21  F   UNL     1      -4.696  11.866  24.697  0.00  0.00    +0.000 F 
ATOM     22  F   UNL     1      -3.689  13.334  25.951  0.00  0.00    +0.000 F 
ENDBRANCH  16  19
ENDBRANCH  10  13
ENDBRANCH   4   7
BRANCH   1  23
ATOM     23  O   UNL     1       3.878   5.162  17.612  0.00  0.00    +0.000 OA
BRANCH  23  24
ATOM     24  C   UNL     1       4.915   5.719  16.795  0.00  0.00    +0.000 C 
BRANCH  24  25
ATOM     25  C   UNL     1       6.105   4.752  16.658  0.00  0.00    +0.000 C 
ATOM     26  C   UNL     1       7.255   5.343  15.823  0.00  0.00    +0.000 C 
ATOM     27  C   UNL     1       6.915   5.051  14.368  0.00  0.00    +0.000 C 
ATOM     28  C   UNL     1       6.021   3.817  14.387  0.00  0.00    +0.000 C 
ATOM     29  C   UNL     1       5.770   3.485  15.855  0.00  0.00    +0.000 C 
BRANCH  25  31
ATOM     30  O   UNL     1       7.612   4.960  18.547  0.00  0.00    +0.000 OA
ATOM     31  C   UNL     1       6.599   4.467  18.071  0.00  0.00    +0.000 C 
BRANCH  31  32
ATOM     32  O   UNL     1       5.800   3.668  18.814  0.00  0.00    +0.000 OA
ATOM     33  H   UNL     1       6.252   3.045  19.410  0.00  0.00    +0.000 HD
ENDBRANCH  31  32
ENDBRANCH  25  31
ENDBRANCH  24  25
ENDBRANCH  23  24
ENDBRANCH   1  23
TORSDOF 8
ENDMDL
MODEL 2
REMARK VINA RESULT:      -8.2      0.856      1.310
REMARK  Name = 
REMARK  8 active torsions:
REMARK  status: ('A' for Active; 'I' for Inactive)
REMARK    1  A    between atoms: C_2  and  O_3
REMARK    2  A    between atoms: C_2  and  C_4
REMARK    3  A    between atoms: C_4  and  C_5
REMARK    4  A    between atoms: C_5  and  O_6
REMARK    5  A    between atoms: O_6  and  C_7
REMARK    6  A    between atoms: C_10  and  C_11
REMARK    7  A    between atoms: C_14  and  C_15
REMARK    8  A    between atoms: C_18  and  C_19
REMARK                            x       y       z     vdW  Elec       q    Type
REMARK                         _______ _______ _______ _____ _____    ______ ____
ROOT
ATOM      1  C   UNL     1       3.251   6.376  18.018  0.00  0.00    +0.000 A 
ATOM      2  C   UNL     1       2.859   6.027  19.297  0.00  0.00    +0.000 A 
ATOM      3  C   UNL     1       2.148   6.966  20.050  0.00  0.00    +0.000 A 
ATOM      4  C   UNL     1       1.833   8.226  19.515  0.00  0.00    +0.000 A 
ATOM      5  C   UNL     1       2.270   8.445  18.206  0.00  0.00    +0.000 A 
ATOM      6  N   UNL     1       2.973   7.567  17.456  0.00  0.00    +0.000 NA
ENDROOT
BRANCH   4   7
ATOM      7  C   UNL     1       1.100   9.255  20.277  0.00  0.00    +0.000 A 
ATOM      8  C   UNL     1       0.571  10.400  19.668  0.00  0.00    +0.000 A 
ATOM      9  C   UNL     1      -0.134  11.341  20.417  0.00  0.00    +0.000 A 
ATOM     10  C   UNL     1      -0.290  11.133  21.780  0.00  0.00    +0.000 A 
ATOM     11  N   UNL     1       0.215  10.054  22.425  0.00  0.00    +0.000 NA
ATOM     12  C   UNL     1       0.881   9.153  21.659  0.00  0.00    +0.000 A 
BRANCH  10  13
ATOM     13  C   UNL     1      -1.031  12.082  22.601  0.00  0.00    +0.000 A 
ATOM     14  N   UNL     1      -0.556  13.169  23.187  0.00  0.00    +0.000 NA
ATOM     15  C   UNL     1      -1.609  13.737  23.849  0.00  0.00    +0.000 A 
ATOM     16  C   UNL     1      -2.751  12.990  23.684  0.00  0.00    +0.000 A 
ATOM     17  N   UNL     1      -2.374  11.946  22.877  0.00  0.00    +0.000 N 
ATOM     18  H   UNL     1      -2.948  11.186  22.531  0.00  0.00    +0.000 HD
BRANCH  16  19
ATOM     19  C   UNL     1      -4.112  13.161  24.204  0.00  0.00    +0.000 C 
ATOM     20  F   UNL     1      -4.445  14.466  24.354  0.00  0.00    +0.000 F 
ATOM     21  F   UNL     1      -5.034  12.604  23.381  0.00  0.00    +0.000 F 
ATOM     22  F   UNL     1      -4.259  12.569  25.415  0.00  0.00    +0.000 F 
ENDBRANCH  16  19
ENDBRANCH  10  13
ENDBRANCH   4   7
BRANCH   1  23
ATOM     23  O   UNL     1       3.982   5.450  17.307  0.00  0.00    +0.000 OA
BRANCH  23  24
ATOM     24  C   UNL     1       5.263   5.942  16.897  0.00  0.00    +0.000 C 
BRANCH  24  25
ATOM     25  C   UNL     1       6.249   4.792  16.627  0.00  0.00    +0.000 C 
ATOM     26  C   UNL     1       7.404   5.208  15.697  0.00  0.00    +0.000 C 
ATOM     27  C   UNL     1       6.887   5.033  14.275  0.00  0.00    +0.000 C 
ATOM     28  C   UNL     1       5.798   3.970  14.354  0.00  0.00    +0.000 C 
ATOM     29  C   UNL     1       5.628   3.632  15.833  0.00  0.00    +0.000 C 
BRANCH  25  31
ATOM     30  O   UNL     1       8.000   4.438  18.267  0.00  0.00    +0.000 OA
ATOM     31  C   UNL     1       6.813   4.374  17.979  0.00  0.00    +0.000 C 
BRANCH  31  32
ATOM     32  O   UNL     1       5.896   3.980  18.891  0.00  0.00    +0.000 OA
ATOM     33  H   UNL     1       5.336   4.683  19.268  0.00  0.00    +0.000 HD
ENDBRANCH  31  32
ENDBRANCH  25  31
ENDBRANCH  24  25
ENDBRANCH  23  24
ENDBRANCH   1  23
TORSDOF 8
ENDMDL
MODEL 3
REMARK VINA RESULT:      -8.2      1.215      1.620
REMARK  Name = 
REMARK  8 active torsions:
REMARK  status: ('A' for Active; 'I' for Inactive)
REMARK    1  A    between atoms: C_2  and  O_3
REMARK    2  A    between atoms: C_2  and  C_4
REMARK    3  A    between atoms: C_4  and  C_5
REMARK    4  A    between atoms: C_5  and  O_6
REMARK    5  A    between atoms: O_6  and  C_7
REMARK    6  A    between atoms: C_10  and  C_11
REMARK    7  A    between atoms: C_14  and  C_15
REMARK    8  A    between atoms: C_18  and  C_19
REMARK                            x       y       z     vdW  Elec       q    Type
REMARK                         _______ _______ _______ _____ _____    ______ ____
ROOT
ATOM      1  C   UNL     1       3.222   7.264  17.677  0.00  0.00    +0.000 A 
ATOM      2  C   UNL     1       2.847   6.807  18.928  0.00  0.00    +0.000 A 
ATOM      3  C   UNL     1       2.034   7.627  19.715  0.00  0.00    +0.000 A 
ATOM      4  C   UNL     1       1.604   8.878  19.242  0.00  0.00    +0.000 A 
ATOM      5  C   UNL     1       2.037   9.212  17.956  0.00  0.00    +0.000 A 
ATOM      6  N   UNL     1       2.836   8.450  17.175  0.00  0.00    +0.000 NA
ENDROOT
BRANCH   4   7
ATOM      7  C   UNL     1       0.759   9.785  20.043  0.00  0.00    +0.000 A 
ATOM      8  C   UNL     1      -0.312  10.495  19.485  0.00  0.00    +0.000 A 
ATOM      9  C   UNL     1      -1.101  11.327  20.278  0.00  0.00    +0.000 A 
ATOM     10  C   UNL     1      -0.798  11.454  21.626  0.00  0.00    +0.000 A 
ATOM     11  N   UNL     1       0.236  10.807  22.215  0.00  0.00    +0.000 NA
ATOM     12  C   UNL     1       0.971   9.993  21.414  0.00  0.00    +0.000 A 
BRANCH  10  13
ATOM     13  C   UNL     1      -1.602  12.302  22.497  0.00  0.00    +0.000 A 
ATOM     14  N   UNL     1      -1.189  13.350  23.190  0.00  0.00    +0.000 NA
ATOM     15  C   UNL     1      -2.286  13.822  23.858  0.00  0.00    +0.000 A 
ATOM     16  C   UNL     1      -3.391  13.053  23.587  0.00  0.00    +0.000 A 
ATOM     17  N   UNL     1      -2.948  12.097  22.709  0.00  0.00    +0.000 N 
ATOM     18  H   UNL     1      -3.480  11.350  22.277  0.00  0.00    +0.000 HD
BRANCH  16  19
ATOM     19  C   UNL     1      -4.776  13.131  24.068  0.00  0.00    +0.000 C 
ATOM     20  F   UNL     1      -5.667  12.710  23.138  0.00  0.00    +0.000 F 
ATOM     21  F   UNL     1      -4.963  12.373  25.175  0.00  0.00    +0.000 F 
ATOM     22  F   UNL     1      -5.115  14.402  24.399  0.00  0.00    +0.000 F 
ENDBRANCH  16  19
ENDBRANCH  10  13
ENDBRANCH   4   7
BRANCH   1  23
ATOM     23  O   UNL     1       4.054   6.456  16.933  0.00  0.00    +0.000 OA
BRANCH  23  24
ATOM     24  C   UNL     1       5.380   6.374  17.467  0.00  0.00    +0.000 C 
BRANCH  24  25
ATOM     25  C   UNL     1       5.901   4.925  17.466  0.00  0.00    +0.000 C 
ATOM     26  C   UNL     1       7.292   4.797  16.818  0.00  0.00    +0.000 C 
ATOM     27  C   UNL     1       7.051   4.659  15.321  0.00  0.00    +0.000 C 
ATOM     28  C   UNL     1       5.653   4.070  15.175  0.00  0.00    +0.000 C 
ATOM     29  C   UNL     1       5.070   3.982  16.582  0.00  0.00    +0.000 C 
BRANCH  25  31
ATOM     30  O   UNL     1       6.428   5.191  19.817  0.00  0.00    +0.000 OA
ATOM     31  C   UNL     1       5.978   4.489  18.923  0.00  0.00    +0.000 C 
BRANCH  31  32
ATOM     32  O   UNL     1       5.447   3.275  19.193  0.00  0.00    +0.000 OA
ATOM     33  H   UNL     1       4.475   3.216  19.162  0.00  0.00    +0.000 HD
ENDBRANCH  31  32
ENDBRANCH  25  31
ENDBRANCH  24  25
ENDBRANCH  23  24
ENDBRANCH   1  23
TORSDOF 8
ENDMDL
MODEL 4
REMARK VINA RESULT:      -8.2      1.608      2.244
REMARK  Name = 
REMARK  8 active torsions:
REMARK  status: ('A' for Active; 'I' for Inactive)
REMARK    1  A    between atoms: C_2  and  O_3
REMARK    2  A    between atoms: C_2  and  C_4
REMARK    3  A    between atoms: C_4  and  C_5
REMARK    4  A    between atoms: C_5  and  O_6
REMARK    5  A    between atoms: O_6  and  C_7
REMARK    6  A    between atoms: C_10  and  C_11
REMARK    7  A    between atoms: C_14  and  C_15
REMARK    8  A    between atoms: C_18  and  C_19
REMARK                            x       y       z     vdW  Elec       q    Type
REMARK                         _______ _______ _______ _____ _____    ______ ____
ROOT
ATOM      1  C   UNL     1       2.591   7.514  18.472  0.00  0.00    +0.000 A 
ATOM      2  C   UNL     1       2.081   8.677  17.926  0.00  0.00    +0.000 A 
ATOM      3  C   UNL     1       1.264   9.481  18.725  0.00  0.00    +0.000 A 
ATOM      4  C   UNL     1       0.979   9.120  20.053  0.00  0.00    +0.000 A 
ATOM      5  C   UNL     1       1.573   7.932  20.489  0.00  0.00    +0.000 A 
ATOM      6  N   UNL     1       2.353   7.123  19.737  0.00  0.00    +0.000 NA
ENDROOT
BRANCH   4   7
ATOM      7  C   UNL     1       0.110   9.927  20.930  0.00  0.00    +0.000 A 
ATOM      8  C   UNL     1      -0.082   9.616  22.283  0.00  0.00    +0.000 A 
ATOM      9  C   UNL     1      -0.894  10.414  23.086  0.00  0.00    +0.000 A 
ATOM     10  C   UNL     1      -1.524  11.514  22.520  0.00  0.00    +0.000 A 
ATOM     11  N   UNL     1      -1.390  11.852  21.215  0.00  0.00    +0.000 NA
ATOM     12  C   UNL     1      -0.578  11.059  20.469  0.00  0.00    +0.000 A 
BRANCH  10  13
ATOM     13  C   UNL     1      -2.372  12.386  23.323  0.00  0.00    +0.000 A 
ATOM     14  N   UNL     1      -3.562  12.097  23.824  0.00  0.00    +0.000 NA
ATOM     15  C   UNL     1      -3.974  13.215  24.496  0.00  0.00    +0.000 A 
ATOM     16  C   UNL     1      -3.036  14.214  24.404  0.00  0.00    +0.000 A 
ATOM     17  N   UNL     1      -2.014  13.671  23.667  0.00  0.00    +0.000 N 
ATOM     18  H   UNL     1      -1.141  14.106  23.395  0.00  0.00    +0.000 HD
BRANCH  16  19
ATOM     19  C   UNL     1      -3.018  15.587  24.923  0.00  0.00    +0.000 C 
ATOM     20  F   UNL     1      -4.257  16.030  25.248  0.00  0.00    +0.000 F 
ATOM     21  F   UNL     1      -2.251  15.690  26.036  0.00  0.00    +0.000 F 
ATOM     22  F   UNL     1      -2.509  16.455  24.013  0.00  0.00    +0.000 F 
ENDBRANCH  16  19
ENDBRANCH  10  13
ENDBRANCH   4   7
BRANCH   1  23
ATOM     23  O   UNL     1       3.363   6.718  17.655  0.00  0.00    +0.000 OA
BRANCH  23  24
ATOM     24  C   UNL     1       3.095   5.321  17.819  0.00  0.00    +0.000 C 
BRANCH  24  25
ATOM     25  C   UNL     1       4.398   4.504  17.913  0.00  0.00    +0.000 C 
ATOM     26  C   UNL     1       5.656   5.391  17.887  0.00  0.00    +0.000 C 
ATOM     27  C   UNL     1       5.973   5.633  16.417  0.00  0.00    +0.000 C 
ATOM     28  C   UNL     1       5.382   4.449  15.662  0.00  0.00    +0.000 C 
ATOM     29  C   UNL     1       4.640   3.603  16.693  0.00  0.00    +0.000 C 
BRANCH  25  31
ATOM     30  O   UNL     1       3.410   3.828  20.022  0.00  0.00    +0.000 OA
ATOM     31  C   UNL     1       4.340   3.744  19.233  0.00  0.00    +0.000 C 
BRANCH  31  32
ATOM     32  O   UNL     1       5.370   2.899  19.459  0.00  0.00    +0.000 OA
ATOM     33  H   UNL     1       6.262   3.290  19.424  0.00  0.00    +0.000 HD
ENDBRANCH  31  32
ENDBRANCH  25  31
ENDBRANCH  24  25
ENDBRANCH  23  24
ENDBRANCH   1  23
TORSDOF 8
ENDMDL
MODEL 5
REMARK VINA RESULT:      -8.2      0.836      1.357
REMARK  Name = 
REMARK  8 active torsions:
REMARK  status: ('A' for Active; 'I' for Inactive)
REMARK    1  A    between atoms: C_2  and  O_3
REMARK    2  A    between atoms: C_2  and  C_4
REMARK    3  A    between atoms: C_4  and  C_5
REMARK    4  A    between atoms: C_5  and  O_6
REMARK    5  A    between atoms: O_6  and  C_7
REMARK    6  A    between atoms: C_10  and  C_11
REMARK    7  A    between atoms: C_14  and  C_15
REMARK    8  A    between atoms: C_18  and  C_19
REMARK                            x       y       z     vdW  Elec       q    Type
REMARK                         _______ _______ _______ _____ _____    ______ ____
ROOT
ATOM      1  C   UNL     1       3.340   6.587  18.039  0.00  0.00    +0.000 A 
ATOM      2  C   UNL     1       2.982   6.139  19.298  0.00  0.00    +0.000 A 
ATOM      3  C   UNL     1       2.204   6.977  20.101  0.00  0.00    +0.000 A 
ATOM      4  C   UNL     1       1.790   8.236  19.636  0.00  0.00    +0.000 A 
ATOM      5  C   UNL     1       2.202   8.559  18.341  0.00  0.00    +0.000 A 
ATOM      6  N   UNL     1       2.968   7.781  17.544  0.00  0.00    +0.000 NA
ENDROOT
BRANCH   4   7
ATOM      7  C   UNL     1       0.983   9.162  20.454  0.00  0.00    +0.000 A 
ATOM      8  C   UNL     1       0.556   8.839  21.748  0.00  0.00    +0.000 A 
ATOM      9  C   UNL     1      -0.187   9.748  22.499  0.00  0.00    +0.000 A 
ATOM     10  C   UNL     1      -0.511  10.974  21.937  0.00  0.00    +0.000 A 
ATOM     11  N   UNL     1      -0.142  11.334  20.684  0.00  0.00    +0.000 NA
ATOM     12  C   UNL     1       0.595  10.428  19.991  0.00  0.00    +0.000 A 
BRANCH  10  13
ATOM     13  C   UNL     1      -1.275  11.963  22.688  0.00  0.00    +0.000 A 
ATOM     14  N   UNL     1      -0.834  13.115  23.166  0.00  0.00    +0.000 NA
ATOM     15  C   UNL     1      -1.898  13.699  23.797  0.00  0.00    +0.000 A 
ATOM     16  C   UNL     1      -3.011  12.896  23.722  0.00  0.00    +0.000 A 
ATOM     17  N   UNL     1      -2.607  11.801  23.001  0.00  0.00    +0.000 N 
ATOM     18  H   UNL     1      -3.156  10.992  22.735  0.00  0.00    +0.000 HD
BRANCH  16  19
ATOM     19  C   UNL     1      -4.369  13.060  24.253  0.00  0.00    +0.000 C 
ATOM     20  F   UNL     1      -4.599  12.271  25.330  0.00  0.00    +0.000 F 
ATOM     21  F   UNL     1      -4.605  14.339  24.635  0.00  0.00    +0.000 F 
ATOM     22  F   UNL     1      -5.306  12.749  23.322  0.00  0.00    +0.000 F 
ENDBRANCH  16  19
ENDBRANCH  10  13
ENDBRANCH   4   7
BRANCH   1  23
ATOM     23  O   UNL     1       4.137   5.760  17.279  0.00  0.00    +0.000 OA
BRANCH  23  24
ATOM     24  C   UNL     1       5.510   6.166  17.263  0.00  0.00    +0.000 C 
BRANCH  24  25
ATOM     25  C   UNL     1       6.440   5.000  16.879  0.00  0.00    +0.000 C 
ATOM     26  C   UNL     1       7.322   5.323  15.659  0.00  0.00    +0.000 C 
ATOM     27  C   UNL     1       6.483   4.994  14.431  0.00  0.00    +0.000 C 
ATOM     28  C   UNL     1       5.480   3.939  14.880  0.00  0.00    +0.000 C 
ATOM     29  C   UNL     1       5.683   3.758  16.381  0.00  0.00    +0.000 C 
BRANCH  25  31
ATOM     30  O   UNL     1       7.042   5.083  19.226  0.00  0.00    +0.000 OA
ATOM     31  C   UNL     1       7.325   4.732  18.089  0.00  0.00    +0.000 C 
BRANCH  31  32
ATOM     32  O   UNL     1       8.440   4.009  17.842  0.00  0.00    +0.000 OA
ATOM     33  H   UNL     1       9.289   4.458  18.008  0.00  0.00    +0.000 HD
ENDBRANCH  31  32
ENDBRANCH  25  31
ENDBRANCH  24  25
ENDBRANCH  23  24
ENDBRANCH   1  23
TORSDOF 8
ENDMDL
MODEL 6
REMARK VINA RESULT:      -8.1      0.977      1.252
REMARK  Name = 
REMARK  8 active torsions:
REMARK  status: ('A' for Active; 'I' for Inactive)
REMARK    1  A    between atoms: C_2  and  O_3
REMARK    2  A    between atoms: C_2  and  C_4
REMARK    3  A    between atoms: C_4  and  C_5
REMARK    4  A    between atoms: C_5  and  O_6
REMARK    5  A    between atoms: O_6  and  C_7
REMARK    6  A    between atoms: C_10  and  C_11
REMARK    7  A    between atoms: C_14  and  C_15
REMARK    8  A    between atoms: C_18  and  C_19
REMARK                            x       y       z     vdW  Elec       q    Type
REMARK                         _______ _______ _______ _____ _____    ______ ____
ROOT
ATOM      1  C   UNL     1       2.741   6.213  18.758  0.00  0.00    +0.000 A 
ATOM      2  C   UNL     1       2.225   5.900  20.002  0.00  0.00    +0.000 A 
ATOM      3  C   UNL     1       1.566   6.904  20.716  0.00  0.00    +0.000 A 
ATOM      4  C   UNL     1       1.424   8.194  20.177  0.00  0.00    +0.000 A 
ATOM      5  C   UNL     1       1.972   8.373  18.904  0.00  0.00    +0.000 A 
ATOM      6  N   UNL     1       2.630   7.429  18.194  0.00  0.00    +0.000 NA
ENDROOT
BRANCH   4   7
ATOM      7  C   UNL     1       0.751   9.291  20.899  0.00  0.00    +0.000 A 
ATOM      8  C   UNL     1       0.174   9.109  22.163  0.00  0.00    +0.000 A 
ATOM      9  C   UNL     1      -0.435  10.175  22.824  0.00  0.00    +0.000 A 
ATOM     10  C   UNL     1      -0.474  11.415  22.204  0.00  0.00    +0.000 A 
ATOM     11  N   UNL     1       0.051  11.644  20.976  0.00  0.00    +0.000 NA
ATOM     12  C   UNL     1       0.650  10.586  20.371  0.00  0.00    +0.000 A 
BRANCH  10  13
ATOM     13  C   UNL     1      -1.087  12.562  22.862  0.00  0.00    +0.000 A 
ATOM     14  N   UNL     1      -0.465  13.601  23.394  0.00  0.00    +0.000 NA
ATOM     15  C   UNL     1      -1.443  14.415  23.896  0.00  0.00    +0.000 A 
ATOM     16  C   UNL     1      -2.688  13.872  23.685  0.00  0.00    +0.000 A 
ATOM     17  N   UNL     1      -2.450  12.699  23.013  0.00  0.00    +0.000 N 
ATOM     18  H   UNL     1      -3.126  12.022  22.680  0.00  0.00    +0.000 HD
BRANCH  16  19
ATOM     19  C   UNL     1      -4.031  14.337  24.049  0.00  0.00    +0.000 C 
ATOM     20  F   UNL     1      -4.635  15.007  23.038  0.00  0.00    +0.000 F 
ATOM     21  F   UNL     1      -4.842  13.306  24.388  0.00  0.00    +0.000 F 
ATOM     22  F   UNL     1      -3.993  15.174  25.116  0.00  0.00    +0.000 F 
ENDBRANCH  16  19
ENDBRANCH  10  13
ENDBRANCH   4   7
BRANCH   1  23
ATOM     23  O   UNL     1       3.420   5.218  18.088  0.00  0.00    +0.000 OA
BRANCH  23  24
ATOM     24  C   UNL     1       4.457   5.722  17.238  0.00  0.00    +0.000 C 
BRANCH  24  25
ATOM     25  C   UNL     1       5.683   4.792  17.232  0.00  0.00    +0.000 C 
ATOM     26  C   UNL     1       6.929   5.458  16.620  0.00  0.00    +0.000 C 
ATOM     27  C   UNL     1       6.824   5.248  15.115  0.00  0.00    +0.000 C 
ATOM     28  C   UNL     1       5.976   3.997  14.925  0.00  0.00    +0.000 C 
ATOM     29  C   UNL     1       5.514   3.570  16.315  0.00  0.00    +0.000 C 
BRANCH  25  31
ATOM     30  O   UNL     1       6.599   5.143  19.449  0.00  0.00    +0.000 OA
ATOM     31  C   UNL     1       5.963   4.431  18.685  0.00  0.00    +0.000 C 
BRANCH  31  32
ATOM     32  O   UNL     1       5.399   3.280  19.115  0.00  0.00    +0.000 OA
ATOM     33  H   UNL     1       4.923   2.759  18.444  0.00  0.00    +0.000 HD
ENDBRANCH  31  32
ENDBRANCH  25  31
ENDBRANCH  24  25
ENDBRANCH  23  24
ENDBRANCH   1  23
TORSDOF 8
ENDMDL
MODEL 7
REMARK VINA RESULT:      -8.1      0.785      1.078
REMARK  Name = 
REMARK  8 active torsions:
REMARK  status: ('A' for Active; 'I' for Inactive)
REMARK    1  A    between atoms: C_2  and  O_3
REMARK    2  A    between atoms: C_2  and  C_4
REMARK    3  A    between atoms: C_4  and  C_5
REMARK    4  A    between atoms: C_5  and  O_6
REMARK    5  A    between atoms: O_6  and  C_7
REMARK    6  A    between atoms: C_10  and  C_11
REMARK    7  A    between atoms: C_14  and  C_15
REMARK    8  A    between atoms: C_18  and  C_19
REMARK                            x       y       z     vdW  Elec       q    Type
REMARK                         _______ _______ _______ _____ _____    ______ ____
ROOT
ATOM      1  C   UNL     1       3.191   6.484  18.355  0.00  0.00    +0.000 A 
ATOM      2  C   UNL     1       2.987   7.611  17.581  0.00  0.00    +0.000 A 
ATOM      3  C   UNL     1       2.209   8.644  18.109  0.00  0.00    +0.000 A 
ATOM      4  C   UNL     1       1.659   8.542  19.397  0.00  0.00    +0.000 A 
ATOM      5  C   UNL     1       1.957   7.361  20.082  0.00  0.00    +0.000 A 
ATOM      6  N   UNL     1       2.691   6.336  19.595  0.00  0.00    +0.000 NA
ENDROOT
BRANCH   4   7
ATOM      7  C   UNL     1       0.817   9.599  19.991  0.00  0.00    +0.000 A 
ATOM      8  C   UNL     1      -0.153  10.286  19.250  0.00  0.00    +0.000 A 
ATOM      9  C   UNL     1      -0.943  11.265  19.850  0.00  0.00    +0.000 A 
ATOM     10  C   UNL     1      -0.745  11.557  21.192  0.00  0.00    +0.000 A 
ATOM     11  N   UNL     1       0.190  10.938  21.953  0.00  0.00    +0.000 NA
ATOM     12  C   UNL     1       0.929   9.980  21.336  0.00  0.00    +0.000 A 
BRANCH  10  13
ATOM     13  C   UNL     1      -1.556  12.562  21.867  0.00  0.00    +0.000 A 
ATOM     14  N   UNL     1      -1.674  13.840  21.543  0.00  0.00    +0.000 NA
ATOM     15  C   UNL     1      -2.532  14.388  22.456  0.00  0.00    +0.000 A 
ATOM     16  C   UNL     1      -2.945  13.444  23.365  0.00  0.00    +0.000 A 
ATOM     17  N   UNL     1      -2.330  12.283  22.972  0.00  0.00    +0.000 N 
ATOM     18  H   UNL     1      -2.397  11.366  23.397  0.00  0.00    +0.000 HD
BRANCH  16  19
ATOM     19  C   UNL     1      -3.831  13.536  24.532  0.00  0.00    +0.000 C 
ATOM     20  F   UNL     1      -4.996  14.165  24.244  0.00  0.00    +0.000 F 
ATOM     21  F   UNL     1      -4.147  12.310  25.016  0.00  0.00    +0.000 F 
ATOM     22  F   UNL     1      -3.247  14.220  25.546  0.00  0.00    +0.000 F 
ENDBRANCH  16  19
ENDBRANCH  10  13
ENDBRANCH   4   7
BRANCH   1  23
ATOM     23  O   UNL     1       3.930   5.462  17.801  0.00  0.00    +0.000 OA
BRANCH  23  24
ATOM     24  C   UNL     1       4.993   5.930  16.963  0.00  0.00    +0.000 C 
BRANCH  24  25
ATOM     25  C   UNL     1       6.080   4.856  16.776  0.00  0.00    +0.000 C 
ATOM     26  C   UNL     1       7.255   5.347  15.910  0.00  0.00    +0.000 C 
ATOM     27  C   UNL     1       6.842   5.110  14.464  0.00  0.00    +0.000 C 
ATOM     28  C   UNL     1       5.835   3.967  14.497  0.00  0.00    +0.000 C 
ATOM     29  C   UNL     1       5.600   3.639  15.969  0.00  0.00    +0.000 C 
BRANCH  25  31
ATOM     30  O   UNL     1       7.637   4.929  18.633  0.00  0.00    +0.000 OA
ATOM     31  C   UNL     1       6.588   4.505  18.168  0.00  0.00    +0.000 C 
BRANCH  31  32
ATOM     32  O   UNL     1       5.763   3.730  18.908  0.00  0.00    +0.000 OA
ATOM     33  H   UNL     1       4.947   4.156  19.227  0.00  0.00    +0.000 HD
ENDBRANCH  31  32
ENDBRANCH  25  31
ENDBRANCH  24  25
ENDBRANCH  23  24
ENDBRANCH   1  23
TORSDOF 8
ENDMDL
MODEL 8
REMARK VINA RESULT:      -8.1      1.392      1.859
REMARK  Name = 
REMARK  8 active torsions:
REMARK  status: ('A' for Active; 'I' for Inactive)
REMARK    1  A    between atoms: C_2  and  O_3
REMARK    2  A    between atoms: C_2  and  C_4
REMARK    3  A    between atoms: C_4  and  C_5
REMARK    4  A    between atoms: C_5  and  O_6
REMARK    5  A    between atoms: O_6  and  C_7
REMARK    6  A    between atoms: C_10  and  C_11
REMARK    7  A    between atoms: C_14  and  C_15
REMARK    8  A    between atoms: C_18  and  C_19
REMARK                            x       y       z     vdW  Elec       q    Type
REMARK                         _______ _______ _______ _____ _____    ______ ____
ROOT
ATOM      1  C   UNL     1       2.849   7.059  18.225  0.00  0.00    +0.000 A 
ATOM      2  C   UNL     1       2.428   8.219  17.600  0.00  0.00    +0.000 A 
ATOM      3  C   UNL     1       1.660   9.125  18.336  0.00  0.00    +0.000 A 
ATOM      4  C   UNL     1       1.335   8.868  19.678  0.00  0.00    +0.000 A 
ATOM      5  C   UNL     1       1.838   7.671  20.195  0.00  0.00    +0.000 A 
ATOM      6  N   UNL     1       2.569   6.765  19.507  0.00  0.00    +0.000 NA
ENDROOT
BRANCH   4   7
ATOM      7  C   UNL     1       0.513   9.786  20.490  0.00  0.00    +0.000 A 
ATOM      8  C   UNL     1       0.030  11.000  19.985  0.00  0.00    +0.000 A 
ATOM      9  C   UNL     1      -0.761  11.832  20.776  0.00  0.00    +0.000 A 
ATOM     10  C   UNL     1      -1.050  11.446  22.076  0.00  0.00    +0.000 A 
ATOM     11  N   UNL     1      -0.596  10.292  22.623  0.00  0.00    +0.000 NA
ATOM     12  C   UNL     1       0.158   9.501  21.816  0.00  0.00    +0.000 A 
BRANCH  10  13
ATOM     13  C   UNL     1      -1.885  12.276  22.936  0.00  0.00    +0.000 A 
ATOM     14  N   UNL     1      -3.093  11.988  23.392  0.00  0.00    +0.000 NA
ATOM     15  C   UNL     1      -3.481  13.059  24.148  0.00  0.00    +0.000 A 
ATOM     16  C   UNL     1      -2.508  14.030  24.155  0.00  0.00    +0.000 A 
ATOM     17  N   UNL     1      -1.491  13.515  23.392  0.00  0.00    +0.000 N 
ATOM     18  H   UNL     1      -0.599  13.941  23.171  0.00  0.00    +0.000 HD
BRANCH  16  19
ATOM     19  C   UNL     1      -2.455  15.354  24.788  0.00  0.00    +0.000 C 
ATOM     20  F   UNL     1      -2.663  16.356  23.900  0.00  0.00    +0.000 F 
ATOM     21  F   UNL     1      -3.390  15.479  25.761  0.00  0.00    +0.000 F 
ATOM     22  F   UNL     1      -1.250  15.577  25.369  0.00  0.00    +0.000 F 
ENDBRANCH  16  19
ENDBRANCH  10  13
ENDBRANCH   4   7
BRANCH   1  23
ATOM     23  O   UNL     1       3.573   6.163  17.470  0.00  0.00    +0.000 OA
BRANCH  23  24
ATOM     24  C   UNL     1       4.987   6.377  17.551  0.00  0.00    +0.000 C 
BRANCH  24  25
ATOM     25  C   UNL     1       5.763   5.048  17.492  0.00  0.00    +0.000 C 
ATOM     26  C   UNL     1       7.138   5.195  16.814  0.00  0.00    +0.000 C 
ATOM     27  C   UNL     1       6.888   5.059  15.318  0.00  0.00    +0.000 C 
ATOM     28  C   UNL     1       5.618   4.229  15.179  0.00  0.00    +0.000 C 
ATOM     29  C   UNL     1       5.096   3.994  16.593  0.00  0.00    +0.000 C 
BRANCH  25  31
ATOM     30  O   UNL     1       6.500   5.268  19.791  0.00  0.00    +0.000 OA
ATOM     31  C   UNL     1       5.954   4.590  18.932  0.00  0.00    +0.000 C 
BRANCH  31  32
ATOM     32  O   UNL     1       5.414   3.389  19.235  0.00  0.00    +0.000 OA
ATOM     33  H   UNL     1       5.967   2.610  19.044  0.00  0.00    +0.000 HD
ENDBRANCH  31  32
ENDBRANCH  25  31
ENDBRANCH  24  25
ENDBRANCH  23  24
ENDBRANCH   1  23
TORSDOF 8
ENDMDL
MODEL 9
REMARK VINA RESULT:      -8.0      2.360      3.383
REMARK  Name = 
REMARK  8 active torsions:
REMARK  status: ('A' for Active; 'I' for Inactive)
REMARK    1  A    between atoms: C_2  and  O_3
REMARK    2  A    between atoms: C_2  and  C_4
REMARK    3  A    between atoms: C_4  and  C_5
REMARK    4  A    between atoms: C_5  and  O_6
REMARK    5  A    between atoms: O_6  and  C_7
REMARK    6  A    between atoms: C_10  and  C_11
REMARK    7  A    between atoms: C_14  and  C_15
REMARK    8  A    between atoms: C_18  and  C_19
REMARK                            x       y       z     vdW  Elec       q    Type
REMARK                         _______ _______ _______ _____ _____    ______ ____
ROOT
ATOM      1  C   UNL     1       2.558   7.083  18.857  0.00  0.00    +0.000 A 
ATOM      2  C   UNL     1       2.218   8.169  18.070  0.00  0.00    +0.000 A 
ATOM      3  C   UNL     1       1.461   9.192  18.646  0.00  0.00    +0.000 A 
ATOM      4  C   UNL     1       1.067   9.122  19.993  0.00  0.00    +0.000 A 
ATOM      5  C   UNL     1       1.492   7.983  20.681  0.00  0.00    +0.000 A 
ATOM      6  N   UNL     1       2.209   6.968  20.150  0.00  0.00    +0.000 NA
ENDROOT
BRANCH   4   7
ATOM      7  C   UNL     1       0.253  10.169  20.641  0.00  0.00    +0.000 A 
ATOM      8  C   UNL     1      -0.621  10.990  19.918  0.00  0.00    +0.000 A 
ATOM      9  C   UNL     1      -1.390  11.955  20.567  0.00  0.00    +0.000 A 
ATOM     10  C   UNL     1      -1.263  12.099  21.941  0.00  0.00    +0.000 A 
ATOM     11  N   UNL     1      -0.421  11.346  22.689  0.00  0.00    +0.000 NA
ATOM     12  C   UNL     1       0.298  10.407  22.022  0.00  0.00    +0.000 A 
BRANCH  10  13
ATOM     13  C   UNL     1      -2.055  13.084  22.667  0.00  0.00    +0.000 A 
ATOM     14  N   UNL     1      -3.329  13.382  22.471  0.00  0.00    +0.000 NA
ATOM     15  C   UNL     1      -3.636  14.361  23.376  0.00  0.00    +0.000 A 
ATOM     16  C   UNL     1      -2.539  14.684  24.136  0.00  0.00    +0.000 A 
ATOM     17  N   UNL     1      -1.542  13.856  23.686  0.00  0.00    +0.000 N 
ATOM     18  H   UNL     1      -0.584  13.798  24.011  0.00  0.00    +0.000 HD
BRANCH  16  19
ATOM     19  C   UNL     1      -2.349  15.671  25.206  0.00  0.00    +0.000 C 
ATOM     20  F   UNL     1      -1.406  16.593  24.894  0.00  0.00    +0.000 F 
ATOM     21  F   UNL     1      -3.495  16.344  25.473  0.00  0.00    +0.000 F 
ATOM     22  F   UNL     1      -1.962  15.080  26.363  0.00  0.00    +0.000 F 
ENDBRANCH  16  19
ENDBRANCH  10  13
ENDBRANCH   4   7
BRANCH   1  23
ATOM     23  O   UNL     1       3.273   6.069  18.258  0.00  0.00    +0.000 OA
BRANCH  23  24
ATOM     24  C   UNL     1       2.458   4.948  17.896  0.00  0.00    +0.000 C 
BRANCH  24  25
ATOM     25  C   UNL     1       2.885   3.674  18.649  0.00  0.00    +0.000 C 
ATOM     26  C   UNL     1       2.233   2.402  18.078  0.00  0.00    +0.000 C 
ATOM     27  C   UNL     1       0.872   2.285  18.751  0.00  0.00    +0.000 C 
ATOM     28  C   UNL     1       0.999   3.016  20.082  0.00  0.00    +0.000 C 
ATOM     29  C   UNL     1       2.393   3.636  20.105  0.00  0.00    +0.000 C 
BRANCH  25  31
ATOM     30  O   UNL     1       5.158   3.450  19.463  0.00  0.00    +0.000 OA
ATOM     31  C   UNL     1       4.399   3.574  18.512  0.00  0.00    +0.000 C 
BRANCH  31  32
ATOM     32  O   UNL     1       4.866   3.562  17.244  0.00  0.00    +0.000 OA
ATOM     33  H   UNL     1       5.096   2.689  16.880  0.00  0.00    +0.000 HD
ENDBRANCH  31  32
ENDBRANCH  25  31
ENDBRANCH  24  25
ENDBRANCH  23  24
ENDBRANCH   1  23
TORSDOF 8
ENDMDL
