MODEL 1
REMARK VINA RESULT:      -6.5      0.000      0.000
REMARK  Name = 
REMARK  12 active torsions:
REMARK  status: ('A' for Active; 'I' for Inactive)
REMARK    1  A    between atoms: C_1  and  C_2
REMARK    2  A    between atoms: C_2  and  C_3
REMARK    3  A    between atoms: C_2  and  C_4
REMARK    4  A    between atoms: C_6  and  C_7
REMARK    5  A    between atoms: C_8  and  N_9
REMARK    6  A    between atoms: N_10  and  C_11
REMARK    7  A    between atoms: N_14  and  C_15
REMARK    8  A    between atoms: C_19  and  C_20
REMARK    9  A    between atoms: C_20  and  C_22
REMARK   10  A    between atoms: C_22  and  C_23
REMARK   11  A    between atoms: C_22  and  C_24
REMARK   12  A    between atoms: C_22  and  C_25
REMARK                            x       y       z     vdW  Elec       q    Type
REMARK                         _______ _______ _______ _____ _____    ______ ____
ROOT
ATOM      1  C   UNL     1       1.413   8.485  20.174  0.00  0.00    +0.000 A 
ATOM      2  N   UNL     1       2.025   7.294  19.791  0.00  0.00    +0.000 NA
ATOM      3  C   UNL     1       2.510   7.347  18.566  0.00  0.00    +0.000 A 
ATOM      4  S   UNL     1       2.078   8.778  17.751  0.00  0.00    +0.000 S 
ATOM      5  C   UNL     1       1.370   9.456  19.162  0.00  0.00    +0.000 A 
ENDROOT
BRANCH   3   6
ATOM      6  C   UNL     1       3.215   6.284  17.926  0.00  0.00    +0.000 A 
ATOM      7  C   UNL     1       2.690   5.035  17.926  0.00  0.00    +0.000 A 
ATOM      8  N   UNL     1       3.446   3.990  17.409  0.00  0.00    +0.000 N 
ATOM      9  C   UNL     1       2.952   2.617  17.422  0.00  0.00    +0.000 C 
ATOM     10  C   UNL     1       4.726   4.144  16.874  0.00  0.00    +0.000 A 
ATOM     11  O   UNL     1       5.371   3.179  16.458  0.00  0.00    +0.000 OA
ATOM     12  N   UNL     1       5.228   5.427  16.848  0.00  0.00    +0.000 N 
ATOM     13  C   UNL     1       6.560   5.651  16.316  0.00  0.00    +0.000 C 
ATOM     14  C   UNL     1       4.570   6.523  17.368  0.00  0.00    +0.000 A 
ATOM     15  O   UNL     1       5.083   7.644  17.390  0.00  0.00    +0.000 OA
BRANCH   7  16
ATOM     16  N   UNL     1       1.413   4.778  18.435  0.00  0.00    +0.000 N 
ATOM     17  H   UNL     1       0.714   5.425  18.053  0.00  0.00    +0.000 HD
ATOM     18  H   UNL     1       1.392   4.870  19.446  0.00  0.00    +0.000 HD
ENDBRANCH   7  16
ENDBRANCH   3   6
BRANCH   1  20
ATOM     19  C   UNL     1       1.554   9.541  22.486  0.00  0.00    +0.000 C 
ATOM     20  C   UNL     1       0.937   8.456  21.612  0.00  0.00    +0.000 C 
ATOM     21  C   UNL     1      -0.571   8.338  21.788  0.00  0.00    +0.000 C 
ENDBRANCH   1  20
BRANCH   5  22
ATOM     22  C   UNL     1       0.881  10.840  19.169  0.00  0.00    +0.000 C 
ATOM     23  O   UNL     1       1.687  11.771  19.312  0.00  0.00    +0.000 OA
BRANCH  22  24
ATOM     24  C   UNL     1      -0.667  11.196  19.109  0.00  0.00    +0.000 C 
ATOM     25  C   UNL     1      -1.166  11.516  20.531  0.00  0.00    +0.000 C 
ATOM     26  C   UNL     1      -0.863  12.461  18.230  0.00  0.00    +0.000 C 
ATOM     27  C   UNL     1      -1.585  10.144  18.455  0.00  0.00    +0.000 C 
ENDBRANCH  22  24
ENDBRANCH   5  22
TORSDOF 5
ENDMDL
MODEL 2
REMARK VINA RESULT:      -6.5      1.807      7.173
REMARK  Name = 
REMARK  12 active torsions:
REMARK  status: ('A' for Active; 'I' for Inactive)
REMARK    1  A    between atoms: C_1  and  C_2
REMARK    2  A    between atoms: C_2  and  C_3
REMARK    3  A    between atoms: C_2  and  C_4
REMARK    4  A    between atoms: C_6  and  C_7
REMARK    5  A    between atoms: C_8  and  N_9
REMARK    6  A    between atoms: N_10  and  C_11
REMARK    7  A    between atoms: N_14  and  C_15
REMARK    8  A    between atoms: C_19  and  C_20
REMARK    9  A    between atoms: C_20  and  C_22
REMARK   10  A    between atoms: C_22  and  C_23
REMARK   11  A    between atoms: C_22  and  C_24
REMARK   12  A    between atoms: C_22  and  C_25
REMARK                            x       y       z     vdW  Elec       q    Type
REMARK                         _______ _______ _______ _____ _____    ______ ____
ROOT
ATOM      1  C   UNL     1       3.017   5.363  17.848  0.00  0.00    +0.000 A 
ATOM      2  N   UNL     1       2.113   6.118  18.591  0.00  0.00    +0.000 NA
ATOM      3  C   UNL     1       2.444   7.392  18.646  0.00  0.00    +0.000 A 
ATOM      4  S   UNL     1       3.971   7.704  17.960  0.00  0.00    +0.000 S 
ATOM      5  C   UNL     1       4.122   6.092  17.383  0.00  0.00    +0.000 A 
ENDROOT
BRANCH   3   6
ATOM      6  C   UNL     1       1.684   8.400  19.312  0.00  0.00    +0.000 A 
ATOM      7  C   UNL     1       1.300   8.212  20.598  0.00  0.00    +0.000 A 
ATOM      8  N   UNL     1       0.457   9.144  21.188  0.00  0.00    +0.000 N 
ATOM      9  C   UNL     1      -0.025   8.973  22.555  0.00  0.00    +0.000 C 
ATOM     10  C   UNL     1      -0.023  10.284  20.540  0.00  0.00    +0.000 A 
ATOM     11  O   UNL     1      -0.796  11.064  21.098  0.00  0.00    +0.000 OA
ATOM     12  N   UNL     1       0.409  10.478  19.246  0.00  0.00    +0.000 N 
ATOM     13  C   UNL     1      -0.065  11.639  18.514  0.00  0.00    +0.000 C 
ATOM     14  C   UNL     1       1.216   9.593  18.561  0.00  0.00    +0.000 A 
ATOM     15  O   UNL     1       1.523   9.768  17.380  0.00  0.00    +0.000 OA
BRANCH   7  16
ATOM     16  N   UNL     1       1.731   7.104  21.334  0.00  0.00    +0.000 N 
ATOM     17  H   UNL     1       2.242   6.433  20.749  0.00  0.00    +0.000 HD
ATOM     18  H   UNL     1       0.948   6.609  21.750  0.00  0.00    +0.000 HD
ENDBRANCH   7  16
ENDBRANCH   3   6
BRANCH   1  20
ATOM     19  C   UNL     1       3.680   2.914  18.063  0.00  0.00    +0.000 C 
ATOM     20  C   UNL     1       2.588   3.917  17.708  0.00  0.00    +0.000 C 
ATOM     21  C   UNL     1       1.245   3.580  18.342  0.00  0.00    +0.000 C 
ENDBRANCH   1  20
BRANCH   5  22
ATOM     22  C   UNL     1       5.250   5.701  16.528  0.00  0.00    +0.000 C 
ATOM     23  O   UNL     1       5.052   5.465  15.327  0.00  0.00    +0.000 OA
BRANCH  22  24
ATOM     24  C   UNL     1       6.711   5.457  17.105  0.00  0.00    +0.000 C 
ATOM     25  C   UNL     1       7.476   4.515  16.157  0.00  0.00    +0.000 C 
ATOM     26  C   UNL     1       7.468   6.812  17.158  0.00  0.00    +0.000 C 
ATOM     27  C   UNL     1       6.795   4.928  18.551  0.00  0.00    +0.000 C 
ENDBRANCH  22  24
ENDBRANCH   5  22
TORSDOF 5
ENDMDL
MODEL 3
REMARK VINA RESULT:      -6.4      2.131      7.171
REMARK  Name = 
REMARK  12 active torsions:
REMARK  status: ('A' for Active; 'I' for Inactive)
REMARK    1  A    between atoms: C_1  and  C_2
REMARK    2  A    between atoms: C_2  and  C_3
REMARK    3  A    between atoms: C_2  and  C_4
REMARK    4  A    between atoms: C_6  and  C_7
REMARK    5  A    between atoms: C_8  and  N_9
REMARK    6  A    between atoms: N_10  and  C_11
REMARK    7  A    between atoms: N_14  and  C_15
REMARK    8  A    between atoms: C_19  and  C_20
REMARK    9  A    between atoms: C_20  and  C_22
REMARK   10  A    between atoms: C_22  and  C_23
REMARK   11  A    between atoms: C_22  and  C_24
REMARK   12  A    between atoms: C_22  and  C_25
REMARK                            x       y       z     vdW  Elec       q    Type
REMARK                         _______ _______ _______ _____ _____    ______ ____
ROOT
ATOM      1  C   UNL     1       2.916   5.630  19.243  0.00  0.00    +0.000 A 
ATOM      2  N   UNL     1       2.005   6.511  19.823  0.00  0.00    +0.000 NA
ATOM      3  C   UNL     1       2.066   7.718  19.297  0.00  0.00    +0.000 A 
ATOM      4  S   UNL     1       3.360   7.894  18.205  0.00  0.00    +0.000 S 
ATOM      5  C   UNL     1       3.751   6.223  18.284  0.00  0.00    +0.000 A 
ENDROOT
BRANCH   3   6
ATOM      6  C   UNL     1       1.229   8.810  19.676  0.00  0.00    +0.000 A 
ATOM      7  C   UNL     1       1.027   9.078  20.988  0.00  0.00    +0.000 A 
ATOM      8  N   UNL     1       0.113  10.063  21.339  0.00  0.00    +0.000 N 
ATOM      9  C   UNL     1      -0.179  10.365  22.736  0.00  0.00    +0.000 C 
ATOM     10  C   UNL     1      -0.617  10.814  20.416  0.00  0.00    +0.000 A 
ATOM     11  O   UNL     1      -1.441  11.655  20.778  0.00  0.00    +0.000 OA
ATOM     12  N   UNL     1      -0.370  10.554  19.085  0.00  0.00    +0.000 N 
ATOM     13  C   UNL     1      -1.108  11.294  18.076  0.00  0.00    +0.000 C 
ATOM     14  C   UNL     1       0.490   9.573  18.637  0.00  0.00    +0.000 A 
ATOM     15  O   UNL     1       0.630   9.324  17.438  0.00  0.00    +0.000 OA
BRANCH   7  16
ATOM     16  N   UNL     1       1.713   8.383  21.990  0.00  0.00    +0.000 N 
ATOM     17  H   UNL     1       1.972   7.438  21.688  0.00  0.00    +0.000 HD
ATOM     18  H   UNL     1       1.149   8.290  22.829  0.00  0.00    +0.000 HD
ENDBRANCH   7  16
ENDBRANCH   3   6
BRANCH   1  20
ATOM     19  C   UNL     1       2.195   4.153  21.187  0.00  0.00    +0.000 C 
ATOM     20  C   UNL     1       2.784   4.221  19.784  0.00  0.00    +0.000 C 
ATOM     21  C   UNL     1       2.150   3.221  18.826  0.00  0.00    +0.000 C 
ENDBRANCH   1  20
BRANCH   5  22
ATOM     22  C   UNL     1       4.781   5.648  17.411  0.00  0.00    +0.000 C 
ATOM     23  O   UNL     1       4.440   4.998  16.411  0.00  0.00    +0.000 OA
BRANCH  22  24
ATOM     24  C   UNL     1       6.331   5.730  17.754  0.00  0.00    +0.000 C 
ATOM     25  C   UNL     1       6.534   5.416  19.248  0.00  0.00    +0.000 C 
ATOM     26  C   UNL     1       7.092   4.661  16.925  0.00  0.00    +0.000 C 
ATOM     27  C   UNL     1       7.041   7.052  17.395  0.00  0.00    +0.000 C 
ENDBRANCH  22  24
ENDBRANCH   5  22
TORSDOF 5
ENDMDL
MODEL 4
REMARK VINA RESULT:      -6.3      1.874      7.175
REMARK  Name = 
REMARK  12 active torsions:
REMARK  status: ('A' for Active; 'I' for Inactive)
REMARK    1  A    between atoms: C_1  and  C_2
REMARK    2  A    between atoms: C_2  and  C_3
REMARK    3  A    between atoms: C_2  and  C_4
REMARK    4  A    between atoms: C_6  and  C_7
REMARK    5  A    between atoms: C_8  and  N_9
REMARK    6  A    between atoms: N_10  and  C_11
REMARK    7  A    between atoms: N_14  and  C_15
REMARK    8  A    between atoms: C_19  and  C_20
REMARK    9  A    between atoms: C_20  and  C_22
REMARK   10  A    between atoms: C_22  and  C_23
REMARK   11  A    between atoms: C_22  and  C_24
REMARK   12  A    between atoms: C_22  and  C_25
REMARK                            x       y       z     vdW  Elec       q    Type
REMARK                         _______ _______ _______ _____ _____    ______ ____
ROOT
ATOM      1  C   UNL     1       3.185   4.695  18.062  0.00  0.00    +0.000 A 
ATOM      2  N   UNL     1       2.246   5.579  18.590  0.00  0.00    +0.000 NA
ATOM      3  C   UNL     1       2.750   6.777  18.813  0.00  0.00    +0.000 A 
ATOM      4  S   UNL     1       4.434   6.836  18.571  0.00  0.00    +0.000 S 
ATOM      5  C   UNL     1       4.476   5.234  17.950  0.00  0.00    +0.000 A 
ENDROOT
BRANCH   3   6
ATOM      6  C   UNL     1       2.010   7.886  19.321  0.00  0.00    +0.000 A 
ATOM      7  C   UNL     1       1.468   7.821  20.561  0.00  0.00    +0.000 A 
ATOM      8  N   UNL     1       0.648   8.857  20.989  0.00  0.00    +0.000 N 
ATOM      9  C   UNL     1       0.001   8.821  22.297  0.00  0.00    +0.000 C 
ATOM     10  C   UNL     1       0.346   9.982  20.220  0.00  0.00    +0.000 A 
ATOM     11  O   UNL     1      -0.415  10.859  20.633  0.00  0.00    +0.000 OA
ATOM     12  N   UNL     1       0.937  10.049  18.977  0.00  0.00    +0.000 N 
ATOM     13  C   UNL     1       0.651  11.189  18.124  0.00  0.00    +0.000 C 
ATOM     14  C   UNL     1       1.736   9.056  18.448  0.00  0.00    +0.000 A 
ATOM     15  O   UNL     1       2.188   9.122  17.304  0.00  0.00    +0.000 OA
BRANCH   7  16
ATOM     16  N   UNL     1       1.714   6.737  21.410  0.00  0.00    +0.000 N 
ATOM     17  H   UNL     1       1.529   6.973  22.391  0.00  0.00    +0.000 HD
ATOM     18  H   UNL     1       2.680   6.431  21.348  0.00  0.00    +0.000 HD
ENDBRANCH   7  16
ENDBRANCH   3   6
BRANCH   1  20
ATOM     19  C   UNL     1       3.526   2.175  17.964  0.00  0.00    +0.000 C 
ATOM     20  C   UNL     1       2.584   3.347  17.722  0.00  0.00    +0.000 C 
ATOM     21  C   UNL     1       1.185   3.108  18.275  0.00  0.00    +0.000 C 
ENDBRANCH   1  20
BRANCH   5  22
ATOM     22  C   UNL     1       5.714   4.672  17.397  0.00  0.00    +0.000 C 
ATOM     23  O   UNL     1       6.564   4.196  18.164  0.00  0.00    +0.000 OA
BRANCH  22  24
ATOM     24  C   UNL     1       6.064   4.746  15.848  0.00  0.00    +0.000 C 
ATOM     25  C   UNL     1       5.604   3.445  15.165  0.00  0.00    +0.000 C 
ATOM     26  C   UNL     1       5.290   5.930  15.209  0.00  0.00    +0.000 C 
ATOM     27  C   UNL     1       7.538   5.032  15.494  0.00  0.00    +0.000 C 
ENDBRANCH  22  24
ENDBRANCH   5  22
TORSDOF 5
ENDMDL
MODEL 5
REMARK VINA RESULT:      -6.2      2.224      7.523
REMARK  Name = 
REMARK  12 active torsions:
REMARK  status: ('A' for Active; 'I' for Inactive)
REMARK    1  A    between atoms: C_1  and  C_2
REMARK    2  A    between atoms: C_2  and  C_3
REMARK    3  A    between atoms: C_2  and  C_4
REMARK    4  A    between atoms: C_6  and  C_7
REMARK    5  A    between atoms: C_8  and  N_9
REMARK    6  A    between atoms: N_10  and  C_11
REMARK    7  A    between atoms: N_14  and  C_15
REMARK    8  A    between atoms: C_19  and  C_20
REMARK    9  A    between atoms: C_20  and  C_22
REMARK   10  A    between atoms: C_22  and  C_23
REMARK   11  A    between atoms: C_22  and  C_24
REMARK   12  A    between atoms: C_22  and  C_25
REMARK                            x       y       z     vdW  Elec       q    Type
REMARK                         _______ _______ _______ _____ _____    ______ ____
ROOT
ATOM      1  C   UNL     1       3.882   6.378  18.031  0.00  0.00    +0.000 A 
ATOM      2  N   UNL     1       3.216   7.583  18.236  0.00  0.00    +0.000 NA
ATOM      3  C   UNL     1       2.352   7.520  19.229  0.00  0.00    +0.000 A 
ATOM      4  S   UNL     1       2.168   5.941  19.839  0.00  0.00    +0.000 S 
ATOM      5  C   UNL     1       3.445   5.336  18.863  0.00  0.00    +0.000 A 
ENDROOT
BRANCH   3   6
ATOM      6  C   UNL     1       1.553   8.613  19.680  0.00  0.00    +0.000 A 
ATOM      7  C   UNL     1       1.335   9.669  18.860  0.00  0.00    +0.000 A 
ATOM      8  N   UNL     1       0.662  10.777  19.358  0.00  0.00    +0.000 N 
ATOM      9  C   UNL     1       0.436  11.961  18.535  0.00  0.00    +0.000 C 
ATOM     10  C   UNL     1       0.180  10.875  20.665  0.00  0.00    +0.000 A 
ATOM     11  O   UNL     1      -0.382  11.895  21.069  0.00  0.00    +0.000 OA
ATOM     12  N   UNL     1       0.378   9.777  21.473  0.00  0.00    +0.000 N 
ATOM     13  C   UNL     1      -0.089   9.822  22.847  0.00  0.00    +0.000 C 
ATOM     14  C   UNL     1       1.064   8.646  21.083  0.00  0.00    +0.000 A 
ATOM     15  O   UNL     1       1.282   7.713  21.858  0.00  0.00    +0.000 OA
BRANCH   7  16
ATOM     16  N   UNL     1       1.774   9.666  17.532  0.00  0.00    +0.000 N 
ATOM     17  H   UNL     1       2.163  10.575  17.258  0.00  0.00    +0.000 HD
ATOM     18  H   UNL     1       1.015   9.454  16.892  0.00  0.00    +0.000 HD
ENDBRANCH   7  16
ENDBRANCH   3   6
BRANCH   1  20
ATOM     19  C   UNL     1       6.316   6.869  17.471  0.00  0.00    +0.000 C 
ATOM     20  C   UNL     1       4.939   6.476  16.950  0.00  0.00    +0.000 C 
ATOM     21  C   UNL     1       4.984   5.299  15.985  0.00  0.00    +0.000 C 
ENDBRANCH   1  20
BRANCH   5  22
ATOM     22  C   UNL     1       3.917   3.954  19.012  0.00  0.00    +0.000 C 
ATOM     23  O   UNL     1       5.094   3.743  19.340  0.00  0.00    +0.000 OA
BRANCH  22  24
ATOM     24  C   UNL     1       3.005   2.700  18.660  0.00  0.00    +0.000 C 
ATOM     25  C   UNL     1       2.307   2.948  17.309  0.00  0.00    +0.000 C 
ATOM     26  C   UNL     1       3.904   1.443  18.518  0.00  0.00    +0.000 C 
ATOM     27  C   UNL     1       1.963   2.294  19.722  0.00  0.00    +0.000 C 
ENDBRANCH  22  24
ENDBRANCH   5  22
TORSDOF 5
ENDMDL
MODEL 6
REMARK VINA RESULT:      -6.0      2.244      7.522
REMARK  Name = 
REMARK  12 active torsions:
REMARK  status: ('A' for Active; 'I' for Inactive)
REMARK    1  A    between atoms: C_1  and  C_2
REMARK    2  A    between atoms: C_2  and  C_3
REMARK    3  A    between atoms: C_2  and  C_4
REMARK    4  A    between atoms: C_6  and  C_7
REMARK    5  A    between atoms: C_8  and  N_9
REMARK    6  A    between atoms: N_10  and  C_11
REMARK    7  A    between atoms: N_14  and  C_15
REMARK    8  A    between atoms: C_19  and  C_20
REMARK    9  A    between atoms: C_20  and  C_22
REMARK   10  A    between atoms: C_22  and  C_23
REMARK   11  A    between atoms: C_22  and  C_24
REMARK   12  A    between atoms: C_22  and  C_25
REMARK                            x       y       z     vdW  Elec       q    Type
REMARK                         _______ _______ _______ _____ _____    ______ ____
ROOT
ATOM      1  C   UNL     1       3.795   6.193  17.785  0.00  0.00    +0.000 A 
ATOM      2  N   UNL     1       3.420   7.440  18.278  0.00  0.00    +0.000 NA
ATOM      3  C   UNL     1       2.271   7.403  18.922  0.00  0.00    +0.000 A 
ATOM      4  S   UNL     1       1.496   5.892  18.797  0.00  0.00    +0.000 S 
ATOM      5  C   UNL     1       2.847   5.182  18.006  0.00  0.00    +0.000 A 
ENDROOT
BRANCH   3   6
ATOM      6  C   UNL     1       1.661   8.526  19.557  0.00  0.00    +0.000 A 
ATOM      7  C   UNL     1       1.548   9.698  18.887  0.00  0.00    +0.000 A 
ATOM      8  N   UNL     1       1.066  10.812  19.561  0.00  0.00    +0.000 N 
ATOM      9  C   UNL     1       0.965  12.111  18.903  0.00  0.00    +0.000 C 
ATOM     10  C   UNL     1       0.676  10.805  20.901  0.00  0.00    +0.000 A 
ATOM     11  O   UNL     1       0.286  11.830  21.463  0.00  0.00    +0.000 OA
ATOM     12  N   UNL     1       0.762   9.596  21.556  0.00  0.00    +0.000 N 
ATOM     13  C   UNL     1       0.382   9.527  22.956  0.00  0.00    +0.000 C 
ATOM     14  C   UNL     1       1.259   8.443  20.985  0.00  0.00    +0.000 A 
ATOM     15  O   UNL     1       1.385   7.398  21.626  0.00  0.00    +0.000 OA
BRANCH   7  16
ATOM     16  N   UNL     1       1.909   9.806  17.539  0.00  0.00    +0.000 N 
ATOM     17  H   UNL     1       2.840  10.222  17.427  0.00  0.00    +0.000 HD
ATOM     18  H   UNL     1       1.253  10.387  17.027  0.00  0.00    +0.000 HD
ENDBRANCH   7  16
ENDBRANCH   3   6
BRANCH   1  20
ATOM     19  C   UNL     1       6.280   5.685  18.008  0.00  0.00    +0.000 C 
ATOM     20  C   UNL     1       5.158   6.217  17.124  0.00  0.00    +0.000 C 
ATOM     21  C   UNL     1       5.199   5.650  15.711  0.00  0.00    +0.000 C 
ENDBRANCH   1  20
BRANCH   5  22
ATOM     22  C   UNL     1       2.876   3.745  17.709  0.00  0.00    +0.000 C 
ATOM     23  O   UNL     1       2.522   3.346  16.590  0.00  0.00    +0.000 OA
BRANCH  22  24
ATOM     24  C   UNL     1       3.244   2.657  18.807  0.00  0.00    +0.000 C 
ATOM     25  C   UNL     1       1.978   2.306  19.612  0.00  0.00    +0.000 C 
ATOM     26  C   UNL     1       3.740   1.368  18.098  0.00  0.00    +0.000 C 
ATOM     27  C   UNL     1       4.394   3.018  19.770  0.00  0.00    +0.000 C 
ENDBRANCH  22  24
ENDBRANCH   5  22
TORSDOF 5
ENDMDL
MODEL 7
REMARK VINA RESULT:      -6.0      2.038      7.342
REMARK  Name = 
REMARK  12 active torsions:
REMARK  status: ('A' for Active; 'I' for Inactive)
REMARK    1  A    between atoms: C_1  and  C_2
REMARK    2  A    between atoms: C_2  and  C_3
REMARK    3  A    between atoms: C_2  and  C_4
REMARK    4  A    between atoms: C_6  and  C_7
REMARK    5  A    between atoms: C_8  and  N_9
REMARK    6  A    between atoms: N_10  and  C_11
REMARK    7  A    between atoms: N_14  and  C_15
REMARK    8  A    between atoms: C_19  and  C_20
REMARK    9  A    between atoms: C_20  and  C_22
REMARK   10  A    between atoms: C_22  and  C_23
REMARK   11  A    between atoms: C_22  and  C_24
REMARK   12  A    between atoms: C_22  and  C_25
REMARK                            x       y       z     vdW  Elec       q    Type
REMARK                         _______ _______ _______ _____ _____    ______ ____
ROOT
ATOM      1  C   UNL     1       3.929   5.945  17.718  0.00  0.00    +0.000 A 
ATOM      2  N   UNL     1       3.608   7.218  18.183  0.00  0.00    +0.000 NA
ATOM      3  C   UNL     1       2.434   7.257  18.780  0.00  0.00    +0.000 A 
ATOM      4  S   UNL     1       1.577   5.792  18.639  0.00  0.00    +0.000 S 
ATOM      5  C   UNL     1       2.914   4.995  17.910  0.00  0.00    +0.000 A 
ENDROOT
BRANCH   3   6
ATOM      6  C   UNL     1       1.867   8.421  19.379  0.00  0.00    +0.000 A 
ATOM      7  C   UNL     1       1.452   8.380  20.668  0.00  0.00    +0.000 A 
ATOM      8  N   UNL     1       0.790   9.482  21.195  0.00  0.00    +0.000 N 
ATOM      9  C   UNL     1       0.281   9.478  22.562  0.00  0.00    +0.000 C 
ATOM     10  C   UNL     1       0.527  10.650  20.478  0.00  0.00    +0.000 A 
ATOM     11  O   UNL     1      -0.095  11.588  20.981  0.00  0.00    +0.000 OA
ATOM     12  N   UNL     1       0.989  10.688  19.180  0.00  0.00    +0.000 N 
ATOM     13  C   UNL     1       0.735  11.872  18.378  0.00  0.00    +0.000 C 
ATOM     14  C   UNL     1       1.625   9.635  18.556  0.00  0.00    +0.000 A 
ATOM     15  O   UNL     1       1.961   9.683  17.372  0.00  0.00    +0.000 OA
BRANCH   7  16
ATOM     16  N   UNL     1       1.672   7.256  21.471  0.00  0.00    +0.000 N 
ATOM     17  H   UNL     1       1.029   6.491  21.240  0.00  0.00    +0.000 HD
ATOM     18  H   UNL     1       1.545   7.474  22.454  0.00  0.00    +0.000 HD
ENDBRANCH   7  16
ENDBRANCH   3   6
BRANCH   1  20
ATOM     19  C   UNL     1       6.310   5.071  17.937  0.00  0.00    +0.000 C 
ATOM     20  C   UNL     1       5.316   5.881  17.113  0.00  0.00    +0.000 C 
ATOM     21  C   UNL     1       5.356   5.536  15.630  0.00  0.00    +0.000 C 
ENDBRANCH   1  20
BRANCH   5  22
ATOM     22  C   UNL     1       2.870   3.555  17.629  0.00  0.00    +0.000 C 
ATOM     23  O   UNL     1       2.561   3.164  16.493  0.00  0.00    +0.000 OA
BRANCH  22  24
ATOM     24  C   UNL     1       3.099   2.460  18.758  0.00  0.00    +0.000 C 
ATOM     25  C   UNL     1       1.732   2.017  19.314  0.00  0.00    +0.000 C 
ATOM     26  C   UNL     1       3.793   1.221  18.130  0.00  0.00    +0.000 C 
ATOM     27  C   UNL     1       4.032   2.860  19.919  0.00  0.00    +0.000 C 
ENDBRANCH  22  24
ENDBRANCH   5  22
TORSDOF 5
ENDMDL
MODEL 8
REMARK VINA RESULT:      -5.9      1.198      1.675
REMARK  Name = 
REMARK  12 active torsions:
REMARK  status: ('A' for Active; 'I' for Inactive)
REMARK    1  A    between atoms: C_1  and  C_2
REMARK    2  A    between atoms: C_2  and  C_3
REMARK    3  A    between atoms: C_2  and  C_4
REMARK    4  A    between atoms: C_6  and  C_7
REMARK    5  A    between atoms: C_8  and  N_9
REMARK    6  A    between atoms: N_10  and  C_11
REMARK    7  A    between atoms: N_14  and  C_15
REMARK    8  A    between atoms: C_19  and  C_20
REMARK    9  A    between atoms: C_20  and  C_22
REMARK   10  A    between atoms: C_22  and  C_23
REMARK   11  A    between atoms: C_22  and  C_24
REMARK   12  A    between atoms: C_22  and  C_25
REMARK                            x       y       z     vdW  Elec       q    Type
REMARK                         _______ _______ _______ _____ _____    ______ ____
ROOT
ATOM      1  C   UNL     1       1.200   9.041  20.515  0.00  0.00    +0.000 A 
ATOM      2  N   UNL     1       1.677   7.733  20.470  0.00  0.00    +0.000 NA
ATOM      3  C   UNL     1       2.097   7.390  19.269  0.00  0.00    +0.000 A 
ATOM      4  S   UNL     1       1.759   8.572  18.092  0.00  0.00    +0.000 S 
ATOM      5  C   UNL     1       1.195   9.689  19.270  0.00  0.00    +0.000 A 
ENDROOT
BRANCH   3   6
ATOM      6  C   UNL     1       2.664   6.122  18.941  0.00  0.00    +0.000 A 
ATOM      7  C   UNL     1       2.177   4.998  19.520  0.00  0.00    +0.000 A 
ATOM      8  N   UNL     1       2.820   3.790  19.284  0.00  0.00    +0.000 N 
ATOM      9  C   UNL     1       2.368   2.554  19.915  0.00  0.00    +0.000 C 
ATOM     10  C   UNL     1       3.947   3.651  18.472  0.00  0.00    +0.000 A 
ATOM     11  O   UNL     1       4.502   2.561  18.321  0.00  0.00    +0.000 OA
ATOM     12  N   UNL     1       4.405   4.798  17.861  0.00  0.00    +0.000 N 
ATOM     13  C   UNL     1       5.582   4.721  17.013  0.00  0.00    +0.000 C 
ATOM     14  C   UNL     1       3.858   6.049  18.059  0.00  0.00    +0.000 A 
ATOM     15  O   UNL     1       4.340   7.062  17.550  0.00  0.00    +0.000 OA
BRANCH   7  16
ATOM     16  N   UNL     1       1.050   5.032  20.347  0.00  0.00    +0.000 N 
ATOM     17  H   UNL     1       0.269   4.498  19.948  0.00  0.00    +0.000 HD
ATOM     18  H   UNL     1       0.725   5.983  20.492  0.00  0.00    +0.000 HD
ENDBRANCH   7  16
ENDBRANCH   3   6
BRANCH   1  20
ATOM     19  C   UNL     1      -0.553   8.929  22.357  0.00  0.00    +0.000 C 
ATOM     20  C   UNL     1       0.802   9.466  21.913  0.00  0.00    +0.000 C 
ATOM     21  C   UNL     1       1.884   9.292  22.971  0.00  0.00    +0.000 C 
ENDBRANCH   1  20
BRANCH   5  22
ATOM     22  C   UNL     1       0.839  11.063  18.895  0.00  0.00    +0.000 C 
ATOM     23  O   UNL     1       1.737  11.870  18.612  0.00  0.00    +0.000 OA
BRANCH  22  24
ATOM     24  C   UNL     1      -0.657  11.598  18.943  0.00  0.00    +0.000 C 
ATOM     25  C   UNL     1      -0.789  12.810  18.001  0.00  0.00    +0.000 C 
ATOM     26  C   UNL     1      -1.611  10.483  18.436  0.00  0.00    +0.000 C 
ATOM     27  C   UNL     1      -1.211  11.955  20.338  0.00  0.00    +0.000 C 
ENDBRANCH  22  24
ENDBRANCH   5  22
TORSDOF 5
ENDMDL
MODEL 9
REMARK VINA RESULT:      -5.9      2.159      7.342
REMARK  Name = 
REMARK  12 active torsions:
REMARK  status: ('A' for Active; 'I' for Inactive)
REMARK    1  A    between atoms: C_1  and  C_2
REMARK    2  A    between atoms: C_2  and  C_3
REMARK    3  A    between atoms: C_2  and  C_4
REMARK    4  A    between atoms: C_6  and  C_7
REMARK    5  A    between atoms: C_8  and  N_9
REMARK    6  A    between atoms: N_10  and  C_11
REMARK    7  A    between atoms: N_14  and  C_15
REMARK    8  A    between atoms: C_19  and  C_20
REMARK    9  A    between atoms: C_20  and  C_22
REMARK   10  A    between atoms: C_22  and  C_23
REMARK   11  A    between atoms: C_22  and  C_24
REMARK   12  A    between atoms: C_22  and  C_25
REMARK                            x       y       z     vdW  Elec       q    Type
REMARK                         _______ _______ _______ _____ _____    ______ ____
ROOT
ATOM      1  C   UNL     1       3.770   6.502  18.074  0.00  0.00    +0.000 A 
ATOM      2  N   UNL     1       3.063   7.691  18.232  0.00  0.00    +0.000 NA
ATOM      3  C   UNL     1       2.194   7.635  19.221  0.00  0.00    +0.000 A 
ATOM      4  S   UNL     1       2.058   6.074  19.887  0.00  0.00    +0.000 S 
ATOM      5  C   UNL     1       3.362   5.476  18.941  0.00  0.00    +0.000 A 
ENDROOT
BRANCH   3   6
ATOM      6  C   UNL     1       1.356   8.716  19.628  0.00  0.00    +0.000 A 
ATOM      7  C   UNL     1       1.137   8.938  20.946  0.00  0.00    +0.000 A 
ATOM      8  N   UNL     1       0.223   9.914  21.319  0.00  0.00    +0.000 N 
ATOM      9  C   UNL     1      -0.087  10.167  22.722  0.00  0.00    +0.000 C 
ATOM     10  C   UNL     1      -0.490  10.702  20.414  0.00  0.00    +0.000 A 
ATOM     11  O   UNL     1      -1.316  11.533  20.795  0.00  0.00    +0.000 OA
ATOM     12  N   UNL     1      -0.226  10.489  19.078  0.00  0.00    +0.000 N 
ATOM     13  C   UNL     1      -0.946  11.268  18.086  0.00  0.00    +0.000 C 
ATOM     14  C   UNL     1       0.636   9.520  18.607  0.00  0.00    +0.000 A 
ATOM     15  O   UNL     1       0.792   9.314  17.402  0.00  0.00    +0.000 OA
BRANCH   7  16
ATOM     16  N   UNL     1       1.806   8.204  21.931  0.00  0.00    +0.000 N 
ATOM     17  H   UNL     1       2.824   8.315  21.863  0.00  0.00    +0.000 HD
ATOM     18  H   UNL     1       1.603   7.212  21.856  0.00  0.00    +0.000 HD
ENDBRANCH   7  16
ENDBRANCH   3   6
BRANCH   1  20
ATOM     19  C   UNL     1       6.187   7.068  17.510  0.00  0.00    +0.000 C 
ATOM     20  C   UNL     1       4.832   6.597  16.998  0.00  0.00    +0.000 C 
ATOM     21  C   UNL     1       4.933   5.381  16.085  0.00  0.00    +0.000 C 
ENDBRANCH   1  20
BRANCH   5  22
ATOM     22  C   UNL     1       3.878   4.117  19.142  0.00  0.00    +0.000 C 
ATOM     23  O   UNL     1       5.065   3.956  19.464  0.00  0.00    +0.000 OA
BRANCH  22  24
ATOM     24  C   UNL     1       3.002   2.823  18.856  0.00  0.00    +0.000 C 
ATOM     25  C   UNL     1       2.155   2.502  20.102  0.00  0.00    +0.000 C 
ATOM     26  C   UNL     1       2.037   3.114  17.675  0.00  0.00    +0.000 C 
ATOM     27  C   UNL     1       3.770   1.563  18.406  0.00  0.00    +0.000 C 
ENDBRANCH  22  24
ENDBRANCH   5  22
TORSDOF 5
ENDMDL
