MODEL 1
REMARK VINA RESULT:      -7.2      0.000      0.000
REMARK  Name = 
REMARK  10 active torsions:
REMARK  status: ('A' for Active; 'I' for Inactive)
REMARK    1  A    between atoms: C_2  and  C_3
REMARK    2  A    between atoms: C_3  and  C_4
REMARK    3  A    between atoms: C_3  and  O_5
REMARK    4  A    between atoms: C_3  and  C_6
REMARK    5  A    between atoms: C_6  and  C_7
REMARK    6  A    between atoms: C_8  and  C_9
REMARK    7  A    between atoms: C_8  and  O_10
REMARK    8  A    between atoms: C_14  and  C_15
REMARK    9  A    between atoms: C_14  and  C_16
REMARK   10  A    between atoms: C_20  and  C_21
REMARK                            x       y       z     vdW  Elec       q    Type
REMARK                         _______ _______ _______ _____ _____    ______ ____
ROOT
ATOM      1  C   UNL     1       3.472   5.957  17.565  0.00  0.00    +0.000 C 
ATOM      2  C   UNL     1       2.606   7.137  18.172  0.00  0.00    +0.000 C 
ATOM      3  C   UNL     1       3.004   8.576  17.823  0.00  0.00    +0.000 C 
ATOM      4  C   UNL     1       2.512   6.994  19.697  0.00  0.00    +0.000 C 
ATOM      5  C   UNL     1       2.011   5.632  20.180  0.00  0.00    +0.000 C 
ATOM      6  C   UNL     1       2.720   4.416  19.543  0.00  0.00    +0.000 C 
ATOM      7  C   UNL     1       2.248   3.031  20.139  0.00  0.00    +0.000 C 
ATOM      8  C   UNL     1       2.614   2.953  21.646  0.00  0.00    +0.000 C 
ATOM      9  C   UNL     1       0.729   2.785  20.059  0.00  0.00    +0.000 C 
ATOM     10  C   UNL     1       3.011   1.874  19.442  0.00  0.00    +0.000 C 
ATOM     11  C   UNL     1       2.996   1.933  17.922  0.00  0.00    +0.000 C 
ATOM     12  C   UNL     1       3.524   3.281  17.406  0.00  0.00    +0.000 C 
ATOM     13  C   UNL     1       2.760   4.520  17.973  0.00  0.00    +0.000 C 
ATOM     14  C   UNL     1       1.341   4.446  17.330  0.00  0.00    +0.000 C 
ENDROOT
BRANCH   2  15
ATOM     15  O   UNL     1       1.274   7.071  17.646  0.00  0.00    +0.000 OA
ATOM     16  H   UNL     1       0.660   7.004  18.403  0.00  0.00    +0.000 HD
ENDBRANCH   2  15
BRANCH   1  17
ATOM     17  C   UNL     1       5.009   5.961  17.964  0.00  0.00    +0.000 C 
BRANCH  17  18
ATOM     18  C   UNL     1       6.194   5.875  16.952  0.00  0.00    +0.000 C 
ATOM     19  C   UNL     1       7.226   4.869  17.516  0.00  0.00    +0.000 C 
BRANCH  18  21
ATOM     20  C   UNL     1       5.859   4.499  14.799  0.00  0.00    +0.000 C 
ATOM     21  C   UNL     1       5.734   5.615  15.535  0.00  0.00    +0.000 C 
ENDBRANCH  18  21
BRANCH  18  22
ATOM     22  O   UNL     1       6.900   7.106  16.897  0.00  0.00    +0.000 OA
ATOM     23  H   UNL     1       7.377   7.207  17.740  0.00  0.00    +0.000 HD
ENDBRANCH  18  22
ENDBRANCH  17  18
ENDBRANCH   1  17
TORSDOF 5
ENDMDL
MODEL 2
REMARK VINA RESULT:      -7.2      1.002      1.489
REMARK  Name = 
REMARK  10 active torsions:
REMARK  status: ('A' for Active; 'I' for Inactive)
REMARK    1  A    between atoms: C_2  and  C_3
REMARK    2  A    between atoms: C_3  and  C_4
REMARK    3  A    between atoms: C_3  and  O_5
REMARK    4  A    between atoms: C_3  and  C_6
REMARK    5  A    between atoms: C_6  and  C_7
REMARK    6  A    between atoms: C_8  and  C_9
REMARK    7  A    between atoms: C_8  and  O_10
REMARK    8  A    between atoms: C_14  and  C_15
REMARK    9  A    between atoms: C_14  and  C_16
REMARK   10  A    between atoms: C_20  and  C_21
REMARK                            x       y       z     vdW  Elec       q    Type
REMARK                         _______ _______ _______ _____ _____    ______ ____
ROOT
ATOM      1  C   UNL     1       3.680   5.793  17.794  0.00  0.00    +0.000 C 
ATOM      2  C   UNL     1       2.746   7.004  18.209  0.00  0.00    +0.000 C 
ATOM      3  C   UNL     1       3.195   8.421  17.838  0.00  0.00    +0.000 C 
ATOM      4  C   UNL     1       2.442   6.947  19.712  0.00  0.00    +0.000 C 
ATOM      5  C   UNL     1       1.871   5.614  20.198  0.00  0.00    +0.000 C 
ATOM      6  C   UNL     1       2.655   4.365  19.735  0.00  0.00    +0.000 C 
ATOM      7  C   UNL     1       2.098   3.015  20.336  0.00  0.00    +0.000 C 
ATOM      8  C   UNL     1       2.252   3.023  21.881  0.00  0.00    +0.000 C 
ATOM      9  C   UNL     1       0.602   2.761  20.062  0.00  0.00    +0.000 C 
ATOM     10  C   UNL     1       2.943   1.822  19.818  0.00  0.00    +0.000 C 
ATOM     11  C   UNL     1       3.137   1.795  18.309  0.00  0.00    +0.000 C 
ATOM     12  C   UNL     1       3.739   3.113  17.795  0.00  0.00    +0.000 C 
ATOM     13  C   UNL     1       2.911   4.380  18.181  0.00  0.00    +0.000 C 
ATOM     14  C   UNL     1       1.594   4.267  17.354  0.00  0.00    +0.000 C 
ENDROOT
BRANCH   2  15
ATOM     15  O   UNL     1       1.498   6.905  17.510  0.00  0.00    +0.000 OA
ATOM     16  H   UNL     1       1.232   5.965  17.508  0.00  0.00    +0.000 HD
ENDBRANCH   2  15
BRANCH   1  17
ATOM     17  C   UNL     1       5.148   5.823  18.401  0.00  0.00    +0.000 C 
BRANCH  17  18
ATOM     18  C   UNL     1       6.453   5.544  17.592  0.00  0.00    +0.000 C 
ATOM     19  C   UNL     1       6.066   5.413  16.100  0.00  0.00    +0.000 C 
BRANCH  18  21
ATOM     20  C   UNL     1       7.637   7.833  17.556  0.00  0.00    +0.000 C 
ATOM     21  C   UNL     1       7.553   6.538  17.898  0.00  0.00    +0.000 C 
ENDBRANCH  18  21
BRANCH  18  22
ATOM     22  O   UNL     1       6.992   4.274  17.927  0.00  0.00    +0.000 OA
ATOM     23  H   UNL     1       7.946   4.302  17.732  0.00  0.00    +0.000 HD
ENDBRANCH  18  22
ENDBRANCH  17  18
ENDBRANCH   1  17
TORSDOF 5
ENDMDL
MODEL 3
REMARK VINA RESULT:      -7.2      1.862      2.968
REMARK  Name = 
REMARK  10 active torsions:
REMARK  status: ('A' for Active; 'I' for Inactive)
REMARK    1  A    between atoms: C_2  and  C_3
REMARK    2  A    between atoms: C_3  and  C_4
REMARK    3  A    between atoms: C_3  and  O_5
REMARK    4  A    between atoms: C_3  and  C_6
REMARK    5  A    between atoms: C_6  and  C_7
REMARK    6  A    between atoms: C_8  and  C_9
REMARK    7  A    between atoms: C_8  and  O_10
REMARK    8  A    between atoms: C_14  and  C_15
REMARK    9  A    between atoms: C_14  and  C_16
REMARK   10  A    between atoms: C_20  and  C_21
REMARK                            x       y       z     vdW  Elec       q    Type
REMARK                         _______ _______ _______ _____ _____    ______ ____
ROOT
ATOM      1  C   UNL     1       5.318   4.375  18.064  0.00  0.00    +0.000 C 
ATOM      2  C   UNL     1       4.729   5.068  16.766  0.00  0.00    +0.000 C 
ATOM      3  C   UNL     1       5.710   5.755  15.808  0.00  0.00    +0.000 C 
ATOM      4  C   UNL     1       3.621   6.057  17.150  0.00  0.00    +0.000 C 
ATOM      5  C   UNL     1       2.508   5.464  18.016  0.00  0.00    +0.000 C 
ATOM      6  C   UNL     1       2.998   4.662  19.243  0.00  0.00    +0.000 C 
ATOM      7  C   UNL     1       1.824   4.150  20.168  0.00  0.00    +0.000 C 
ATOM      8  C   UNL     1       1.062   5.361  20.771  0.00  0.00    +0.000 C 
ATOM      9  C   UNL     1       0.763   3.300  19.443  0.00  0.00    +0.000 C 
ATOM     10  C   UNL     1       2.409   3.359  21.367  0.00  0.00    +0.000 C 
ATOM     11  C   UNL     1       3.412   2.281  20.983  0.00  0.00    +0.000 C 
ATOM     12  C   UNL     1       4.560   2.855  20.138  0.00  0.00    +0.000 C 
ATOM     13  C   UNL     1       4.086   3.595  18.847  0.00  0.00    +0.000 C 
ATOM     14  C   UNL     1       3.518   2.472  17.925  0.00  0.00    +0.000 C 
ENDROOT
BRANCH   2  15
ATOM     15  O   UNL     1       4.146   4.072  15.915  0.00  0.00    +0.000 OA
ATOM     16  H   UNL     1       4.741   3.952  15.149  0.00  0.00    +0.000 HD
ENDBRANCH   2  15
BRANCH   1  17
ATOM     17  C   UNL     1       6.102   5.335  19.056  0.00  0.00    +0.000 C 
BRANCH  17  18
ATOM     18  C   UNL     1       7.645   5.560  19.047  0.00  0.00    +0.000 C 
ATOM     19  C   UNL     1       8.278   4.468  18.151  0.00  0.00    +0.000 C 
BRANCH  18  21
ATOM     20  C   UNL     1       7.684   7.716  17.636  0.00  0.00    +0.000 C 
ATOM     21  C   UNL     1       8.026   6.985  18.708  0.00  0.00    +0.000 C 
ENDBRANCH  18  21
BRANCH  18  22
ATOM     22  O   UNL     1       8.198   5.321  20.333  0.00  0.00    +0.000 OA
ATOM     23  H   UNL     1       9.032   4.835  20.206  0.00  0.00    +0.000 HD
ENDBRANCH  18  22
ENDBRANCH  17  18
ENDBRANCH   1  17
TORSDOF 5
ENDMDL
MODEL 4
REMARK VINA RESULT:      -7.0      0.768      1.109
REMARK  Name = 
REMARK  10 active torsions:
REMARK  status: ('A' for Active; 'I' for Inactive)
REMARK    1  A    between atoms: C_2  and  C_3
REMARK    2  A    between atoms: C_3  and  C_4
REMARK    3  A    between atoms: C_3  and  O_5
REMARK    4  A    between atoms: C_3  and  C_6
REMARK    5  A    between atoms: C_6  and  C_7
REMARK    6  A    between atoms: C_8  and  C_9
REMARK    7  A    between atoms: C_8  and  O_10
REMARK    8  A    between atoms: C_14  and  C_15
REMARK    9  A    between atoms: C_14  and  C_16
REMARK   10  A    between atoms: C_20  and  C_21
REMARK                            x       y       z     vdW  Elec       q    Type
REMARK                         _______ _______ _______ _____ _____    ______ ____
ROOT
ATOM      1  C   UNL     1       3.422   6.105  17.589  0.00  0.00    +0.000 C 
ATOM      2  C   UNL     1       2.496   7.239  18.197  0.00  0.00    +0.000 C 
ATOM      3  C   UNL     1       2.834   8.698  17.869  0.00  0.00    +0.000 C 
ATOM      4  C   UNL     1       2.388   7.075  19.719  0.00  0.00    +0.000 C 
ATOM      5  C   UNL     1       1.941   5.687  20.181  0.00  0.00    +0.000 C 
ATOM      6  C   UNL     1       2.713   4.510  19.541  0.00  0.00    +0.000 C 
ATOM      7  C   UNL     1       2.294   3.099  20.115  0.00  0.00    +0.000 C 
ATOM      8  C   UNL     1       2.643   3.020  21.626  0.00  0.00    +0.000 C 
ATOM      9  C   UNL     1       0.788   2.787  20.011  0.00  0.00    +0.000 C 
ATOM     10  C   UNL     1       3.117   1.985  19.417  0.00  0.00    +0.000 C 
ATOM     11  C   UNL     1       3.119   2.061  17.897  0.00  0.00    +0.000 C 
ATOM     12  C   UNL     1       3.594   3.436  17.403  0.00  0.00    +0.000 C 
ATOM     13  C   UNL     1       2.769   4.633  17.972  0.00  0.00    +0.000 C 
ATOM     14  C   UNL     1       1.363   4.504  17.309  0.00  0.00    +0.000 C 
ENDROOT
BRANCH   2  15
ATOM     15  O   UNL     1       1.175   7.120  17.652  0.00  0.00    +0.000 OA
ATOM     16  H   UNL     1       1.200   7.463  16.738  0.00  0.00    +0.000 HD
ENDBRANCH   2  15
BRANCH   1  17
ATOM     17  C   UNL     1       4.952   6.172  18.010  0.00  0.00    +0.000 C 
BRANCH  17  18
ATOM     18  C   UNL     1       6.144   6.330  17.016  0.00  0.00    +0.000 C 
ATOM     19  C   UNL     1       6.988   7.542  17.477  0.00  0.00    +0.000 C 
BRANCH  18  21
ATOM     20  C   UNL     1       7.786   4.441  17.632  0.00  0.00    +0.000 C 
ATOM     21  C   UNL     1       6.909   5.040  16.811  0.00  0.00    +0.000 C 
ENDBRANCH  18  21
BRANCH  18  22
ATOM     22  O   UNL     1       5.679   6.698  15.725  0.00  0.00    +0.000 OA
ATOM     23  H   UNL     1       5.954   7.619  15.569  0.00  0.00    +0.000 HD
ENDBRANCH  18  22
ENDBRANCH  17  18
ENDBRANCH   1  17
TORSDOF 5
ENDMDL
MODEL 5
REMARK VINA RESULT:      -6.0      1.742      2.449
REMARK  Name = 
REMARK  10 active torsions:
REMARK  status: ('A' for Active; 'I' for Inactive)
REMARK    1  A    between atoms: C_2  and  C_3
REMARK    2  A    between atoms: C_3  and  C_4
REMARK    3  A    between atoms: C_3  and  O_5
REMARK    4  A    between atoms: C_3  and  C_6
REMARK    5  A    between atoms: C_6  and  C_7
REMARK    6  A    between atoms: C_8  and  C_9
REMARK    7  A    between atoms: C_8  and  O_10
REMARK    8  A    between atoms: C_14  and  C_15
REMARK    9  A    between atoms: C_14  and  C_16
REMARK   10  A    between atoms: C_20  and  C_21
REMARK                            x       y       z     vdW  Elec       q    Type
REMARK                         _______ _______ _______ _____ _____    ______ ____
ROOT
ATOM      1  C   UNL     1       4.408   5.224  16.832  0.00  0.00    +0.000 C 
ATOM      2  C   UNL     1       5.161   6.309  17.708  0.00  0.00    +0.000 C 
ATOM      3  C   UNL     1       6.055   7.323  16.986  0.00  0.00    +0.000 C 
ATOM      4  C   UNL     1       5.967   5.626  18.820  0.00  0.00    +0.000 C 
ATOM      5  C   UNL     1       5.159   4.668  19.698  0.00  0.00    +0.000 C 
ATOM      6  C   UNL     1       4.295   3.649  18.921  0.00  0.00    +0.000 C 
ATOM      7  C   UNL     1       3.554   2.613  19.856  0.00  0.00    +0.000 C 
ATOM      8  C   UNL     1       4.597   1.746  20.612  0.00  0.00    +0.000 C 
ATOM      9  C   UNL     1       2.666   3.252  20.942  0.00  0.00    +0.000 C 
ATOM     10  C   UNL     1       2.716   1.635  18.992  0.00  0.00    +0.000 C 
ATOM     11  C   UNL     1       1.809   2.311  17.973  0.00  0.00    +0.000 C 
ATOM     12  C   UNL     1       2.600   3.257  17.057  0.00  0.00    +0.000 C 
ATOM     13  C   UNL     1       3.411   4.350  17.823  0.00  0.00    +0.000 C 
ATOM     14  C   UNL     1       2.333   5.296  18.434  0.00  0.00    +0.000 C 
ENDROOT
BRANCH   2  15
ATOM     15  O   UNL     1       4.199   7.169  18.334  0.00  0.00    +0.000 OA
ATOM     16  H   UNL     1       3.310   6.870  18.057  0.00  0.00    +0.000 HD
ENDBRANCH   2  15
BRANCH   1  17
ATOM     17  C   UNL     1       5.344   4.263  15.981  0.00  0.00    +0.000 C 
BRANCH  17  18
ATOM     18  C   UNL     1       5.979   4.628  14.604  0.00  0.00    +0.000 C 
ATOM     19  C   UNL     1       7.502   4.805  14.817  0.00  0.00    +0.000 C 
BRANCH  18  21
ATOM     20  C   UNL     1       6.191   3.428  12.333  0.00  0.00    +0.000 C 
ATOM     21  C   UNL     1       5.581   3.668  13.504  0.00  0.00    +0.000 C 
ENDBRANCH  18  21
BRANCH  18  22
ATOM     22  O   UNL     1       5.537   5.904  14.166  0.00  0.00    +0.000 OA
ATOM     23  H   UNL     1       5.073   5.777  13.319  0.00  0.00    +0.000 HD
ENDBRANCH  18  22
ENDBRANCH  17  18
ENDBRANCH   1  17
TORSDOF 5
ENDMDL
MODEL 6
REMARK VINA RESULT:      -6.0      1.570      2.122
REMARK  Name = 
REMARK  10 active torsions:
REMARK  status: ('A' for Active; 'I' for Inactive)
REMARK    1  A    between atoms: C_2  and  C_3
REMARK    2  A    between atoms: C_3  and  C_4
REMARK    3  A    between atoms: C_3  and  O_5
REMARK    4  A    between atoms: C_3  and  C_6
REMARK    5  A    between atoms: C_6  and  C_7
REMARK    6  A    between atoms: C_8  and  C_9
REMARK    7  A    between atoms: C_8  and  O_10
REMARK    8  A    between atoms: C_14  and  C_15
REMARK    9  A    between atoms: C_14  and  C_16
REMARK   10  A    between atoms: C_20  and  C_21
REMARK                            x       y       z     vdW  Elec       q    Type
REMARK                         _______ _______ _______ _____ _____    ______ ____
ROOT
ATOM      1  C   UNL     1       3.834   4.979  17.077  0.00  0.00    +0.000 C 
ATOM      2  C   UNL     1       4.236   6.329  17.802  0.00  0.00    +0.000 C 
ATOM      3  C   UNL     1       5.292   7.218  17.135  0.00  0.00    +0.000 C 
ATOM      4  C   UNL     1       4.655   6.048  19.251  0.00  0.00    +0.000 C 
ATOM      5  C   UNL     1       3.629   5.262  20.070  0.00  0.00    +0.000 C 
ATOM      6  C   UNL     1       3.088   3.988  19.383  0.00  0.00    +0.000 C 
ATOM      7  C   UNL     1       2.109   3.149  20.296  0.00  0.00    +0.000 C 
ATOM      8  C   UNL     1       2.871   2.627  21.545  0.00  0.00    +0.000 C 
ATOM      9  C   UNL     1       0.903   3.941  20.837  0.00  0.00    +0.000 C 
ATOM     10  C   UNL     1       1.620   1.896  19.526  0.00  0.00    +0.000 C 
ATOM     11  C   UNL     1       1.076   2.183  18.134  0.00  0.00    +0.000 C 
ATOM     12  C   UNL     1       2.098   2.946  17.277  0.00  0.00    +0.000 C 
ATOM     13  C   UNL     1       2.591   4.281  17.918  0.00  0.00    +0.000 C 
ATOM     14  C   UNL     1       1.351   5.226  17.883  0.00  0.00    +0.000 C 
ENDROOT
BRANCH   2  15
ATOM     15  O   UNL     1       3.103   7.207  17.840  0.00  0.00    +0.000 OA
ATOM     16  H   UNL     1       3.193   7.773  18.631  0.00  0.00    +0.000 HD
ENDBRANCH   2  15
BRANCH   1  17
ATOM     17  C   UNL     1       5.018   3.943  16.854  0.00  0.00    +0.000 C 
BRANCH  17  18
ATOM     18  C   UNL     1       6.161   4.108  15.805  0.00  0.00    +0.000 C 
ATOM     19  C   UNL     1       5.630   5.007  14.663  0.00  0.00    +0.000 C 
BRANCH  18  21
ATOM     20  C   UNL     1       7.803   4.606  17.728  0.00  0.00    +0.000 C 
ATOM     21  C   UNL     1       7.468   4.546  16.430  0.00  0.00    +0.000 C 
ENDBRANCH  18  21
BRANCH  18  22
ATOM     22  O   UNL     1       6.446   2.869  15.172  0.00  0.00    +0.000 OA
ATOM     23  H   UNL     1       6.685   2.233  15.869  0.00  0.00    +0.000 HD
ENDBRANCH  18  22
ENDBRANCH  17  18
ENDBRANCH   1  17
TORSDOF 5
ENDMDL
MODEL 7
REMARK VINA RESULT:      -5.8      1.911      5.219
REMARK  Name = 
REMARK  10 active torsions:
REMARK  status: ('A' for Active; 'I' for Inactive)
REMARK    1  A    between atoms: C_2  and  C_3
REMARK    2  A    between atoms: C_3  and  C_4
REMARK    3  A    between atoms: C_3  and  O_5
REMARK    4  A    between atoms: C_3  and  C_6
REMARK    5  A    between atoms: C_6  and  C_7
REMARK    6  A    between atoms: C_8  and  C_9
REMARK    7  A    between atoms: C_8  and  O_10
REMARK    8  A    between atoms: C_14  and  C_15
REMARK    9  A    between atoms: C_14  and  C_16
REMARK   10  A    between atoms: C_20  and  C_21
REMARK                            x       y       z     vdW  Elec       q    Type
REMARK                         _______ _______ _______ _____ _____    ______ ____
ROOT
ATOM      1  C   UNL     1       3.107   5.774  17.994  0.00  0.00    +0.000 C 
ATOM      2  C   UNL     1       2.759   4.311  18.491  0.00  0.00    +0.000 C 
ATOM      3  C   UNL     1       1.312   4.014  18.903  0.00  0.00    +0.000 C 
ATOM      4  C   UNL     1       3.702   3.900  19.629  0.00  0.00    +0.000 C 
ATOM      5  C   UNL     1       5.191   4.037  19.305  0.00  0.00    +0.000 C 
ATOM      6  C   UNL     1       5.601   5.398  18.697  0.00  0.00    +0.000 C 
ATOM      7  C   UNL     1       7.157   5.540  18.468  0.00  0.00    +0.000 C 
ATOM      8  C   UNL     1       7.898   5.482  19.832  0.00  0.00    +0.000 C 
ATOM      9  C   UNL     1       7.781   4.430  17.600  0.00  0.00    +0.000 C 
ATOM     10  C   UNL     1       7.472   6.931  17.858  0.00  0.00    +0.000 C 
ATOM     11  C   UNL     1       6.630   7.291  16.642  0.00  0.00    +0.000 C 
ATOM     12  C   UNL     1       5.128   7.193  16.948  0.00  0.00    +0.000 C 
ATOM     13  C   UNL     1       4.681   5.795  17.482  0.00  0.00    +0.000 C 
ATOM     14  C   UNL     1       4.841   4.830  16.267  0.00  0.00    +0.000 C 
ENDROOT
BRANCH   2  15
ATOM     15  O   UNL     1       2.947   3.383  17.415  0.00  0.00    +0.000 OA
ATOM     16  H   UNL     1       2.064   3.084  17.123  0.00  0.00    +0.000 HD
ENDBRANCH   2  15
BRANCH   1  17
ATOM     17  C   UNL     1       2.838   6.936  19.043  0.00  0.00    +0.000 C 
BRANCH  17  18
ATOM     18  C   UNL     1       1.992   8.216  18.760  0.00  0.00    +0.000 C 
ATOM     19  C   UNL     1       1.031   7.899  17.588  0.00  0.00    +0.000 C 
BRANCH  18  21
ATOM     20  C   UNL     1       1.140   8.176  21.192  0.00  0.00    +0.000 C 
ATOM     21  C   UNL     1       1.341   8.773  20.006  0.00  0.00    +0.000 C 
ENDBRANCH  18  21
BRANCH  18  22
ATOM     22  O   UNL     1       2.812   9.263  18.265  0.00  0.00    +0.000 OA
ATOM     23  H   UNL     1       3.630   9.268  18.794  0.00  0.00    +0.000 HD
ENDBRANCH  18  22
ENDBRANCH  17  18
ENDBRANCH   1  17
TORSDOF 5
ENDMDL
MODEL 8
REMARK VINA RESULT:      -5.7      1.884      2.894
REMARK  Name = 
REMARK  10 active torsions:
REMARK  status: ('A' for Active; 'I' for Inactive)
REMARK    1  A    between atoms: C_2  and  C_3
REMARK    2  A    between atoms: C_3  and  C_4
REMARK    3  A    between atoms: C_3  and  O_5
REMARK    4  A    between atoms: C_3  and  C_6
REMARK    5  A    between atoms: C_6  and  C_7
REMARK    6  A    between atoms: C_8  and  C_9
REMARK    7  A    between atoms: C_8  and  O_10
REMARK    8  A    between atoms: C_14  and  C_15
REMARK    9  A    between atoms: C_14  and  C_16
REMARK   10  A    between atoms: C_20  and  C_21
REMARK                            x       y       z     vdW  Elec       q    Type
REMARK                         _______ _______ _______ _____ _____    ______ ____
ROOT
ATOM      1  C   UNL     1       4.860   5.199  16.606  0.00  0.00    +0.000 C 
ATOM      2  C   UNL     1       5.575   6.297  17.498  0.00  0.00    +0.000 C 
ATOM      3  C   UNL     1       6.535   7.272  16.808  0.00  0.00    +0.000 C 
ATOM      4  C   UNL     1       6.291   5.633  18.681  0.00  0.00    +0.000 C 
ATOM      5  C   UNL     1       5.408   4.718  19.531  0.00  0.00    +0.000 C 
ATOM      6  C   UNL     1       4.577   3.691  18.728  0.00  0.00    +0.000 C 
ATOM      7  C   UNL     1       3.755   2.698  19.641  0.00  0.00    +0.000 C 
ATOM      8  C   UNL     1       4.727   1.836  20.491  0.00  0.00    +0.000 C 
ATOM      9  C   UNL     1       2.810   3.386  20.646  0.00  0.00    +0.000 C 
ATOM     10  C   UNL     1       2.955   1.710  18.753  0.00  0.00    +0.000 C 
ATOM     11  C   UNL     1       2.132   2.370  17.656  0.00  0.00    +0.000 C 
ATOM     12  C   UNL     1       3.001   3.273  16.767  0.00  0.00    +0.000 C 
ATOM     13  C   UNL     1       3.782   4.374  17.553  0.00  0.00    +0.000 C 
ATOM     14  C   UNL     1       2.685   5.359  18.063  0.00  0.00    +0.000 C 
ENDROOT
BRANCH   2  15
ATOM     15  O   UNL     1       4.591   7.192  18.032  0.00  0.00    +0.000 OA
ATOM     16  H   UNL     1       4.984   7.636  18.809  0.00  0.00    +0.000 HD
ENDBRANCH   2  15
BRANCH   1  17
ATOM     17  C   UNL     1       5.830   4.195  15.848  0.00  0.00    +0.000 C 
BRANCH  17  18
ATOM     18  C   UNL     1       6.171   4.262  14.327  0.00  0.00    +0.000 C 
ATOM     19  C   UNL     1       4.917   4.780  13.583  0.00  0.00    +0.000 C 
BRANCH  18  21
ATOM     20  C   UNL     1       7.975   5.383  12.867  0.00  0.00    +0.000 C 
ATOM     21  C   UNL     1       7.454   5.014  14.048  0.00  0.00    +0.000 C 
ENDBRANCH  18  21
BRANCH  18  22
ATOM     22  O   UNL     1       6.378   2.960  13.799  0.00  0.00    +0.000 OA
ATOM     23  H   UNL     1       7.294   2.921  13.471  0.00  0.00    +0.000 HD
ENDBRANCH  18  22
ENDBRANCH  17  18
ENDBRANCH   1  17
TORSDOF 5
ENDMDL
MODEL 9
REMARK VINA RESULT:      -5.6      2.267      5.023
REMARK  Name = 
REMARK  10 active torsions:
REMARK  status: ('A' for Active; 'I' for Inactive)
REMARK    1  A    between atoms: C_2  and  C_3
REMARK    2  A    between atoms: C_3  and  C_4
REMARK    3  A    between atoms: C_3  and  O_5
REMARK    4  A    between atoms: C_3  and  C_6
REMARK    5  A    between atoms: C_6  and  C_7
REMARK    6  A    between atoms: C_8  and  C_9
REMARK    7  A    between atoms: C_8  and  O_10
REMARK    8  A    between atoms: C_14  and  C_15
REMARK    9  A    between atoms: C_14  and  C_16
REMARK   10  A    between atoms: C_20  and  C_21
REMARK                            x       y       z     vdW  Elec       q    Type
REMARK                         _______ _______ _______ _____ _____    ______ ____
ROOT
ATOM      1  C   UNL     1       2.550   6.689  19.825  0.00  0.00    +0.000 C 
ATOM      2  C   UNL     1       2.813   7.002  18.294  0.00  0.00    +0.000 C 
ATOM      3  C   UNL     1       2.809   8.468  17.847  0.00  0.00    +0.000 C 
ATOM      4  C   UNL     1       1.840   6.204  17.416  0.00  0.00    +0.000 C 
ATOM      5  C   UNL     1       1.830   4.697  17.681  0.00  0.00    +0.000 C 
ATOM      6  C   UNL     1       1.701   4.300  19.170  0.00  0.00    +0.000 C 
ATOM      7  C   UNL     1       1.594   2.741  19.397  0.00  0.00    +0.000 C 
ATOM      8  C   UNL     1       0.298   2.199  18.734  0.00  0.00    +0.000 C 
ATOM      9  C   UNL     1       2.752   1.925  18.791  0.00  0.00    +0.000 C 
ATOM     10  C   UNL     1       1.469   2.440  20.913  0.00  0.00    +0.000 C 
ATOM     11  C   UNL     1       2.516   3.123  21.781  0.00  0.00    +0.000 C 
ATOM     12  C   UNL     1       2.527   4.643  21.558  0.00  0.00    +0.000 C 
ATOM     13  C   UNL     1       2.744   5.063  20.069  0.00  0.00    +0.000 C 
ATOM     14  C   UNL     1       4.218   4.666  19.750  0.00  0.00    +0.000 C 
ENDROOT
BRANCH   2  15
ATOM     15  O   UNL     1       4.143   6.598  17.945  0.00  0.00    +0.000 OA
ATOM     16  H   UNL     1       4.550   6.199  18.738  0.00  0.00    +0.000 HD
ENDBRANCH   2  15
BRANCH   1  17
ATOM     17  C   UNL     1       1.153   7.184  20.395  0.00  0.00    +0.000 C 
BRANCH  17  18
ATOM     18  C   UNL     1       0.930   8.519  21.172  0.00  0.00    +0.000 C 
ATOM     19  C   UNL     1       0.950   9.675  20.142  0.00  0.00    +0.000 C 
BRANCH  18  21
ATOM     20  C   UNL     1      -0.662   9.348  23.022  0.00  0.00    +0.000 C 
ATOM     21  C   UNL     1      -0.281   8.472  22.078  0.00  0.00    +0.000 C 
ENDBRANCH  18  21
BRANCH  18  22
ATOM     22  O   UNL     1       2.028   8.795  22.028  0.00  0.00    +0.000 OA
ATOM     23  H   UNL     1       2.802   8.967  21.462  0.00  0.00    +0.000 HD
ENDBRANCH  18  22
ENDBRANCH  17  18
ENDBRANCH   1  17
TORSDOF 5
ENDMDL
