MODEL 1
REMARK VINA RESULT:      -7.5      0.000      0.000
REMARK  Name = 
REMARK  9 active torsions:
REMARK  status: ('A' for Active; 'I' for Inactive)
REMARK    1  A    between atoms: C_1  and  C_2
REMARK    2  A    between atoms: C_2  and  O_3
REMARK    3  A    between atoms: O_3  and  C_4
REMARK    4  A    between atoms: C_9  and  O_10
REMARK    5  A    between atoms: O_10  and  C_11
REMARK    6  A    between atoms: C_14  and  N_15
REMARK    7  A    between atoms: C_19  and  C_20
REMARK    8  A    between atoms: C_20  and  C_21
REMARK    9  A    between atoms: C_21  and  O_23
REMARK                            x       y       z     vdW  Elec       q    Type
REMARK                         _______ _______ _______ _____ _____    ______ ____
ROOT
ATOM      1  C   UNL     1       2.342   7.368  19.520  0.00  0.00    +0.000 A 
ATOM      2  C   UNL     1       2.334   7.916  18.236  0.00  0.00    +0.000 A 
ATOM      3  C   UNL     1       1.610   9.085  17.949  0.00  0.00    +0.000 A 
ATOM      4  C   UNL     1       0.853   9.750  18.920  0.00  0.00    +0.000 A 
ATOM      5  C   UNL     1       0.901   9.192  20.211  0.00  0.00    +0.000 A 
ATOM      6  C   UNL     1       1.607   8.006  20.509  0.00  0.00    +0.000 A 
ENDROOT
BRANCH   4   7
ATOM      7  N   UNL     1       0.126  10.905  18.641  0.00  0.00    +0.000 N 
ATOM      8  C   UNL     1       0.700  12.220  18.962  0.00  0.00    +0.000 C 
ATOM      9  C   UNL     1      -0.414  12.946  19.701  0.00  0.00    +0.000 C 
ATOM     10  C   UNL     1      -1.660  12.453  18.999  0.00  0.00    +0.000 C 
ATOM     11  C   UNL     1      -1.361  10.968  18.716  0.00  0.00    +0.000 C 
BRANCH  11  12
ATOM     12  C   UNL     1      -1.980  10.505  17.395  0.00  0.00    +0.000 C 
BRANCH  12  13
ATOM     13  C   UNL     1      -3.438  10.878  17.287  0.00  0.00    +0.000 C 
ATOM     14  O   UNL     1      -4.344  10.411  17.958  0.00  0.00    +0.000 OA
BRANCH  13  15
ATOM     15  O   UNL     1      -3.663  11.814  16.334  0.00  0.00    +0.000 OA
ATOM     16  H   UNL     1      -4.518  12.273  16.431  0.00  0.00    +0.000 HD
ENDBRANCH  13  15
ENDBRANCH  12  13
ENDBRANCH  11  12
ENDBRANCH   4   7
BRANCH   1  17
ATOM     17  O   UNL     1       3.057   6.199  19.630  0.00  0.00    +0.000 OA
BRANCH  17  23
ATOM     18  C   UNL     1       2.787   4.282  18.104  0.00  0.00    +0.000 A 
ATOM     19  C   UNL     1       2.108   3.082  17.850  0.00  0.00    +0.000 A 
ATOM     20  C   UNL     1       1.093   2.641  18.701  0.00  0.00    +0.000 A 
ATOM     21  C   UNL     1       0.775   3.376  19.838  0.00  0.00    +0.000 A 
ATOM     22  C   UNL     1       1.500   4.529  20.142  0.00  0.00    +0.000 A 
ATOM     23  C   UNL     1       2.527   4.974  19.295  0.00  0.00    +0.000 A 
BRANCH  18  24
ATOM     24  O   UNL     1       3.674   4.843  17.224  0.00  0.00    +0.000 OA
BRANCH  24  26
ATOM     25  C   UNL     1       5.470   3.980  15.908  0.00  0.00    +0.000 C 
ATOM     26  C   UNL     1       5.019   4.372  17.301  0.00  0.00    +0.000 C 
ENDBRANCH  24  26
ENDBRANCH  18  24
ENDBRANCH  17  23
ENDBRANCH   1  17
TORSDOF 8
ENDMDL
MODEL 2
REMARK VINA RESULT:      -7.5      2.438      7.960
REMARK  Name = 
REMARK  9 active torsions:
REMARK  status: ('A' for Active; 'I' for Inactive)
REMARK    1  A    between atoms: C_1  and  C_2
REMARK    2  A    between atoms: C_2  and  O_3
REMARK    3  A    between atoms: O_3  and  C_4
REMARK    4  A    between atoms: C_9  and  O_10
REMARK    5  A    between atoms: O_10  and  C_11
REMARK    6  A    between atoms: C_14  and  N_15
REMARK    7  A    between atoms: C_19  and  C_20
REMARK    8  A    between atoms: C_20  and  C_21
REMARK    9  A    between atoms: C_21  and  O_23
REMARK                            x       y       z     vdW  Elec       q    Type
REMARK                         _______ _______ _______ _____ _____    ______ ____
ROOT
ATOM      1  C   UNL     1       1.005   9.684  18.891  0.00  0.00    +0.000 A 
ATOM      2  C   UNL     1       1.701   9.106  17.827  0.00  0.00    +0.000 A 
ATOM      3  C   UNL     1       2.409   7.904  17.989  0.00  0.00    +0.000 A 
ATOM      4  C   UNL     1       2.467   7.232  19.215  0.00  0.00    +0.000 A 
ATOM      5  C   UNL     1       1.733   7.820  20.262  0.00  0.00    +0.000 A 
ATOM      6  C   UNL     1       1.035   9.040  20.120  0.00  0.00    +0.000 A 
ENDROOT
BRANCH   4   7
ATOM      7  N   UNL     1       3.173   6.044  19.385  0.00  0.00    +0.000 N 
ATOM      8  C   UNL     1       4.468   5.866  18.710  0.00  0.00    +0.000 C 
ATOM      9  C   UNL     1       4.365   4.497  18.055  0.00  0.00    +0.000 C 
ATOM     10  C   UNL     1       3.548   3.706  19.054  0.00  0.00    +0.000 C 
ATOM     11  C   UNL     1       2.510   4.722  19.567  0.00  0.00    +0.000 C 
BRANCH  11  12
ATOM     12  C   UNL     1       2.174   4.495  21.043  0.00  0.00    +0.000 C 
BRANCH  12  13
ATOM     13  C   UNL     1       1.449   3.192  21.270  0.00  0.00    +0.000 C 
ATOM     14  O   UNL     1       1.725   2.363  22.121  0.00  0.00    +0.000 OA
BRANCH  13  15
ATOM     15  O   UNL     1       0.423   3.013  20.403  0.00  0.00    +0.000 OA
ATOM     16  H   UNL     1       0.677   2.537  19.590  0.00  0.00    +0.000 HD
ENDBRANCH  13  15
ENDBRANCH  12  13
ENDBRANCH  11  12
ENDBRANCH   4   7
BRANCH   1  17
ATOM     17  O   UNL     1       0.404  10.882  18.588  0.00  0.00    +0.000 OA
BRANCH  17  23
ATOM     18  C   UNL     1      -1.813  11.822  19.114  0.00  0.00    +0.000 A 
ATOM     19  C   UNL     1      -3.191  11.774  18.854  0.00  0.00    +0.000 A 
ATOM     20  C   UNL     1      -3.718  10.831  17.970  0.00  0.00    +0.000 A 
ATOM     21  C   UNL     1      -2.869   9.953  17.306  0.00  0.00    +0.000 A 
ATOM     22  C   UNL     1      -1.490  10.046  17.498  0.00  0.00    +0.000 A 
ATOM     23  C   UNL     1      -0.951  10.996  18.378  0.00  0.00    +0.000 A 
BRANCH  18  24
ATOM     24  O   UNL     1      -1.260  12.613  20.086  0.00  0.00    +0.000 OA
BRANCH  24  26
ATOM     25  C   UNL     1      -1.060  11.373  22.117  0.00  0.00    +0.000 C 
ATOM     26  C   UNL     1      -1.810  12.476  21.395  0.00  0.00    +0.000 C 
ENDBRANCH  24  26
ENDBRANCH  18  24
ENDBRANCH  17  23
ENDBRANCH   1  17
TORSDOF 8
ENDMDL
MODEL 3
REMARK VINA RESULT:      -7.4      0.421      1.038
REMARK  Name = 
REMARK  9 active torsions:
REMARK  status: ('A' for Active; 'I' for Inactive)
REMARK    1  A    between atoms: C_1  and  C_2
REMARK    2  A    between atoms: C_2  and  O_3
REMARK    3  A    between atoms: O_3  and  C_4
REMARK    4  A    between atoms: C_9  and  O_10
REMARK    5  A    between atoms: O_10  and  C_11
REMARK    6  A    between atoms: C_14  and  N_15
REMARK    7  A    between atoms: C_19  and  C_20
REMARK    8  A    between atoms: C_20  and  C_21
REMARK    9  A    between atoms: C_21  and  O_23
REMARK                            x       y       z     vdW  Elec       q    Type
REMARK                         _______ _______ _______ _____ _____    ______ ____
ROOT
ATOM      1  C   UNL     1       2.242   7.320  19.505  0.00  0.00    +0.000 A 
ATOM      2  C   UNL     1       1.630   7.913  20.611  0.00  0.00    +0.000 A 
ATOM      3  C   UNL     1       0.951   9.136  20.497  0.00  0.00    +0.000 A 
ATOM      4  C   UNL     1       0.862   9.830  19.285  0.00  0.00    +0.000 A 
ATOM      5  C   UNL     1       1.462   9.196  18.181  0.00  0.00    +0.000 A 
ATOM      6  C   UNL     1       2.167   7.976  18.285  0.00  0.00    +0.000 A 
ENDROOT
BRANCH   4   7
ATOM      7  N   UNL     1       0.197  11.047  19.166  0.00  0.00    +0.000 N 
ATOM      8  C   UNL     1       0.733  12.237  19.845  0.00  0.00    +0.000 C 
ATOM      9  C   UNL     1      -0.470  12.835  20.559  0.00  0.00    +0.000 C 
ATOM     10  C   UNL     1      -1.605  12.558  19.598  0.00  0.00    +0.000 C 
ATOM     11  C   UNL     1      -1.284  11.157  19.043  0.00  0.00    +0.000 C 
BRANCH  11  12
ATOM     12  C   UNL     1      -1.707  11.015  17.578  0.00  0.00    +0.000 C 
BRANCH  12  13
ATOM     13  C   UNL     1      -3.198  10.834  17.430  0.00  0.00    +0.000 C 
ATOM     14  O   UNL     1      -3.835   9.857  17.792  0.00  0.00    +0.000 OA
BRANCH  13  15
ATOM     15  O   UNL     1      -3.791  11.892  16.830  0.00  0.00    +0.000 OA
ATOM     16  H   UNL     1      -3.800  11.835  15.856  0.00  0.00    +0.000 HD
ENDBRANCH  13  15
ENDBRANCH  12  13
ENDBRANCH  11  12
ENDBRANCH   4   7
BRANCH   1  17
ATOM     17  O   UNL     1       2.907   6.150  19.787  0.00  0.00    +0.000 OA
BRANCH  17  23
ATOM     18  C   UNL     1       2.673   4.286  18.191  0.00  0.00    +0.000 A 
ATOM     19  C   UNL     1       2.039   3.067  17.908  0.00  0.00    +0.000 A 
ATOM     20  C   UNL     1       1.074   2.546  18.772  0.00  0.00    +0.000 A 
ATOM     21  C   UNL     1       0.761   3.219  19.948  0.00  0.00    +0.000 A 
ATOM     22  C   UNL     1       1.444   4.391  20.277  0.00  0.00    +0.000 A 
ATOM     23  C   UNL     1       2.421   4.917  19.418  0.00  0.00    +0.000 A 
BRANCH  18  24
ATOM     24  O   UNL     1       3.504   4.923  17.309  0.00  0.00    +0.000 OA
BRANCH  24  26
ATOM     25  C   UNL     1       5.247   4.194  15.849  0.00  0.00    +0.000 C 
ATOM     26  C   UNL     1       4.858   4.474  17.287  0.00  0.00    +0.000 C 
ENDBRANCH  24  26
ENDBRANCH  18  24
ENDBRANCH  17  23
ENDBRANCH   1  17
TORSDOF 8
ENDMDL
MODEL 4
REMARK VINA RESULT:      -7.4      0.963      1.432
REMARK  Name = 
REMARK  9 active torsions:
REMARK  status: ('A' for Active; 'I' for Inactive)
REMARK    1  A    between atoms: C_1  and  C_2
REMARK    2  A    between atoms: C_2  and  O_3
REMARK    3  A    between atoms: O_3  and  C_4
REMARK    4  A    between atoms: C_9  and  O_10
REMARK    5  A    between atoms: O_10  and  C_11
REMARK    6  A    between atoms: C_14  and  N_15
REMARK    7  A    between atoms: C_19  and  C_20
REMARK    8  A    between atoms: C_20  and  C_21
REMARK    9  A    between atoms: C_21  and  O_23
REMARK                            x       y       z     vdW  Elec       q    Type
REMARK                         _______ _______ _______ _____ _____    ______ ____
ROOT
ATOM      1  C   UNL     1       2.471   6.839  19.539  0.00  0.00    +0.000 A 
ATOM      2  C   UNL     1       1.757   7.546  20.509  0.00  0.00    +0.000 A 
ATOM      3  C   UNL     1       1.129   8.764  20.205  0.00  0.00    +0.000 A 
ATOM      4  C   UNL     1       1.193   9.339  18.932  0.00  0.00    +0.000 A 
ATOM      5  C   UNL     1       1.893   8.592  17.966  0.00  0.00    +0.000 A 
ATOM      6  C   UNL     1       2.549   7.377  18.262  0.00  0.00    +0.000 A 
ENDROOT
BRANCH   4   7
ATOM      7  N   UNL     1       0.580  10.551  18.625  0.00  0.00    +0.000 N 
ATOM      8  C   UNL     1       1.264  11.813  18.946  0.00  0.00    +0.000 C 
ATOM      9  C   UNL     1       0.205  12.646  19.652  0.00  0.00    +0.000 C 
ATOM     10  C   UNL     1      -1.066  12.259  18.927  0.00  0.00    +0.000 C 
ATOM     11  C   UNL     1      -0.896  10.749  18.667  0.00  0.00    +0.000 C 
BRANCH  11  12
ATOM     12  C   UNL     1      -1.527  10.328  17.337  0.00  0.00    +0.000 C 
BRANCH  12  13
ATOM     13  C   UNL     1      -2.942  10.831  17.192  0.00  0.00    +0.000 C 
ATOM     14  O   UNL     1      -3.869  10.574  17.943  0.00  0.00    +0.000 OA
BRANCH  13  15
ATOM     15  O   UNL     1      -3.101  11.623  16.105  0.00  0.00    +0.000 OA
ATOM     16  H   UNL     1      -2.396  11.518  15.439  0.00  0.00    +0.000 HD
ENDBRANCH  13  15
ENDBRANCH  12  13
ENDBRANCH  11  12
ENDBRANCH   4   7
BRANCH   1  17
ATOM     17  O   UNL     1       3.067   5.690  20.002  0.00  0.00    +0.000 OA
BRANCH  17  23
ATOM     18  C   UNL     1       3.993   3.908  18.574  0.00  0.00    +0.000 A 
ATOM     19  C   UNL     1       3.731   2.720  17.874  0.00  0.00    +0.000 A 
ATOM     20  C   UNL     1       2.441   2.188  17.830  0.00  0.00    +0.000 A 
ATOM     21  C   UNL     1       1.408   2.816  18.517  0.00  0.00    +0.000 A 
ATOM     22  C   UNL     1       1.676   3.952  19.281  0.00  0.00    +0.000 A 
ATOM     23  C   UNL     1       2.971   4.489  19.338  0.00  0.00    +0.000 A 
BRANCH  18  24
ATOM     24  O   UNL     1       5.196   4.560  18.520  0.00  0.00    +0.000 OA
BRANCH  24  26
ATOM     25  C   UNL     1       7.394   4.709  17.599  0.00  0.00    +0.000 C 
ATOM     26  C   UNL     1       5.936   4.414  17.308  0.00  0.00    +0.000 C 
ENDBRANCH  24  26
ENDBRANCH  18  24
ENDBRANCH  17  23
ENDBRANCH   1  17
TORSDOF 8
ENDMDL
MODEL 5
REMARK VINA RESULT:      -7.4      2.168      3.018
REMARK  Name = 
REMARK  9 active torsions:
REMARK  status: ('A' for Active; 'I' for Inactive)
REMARK    1  A    between atoms: C_1  and  C_2
REMARK    2  A    between atoms: C_2  and  O_3
REMARK    3  A    between atoms: O_3  and  C_4
REMARK    4  A    between atoms: C_9  and  O_10
REMARK    5  A    between atoms: O_10  and  C_11
REMARK    6  A    between atoms: C_14  and  N_15
REMARK    7  A    between atoms: C_19  and  C_20
REMARK    8  A    between atoms: C_20  and  C_21
REMARK    9  A    between atoms: C_21  and  O_23
REMARK                            x       y       z     vdW  Elec       q    Type
REMARK                         _______ _______ _______ _____ _____    ______ ____
ROOT
ATOM      1  C   UNL     1       2.256   7.295  19.598  0.00  0.00    +0.000 A 
ATOM      2  C   UNL     1       1.622   7.794  20.738  0.00  0.00    +0.000 A 
ATOM      3  C   UNL     1       0.911   9.004  20.704  0.00  0.00    +0.000 A 
ATOM      4  C   UNL     1       0.811   9.777  19.541  0.00  0.00    +0.000 A 
ATOM      5  C   UNL     1       1.434   9.236  18.401  0.00  0.00    +0.000 A 
ATOM      6  C   UNL     1       2.170   8.032  18.426  0.00  0.00    +0.000 A 
ENDROOT
BRANCH   4   7
ATOM      7  N   UNL     1       0.115  10.983  19.501  0.00  0.00    +0.000 N 
ATOM      8  C   UNL     1      -1.335  10.992  19.746  0.00  0.00    +0.000 C 
ATOM      9  C   UNL     1      -1.903  11.822  18.605  0.00  0.00    +0.000 C 
ATOM     10  C   UNL     1      -0.837  12.873  18.390  0.00  0.00    +0.000 C 
ATOM     11  C   UNL     1       0.484  12.105  18.593  0.00  0.00    +0.000 C 
BRANCH  11  12
ATOM     12  C   UNL     1       1.558  12.982  19.242  0.00  0.00    +0.000 C 
BRANCH  12  13
ATOM     13  C   UNL     1       2.746  13.193  18.337  0.00  0.00    +0.000 C 
ATOM     14  O   UNL     1       3.604  14.049  18.477  0.00  0.00    +0.000 OA
BRANCH  13  15
ATOM     15  O   UNL     1       2.775  12.313  17.307  0.00  0.00    +0.000 OA
ATOM     16  H   UNL     1       3.251  11.486  17.513  0.00  0.00    +0.000 HD
ENDBRANCH  13  15
ENDBRANCH  12  13
ENDBRANCH  11  12
ENDBRANCH   4   7
BRANCH   1  17
ATOM     17  O   UNL     1       2.949   6.126  19.805  0.00  0.00    +0.000 OA
BRANCH  17  23
ATOM     18  C   UNL     1       2.822   4.295  18.159  0.00  0.00    +0.000 A 
ATOM     19  C   UNL     1       2.202   3.088  17.804  0.00  0.00    +0.000 A 
ATOM     20  C   UNL     1       1.170   2.560  18.581  0.00  0.00    +0.000 A 
ATOM     21  C   UNL     1       0.773   3.213  19.743  0.00  0.00    +0.000 A 
ATOM     22  C   UNL     1       1.439   4.372  20.146  0.00  0.00    +0.000 A 
ATOM     23  C   UNL     1       2.483   4.904  19.375  0.00  0.00    +0.000 A 
BRANCH  18  24
ATOM     24  O   UNL     1       3.723   4.940  17.354  0.00  0.00    +0.000 OA
BRANCH  24  26
ATOM     25  C   UNL     1       5.226   4.338  15.599  0.00  0.00    +0.000 C 
ATOM     26  C   UNL     1       4.937   4.241  17.084  0.00  0.00    +0.000 C 
ENDBRANCH  24  26
ENDBRANCH  18  24
ENDBRANCH  17  23
ENDBRANCH   1  17
TORSDOF 8
ENDMDL
MODEL 6
REMARK VINA RESULT:      -7.4      2.286      7.842
REMARK  Name = 
REMARK  9 active torsions:
REMARK  status: ('A' for Active; 'I' for Inactive)
REMARK    1  A    between atoms: C_1  and  C_2
REMARK    2  A    between atoms: C_2  and  O_3
REMARK    3  A    between atoms: O_3  and  C_4
REMARK    4  A    between atoms: C_9  and  O_10
REMARK    5  A    between atoms: O_10  and  C_11
REMARK    6  A    between atoms: C_14  and  N_15
REMARK    7  A    between atoms: C_19  and  C_20
REMARK    8  A    between atoms: C_20  and  C_21
REMARK    9  A    between atoms: C_21  and  O_23
REMARK                            x       y       z     vdW  Elec       q    Type
REMARK                         _______ _______ _______ _____ _____    ______ ____
ROOT
ATOM      1  C   UNL     1       1.115   9.814  18.937  0.00  0.00    +0.000 A 
ATOM      2  C   UNL     1       1.789   9.265  17.844  0.00  0.00    +0.000 A 
ATOM      3  C   UNL     1       2.437   8.023  17.938  0.00  0.00    +0.000 A 
ATOM      4  C   UNL     1       2.457   7.281  19.124  0.00  0.00    +0.000 A 
ATOM      5  C   UNL     1       1.746   7.843  20.201  0.00  0.00    +0.000 A 
ATOM      6  C   UNL     1       1.108   9.101  20.127  0.00  0.00    +0.000 A 
ENDROOT
BRANCH   4   7
ATOM      7  N   UNL     1       3.105   6.052  19.228  0.00  0.00    +0.000 N 
ATOM      8  C   UNL     1       4.327   5.808  18.447  0.00  0.00    +0.000 C 
ATOM      9  C   UNL     1       4.092   4.454  17.795  0.00  0.00    +0.000 C 
ATOM     10  C   UNL     1       3.316   3.701  18.852  0.00  0.00    +0.000 C 
ATOM     11  C   UNL     1       2.383   4.769  19.456  0.00  0.00    +0.000 C 
BRANCH  11  12
ATOM     12  C   UNL     1       2.157   4.545  20.953  0.00  0.00    +0.000 C 
BRANCH  12  13
ATOM     13  C   UNL     1       1.376   3.285  21.230  0.00  0.00    +0.000 C 
ATOM     14  O   UNL     1       1.597   2.495  22.135  0.00  0.00    +0.000 OA
BRANCH  13  15
ATOM     15  O   UNL     1       0.368   3.095  20.346  0.00  0.00    +0.000 OA
ATOM     16  H   UNL     1       0.463   3.618  19.527  0.00  0.00    +0.000 HD
ENDBRANCH  13  15
ENDBRANCH  12  13
ENDBRANCH  11  12
ENDBRANCH   4   7
BRANCH   1  17
ATOM     17  O   UNL     1       0.573  11.055  18.700  0.00  0.00    +0.000 OA
BRANCH  17  23
ATOM     18  C   UNL     1      -1.845  11.109  18.225  0.00  0.00    +0.000 A 
ATOM     19  C   UNL     1      -3.104  11.564  18.641  0.00  0.00    +0.000 A 
ATOM     20  C   UNL     1      -3.233  12.374  19.771  0.00  0.00    +0.000 A 
ATOM     21  C   UNL     1      -2.108  12.704  20.519  0.00  0.00    +0.000 A 
ATOM     22  C   UNL     1      -0.862  12.190  20.158  0.00  0.00    +0.000 A 
ATOM     23  C   UNL     1      -0.726  11.368  19.029  0.00  0.00    +0.000 A 
BRANCH  18  24
ATOM     24  O   UNL     1      -1.639  10.450  17.042  0.00  0.00    +0.000 OA
BRANCH  24  26
ATOM     25  C   UNL     1      -2.964  10.440  15.056  0.00  0.00    +0.000 C 
ATOM     26  C   UNL     1      -2.790   9.857  16.444  0.00  0.00    +0.000 C 
ENDBRANCH  24  26
ENDBRANCH  18  24
ENDBRANCH  17  23
ENDBRANCH   1  17
TORSDOF 8
ENDMDL
MODEL 7
REMARK VINA RESULT:      -7.3      0.938      2.271
REMARK  Name = 
REMARK  9 active torsions:
REMARK  status: ('A' for Active; 'I' for Inactive)
REMARK    1  A    between atoms: C_1  and  C_2
REMARK    2  A    between atoms: C_2  and  O_3
REMARK    3  A    between atoms: O_3  and  C_4
REMARK    4  A    between atoms: C_9  and  O_10
REMARK    5  A    between atoms: O_10  and  C_11
REMARK    6  A    between atoms: C_14  and  N_15
REMARK    7  A    between atoms: C_19  and  C_20
REMARK    8  A    between atoms: C_20  and  C_21
REMARK    9  A    between atoms: C_21  and  O_23
REMARK                            x       y       z     vdW  Elec       q    Type
REMARK                         _______ _______ _______ _____ _____    ______ ____
ROOT
ATOM      1  C   UNL     1       2.275   7.431  19.656  0.00  0.00    +0.000 A 
ATOM      2  C   UNL     1       2.271   8.039  18.399  0.00  0.00    +0.000 A 
ATOM      3  C   UNL     1       1.523   9.203  18.157  0.00  0.00    +0.000 A 
ATOM      4  C   UNL     1       0.738   9.803  19.147  0.00  0.00    +0.000 A 
ATOM      5  C   UNL     1       0.783   9.187  20.411  0.00  0.00    +0.000 A 
ATOM      6  C   UNL     1       1.513   8.004  20.663  0.00  0.00    +0.000 A 
ENDROOT
BRANCH   4   7
ATOM      7  N   UNL     1      -0.013  10.953  18.913  0.00  0.00    +0.000 N 
ATOM      8  C   UNL     1       0.455  12.245  19.437  0.00  0.00    +0.000 C 
ATOM      9  C   UNL     1      -0.769  12.839  20.117  0.00  0.00    +0.000 C 
ATOM     10  C   UNL     1      -1.904  12.380  19.229  0.00  0.00    +0.000 C 
ATOM     11  C   UNL     1      -1.500  10.949  18.825  0.00  0.00    +0.000 C 
BRANCH  11  12
ATOM     12  C   UNL     1      -1.947  10.614  17.399  0.00  0.00    +0.000 C 
BRANCH  12  13
ATOM     13  C   UNL     1      -3.425  10.837  17.198  0.00  0.00    +0.000 C 
ATOM     14  O   UNL     1      -4.317  10.356  17.878  0.00  0.00    +0.000 OA
BRANCH  13  15
ATOM     15  O   UNL     1      -3.688  11.649  16.146  0.00  0.00    +0.000 OA
ATOM     16  H   UNL     1      -3.372  12.564  16.271  0.00  0.00    +0.000 HD
ENDBRANCH  13  15
ENDBRANCH  12  13
ENDBRANCH  11  12
ENDBRANCH   4   7
BRANCH   1  17
ATOM     17  O   UNL     1       3.016   6.275  19.721  0.00  0.00    +0.000 OA
BRANCH  17  23
ATOM     18  C   UNL     1       1.902   4.199  18.997  0.00  0.00    +0.000 A 
ATOM     19  C   UNL     1       1.887   3.147  18.069  0.00  0.00    +0.000 A 
ATOM     20  C   UNL     1       2.867   3.054  17.079  0.00  0.00    +0.000 A 
ATOM     21  C   UNL     1       3.849   4.034  16.982  0.00  0.00    +0.000 A 
ATOM     22  C   UNL     1       3.824   5.127  17.849  0.00  0.00    +0.000 A 
ATOM     23  C   UNL     1       2.838   5.232  18.841  0.00  0.00    +0.000 A 
BRANCH  18  24
ATOM     24  O   UNL     1       1.068   4.255  20.081  0.00  0.00    +0.000 OA
BRANCH  24  26
ATOM     25  C   UNL     1       2.273   2.965  21.688  0.00  0.00    +0.000 C 
ATOM     26  C   UNL     1       0.996   3.075  20.880  0.00  0.00    +0.000 C 
ENDBRANCH  24  26
ENDBRANCH  18  24
ENDBRANCH  17  23
ENDBRANCH   1  17
TORSDOF 8
ENDMDL
MODEL 8
REMARK VINA RESULT:      -7.3      1.214      2.673
REMARK  Name = 
REMARK  9 active torsions:
REMARK  status: ('A' for Active; 'I' for Inactive)
REMARK    1  A    between atoms: C_1  and  C_2
REMARK    2  A    between atoms: C_2  and  O_3
REMARK    3  A    between atoms: O_3  and  C_4
REMARK    4  A    between atoms: C_9  and  O_10
REMARK    5  A    between atoms: O_10  and  C_11
REMARK    6  A    between atoms: C_14  and  N_15
REMARK    7  A    between atoms: C_19  and  C_20
REMARK    8  A    between atoms: C_20  and  C_21
REMARK    9  A    between atoms: C_21  and  O_23
REMARK                            x       y       z     vdW  Elec       q    Type
REMARK                         _______ _______ _______ _____ _____    ______ ____
ROOT
ATOM      1  C   UNL     1       2.150   7.667  19.370  0.00  0.00    +0.000 A 
ATOM      2  C   UNL     1       1.486   8.101  20.519  0.00  0.00    +0.000 A 
ATOM      3  C   UNL     1       0.683   9.253  20.504  0.00  0.00    +0.000 A 
ATOM      4  C   UNL     1       0.516  10.030  19.352  0.00  0.00    +0.000 A 
ATOM      5  C   UNL     1       1.172   9.554  18.202  0.00  0.00    +0.000 A 
ATOM      6  C   UNL     1       2.001   8.410  18.208  0.00  0.00    +0.000 A 
ENDROOT
BRANCH   4   7
ATOM      7  N   UNL     1      -0.272  11.178  19.331  0.00  0.00    +0.000 N 
ATOM      8  C   UNL     1      -0.000  12.263  20.285  0.00  0.00    +0.000 C 
ATOM      9  C   UNL     1      -1.363  12.595  20.874  0.00  0.00    +0.000 C 
ATOM     10  C   UNL     1      -2.295  12.397  19.699  0.00  0.00    +0.000 C 
ATOM     11  C   UNL     1      -1.719  11.164  18.976  0.00  0.00    +0.000 C 
BRANCH  11  12
ATOM     12  C   UNL     1      -1.895  11.262  17.458  0.00  0.00    +0.000 C 
BRANCH  12  13
ATOM     13  C   UNL     1      -2.593  10.054  16.886  0.00  0.00    +0.000 C 
ATOM     14  O   UNL     1      -2.577   9.712  15.714  0.00  0.00    +0.000 OA
BRANCH  13  15
ATOM     15  O   UNL     1      -3.274   9.355  17.825  0.00  0.00    +0.000 OA
ATOM     16  H   UNL     1      -3.449   9.863  18.640  0.00  0.00    +0.000 HD
ENDBRANCH  13  15
ENDBRANCH  12  13
ENDBRANCH  11  12
ENDBRANCH   4   7
BRANCH   1  17
ATOM     17  O   UNL     1       2.933   6.553  19.558  0.00  0.00    +0.000 OA
BRANCH  17  23
ATOM     18  C   UNL     1       2.035   4.377  18.829  0.00  0.00    +0.000 A 
ATOM     19  C   UNL     1       2.168   3.299  17.941  0.00  0.00    +0.000 A 
ATOM     20  C   UNL     1       3.224   3.252  17.029  0.00  0.00    +0.000 A 
ATOM     21  C   UNL     1       4.134   4.302  16.968  0.00  0.00    +0.000 A 
ATOM     22  C   UNL     1       3.962   5.415  17.792  0.00  0.00    +0.000 A 
ATOM     23  C   UNL     1       2.899   5.474  18.706  0.00  0.00    +0.000 A 
BRANCH  18  24
ATOM     24  O   UNL     1       1.119   4.401  19.848  0.00  0.00    +0.000 OA
BRANCH  24  26
ATOM     25  C   UNL     1       2.166   3.286  21.682  0.00  0.00    +0.000 C 
ATOM     26  C   UNL     1       1.050   3.228  20.658  0.00  0.00    +0.000 C 
ENDBRANCH  24  26
ENDBRANCH  18  24
ENDBRANCH  17  23
ENDBRANCH   1  17
TORSDOF 8
ENDMDL
MODEL 9
REMARK VINA RESULT:      -7.3      1.197      1.816
REMARK  Name = 
REMARK  9 active torsions:
REMARK  status: ('A' for Active; 'I' for Inactive)
REMARK    1  A    between atoms: C_1  and  C_2
REMARK    2  A    between atoms: C_2  and  O_3
REMARK    3  A    between atoms: O_3  and  C_4
REMARK    4  A    between atoms: C_9  and  O_10
REMARK    5  A    between atoms: O_10  and  C_11
REMARK    6  A    between atoms: C_14  and  N_15
REMARK    7  A    between atoms: C_19  and  C_20
REMARK    8  A    between atoms: C_20  and  C_21
REMARK    9  A    between atoms: C_21  and  O_23
REMARK                            x       y       z     vdW  Elec       q    Type
REMARK                         _______ _______ _______ _____ _____    ______ ____
ROOT
ATOM      1  C   UNL     1       2.259   7.574  19.448  0.00  0.00    +0.000 A 
ATOM      2  C   UNL     1       1.548   8.037  20.557  0.00  0.00    +0.000 A 
ATOM      3  C   UNL     1       0.730   9.174  20.472  0.00  0.00    +0.000 A 
ATOM      4  C   UNL     1       0.593   9.908  19.288  0.00  0.00    +0.000 A 
ATOM      5  C   UNL     1       1.297   9.403  18.180  0.00  0.00    +0.000 A 
ATOM      6  C   UNL     1       2.141   8.273  18.256  0.00  0.00    +0.000 A 
ENDROOT
BRANCH   4   7
ATOM      7  N   UNL     1      -0.210  11.042  19.199  0.00  0.00    +0.000 N 
ATOM      8  C   UNL     1       0.030  12.176  20.105  0.00  0.00    +0.000 C 
ATOM      9  C   UNL     1      -1.348  12.515  20.654  0.00  0.00    +0.000 C 
ATOM     10  C   UNL     1      -2.256  12.248  19.474  0.00  0.00    +0.000 C 
ATOM     11  C   UNL     1      -1.650  10.991  18.820  0.00  0.00    +0.000 C 
BRANCH  11  12
ATOM     12  C   UNL     1      -1.801  11.014  17.297  0.00  0.00    +0.000 C 
BRANCH  12  13
ATOM     13  C   UNL     1      -2.722   9.929  16.798  0.00  0.00    +0.000 C 
ATOM     14  O   UNL     1      -2.897   9.627  15.628  0.00  0.00    +0.000 OA
BRANCH  13  15
ATOM     15  O   UNL     1      -3.371   9.297  17.805  0.00  0.00    +0.000 OA
ATOM     16  H   UNL     1      -3.137   9.631  18.691  0.00  0.00    +0.000 HD
ENDBRANCH  13  15
ENDBRANCH  12  13
ENDBRANCH  11  12
ENDBRANCH   4   7
BRANCH   1  17
ATOM     17  O   UNL     1       3.052   6.480  19.702  0.00  0.00    +0.000 OA
BRANCH  17  23
ATOM     18  C   UNL     1       4.070   4.980  18.032  0.00  0.00    +0.000 A 
ATOM     19  C   UNL     1       3.889   3.858  17.210  0.00  0.00    +0.000 A 
ATOM     20  C   UNL     1       2.659   3.199  17.161  0.00  0.00    +0.000 A 
ATOM     21  C   UNL     1       1.610   3.630  17.964  0.00  0.00    +0.000 A 
ATOM     22  C   UNL     1       1.805   4.695  18.845  0.00  0.00    +0.000 A 
ATOM     23  C   UNL     1       3.040   5.358  18.906  0.00  0.00    +0.000 A 
BRANCH  18  24
ATOM     24  O   UNL     1       5.195   5.759  18.002  0.00  0.00    +0.000 OA
BRANCH  24  26
ATOM     25  C   UNL     1       7.434   4.929  17.945  0.00  0.00    +0.000 C 
ATOM     26  C   UNL     1       6.275   5.336  18.833  0.00  0.00    +0.000 C 
ENDBRANCH  24  26
ENDBRANCH  18  24
ENDBRANCH  17  23
ENDBRANCH   1  17
TORSDOF 8
ENDMDL
