MODEL 1
REMARK VINA RESULT:      -9.0      0.000      0.000
REMARK  Name = 
REMARK  7 active torsions:
REMARK  status: ('A' for Active; 'I' for Inactive)
REMARK    1  A    between atoms: C_1  and  O_2
REMARK    2  A    between atoms: O_2  and  C_3
REMARK    3  A    between atoms: C_8  and  C_9
REMARK    4  A    between atoms: C_9  and  N_10
REMARK    5  A    between atoms: C_11  and  C_13
REMARK    6  A    between atoms: C_13  and  N_14
REMARK    7  A    between atoms: C_18  and  C_19
REMARK                            x       y       z     vdW  Elec       q    Type
REMARK                         _______ _______ _______ _____ _____    ______ ____
ROOT
ATOM      1  N   UNL     1       7.241   5.856  18.065  0.00  0.00    +0.000 N 
ATOM      2  C   UNL     1       6.624   5.190  19.078  0.00  0.00    +0.000 A 
ATOM      3  O   UNL     1       7.215   4.612  19.979  0.00  0.00    +0.000 OA
ATOM      4  N   UNL     1       5.279   5.253  19.003  0.00  0.00    +0.000 NA
ATOM      5  C   UNL     1       4.752   4.991  17.846  0.00  0.00    +0.000 A 
ATOM      6  C   UNL     1       5.501   5.058  16.571  0.00  0.00    +0.000 A 
ATOM      7  C   UNL     1       4.990   4.587  15.348  0.00  0.00    +0.000 A 
ATOM      8  C   UNL     1       5.860   4.349  14.290  0.00  0.00    +0.000 A 
ATOM      9 CL   UNL     1       5.257   3.653  12.834  0.00  0.00    +0.000 Cl
ATOM     10  C   UNL     1       7.228   4.587  14.464  0.00  0.00    +0.000 A 
ATOM     11  C   UNL     1       7.717   5.183  15.664  0.00  0.00    +0.000 A 
ATOM     12  C   UNL     1       6.841   5.486  16.727  0.00  0.00    +0.000 A 
ENDROOT
BRANCH   5  13
ATOM     13  C   UNL     1       3.467   4.304  17.995  0.00  0.00    +0.000 A 
ATOM     14  C   UNL     1       3.631   2.925  18.245  0.00  0.00    +0.000 A 
ATOM     15  C   UNL     1       2.547   2.153  18.600  0.00  0.00    +0.000 A 
ATOM     16  C   UNL     1       1.289   2.752  18.657  0.00  0.00    +0.000 A 
ATOM     17  C   UNL     1       1.132   4.112  18.383  0.00  0.00    +0.000 A 
ATOM     18  C   UNL     1       2.231   4.896  18.070  0.00  0.00    +0.000 A 
ATOM     19  F   UNL     1       2.050   6.207  17.867  0.00  0.00    +0.000 F 
ENDBRANCH   5  13
BRANCH   1  20
ATOM     20  C   UNL     1       7.955   7.013  18.560  0.00  0.00    +0.000 C 
BRANCH  20  22
ATOM     21  N   UNL     1       8.732   9.645  18.327  0.00  0.00    +0.000 N 
ATOM     22  C   UNL     1       7.933   8.556  17.942  0.00  0.00    +0.000 C 
ATOM     23  O   UNL     1       7.084   8.753  17.057  0.00  0.00    +0.000 OA
ATOM     24  H   UNL     1       9.333   9.569  19.141  0.00  0.00    +0.000 HD
BRANCH  21  25
ATOM     25  C   UNL     1       8.422  11.059  17.803  0.00  0.00    +0.000 C 
BRANCH  25  31
ATOM     26  C   UNL     1       9.170  13.585  17.923  0.00  0.00    +0.000 A 
ATOM     27  C   UNL     1      10.181  14.560  18.048  0.00  0.00    +0.000 A 
ATOM     28  C   UNL     1      11.516  14.221  17.881  0.00  0.00    +0.000 A 
ATOM     29  C   UNL     1      11.831  12.893  17.618  0.00  0.00    +0.000 A 
ATOM     30  C   UNL     1      10.840  11.891  17.630  0.00  0.00    +0.000 A 
ATOM     31  C   UNL     1       9.483  12.184  17.848  0.00  0.00    +0.000 A 
BRANCH  26  33
ATOM     32  C   UNL     1       7.643  15.427  17.901  0.00  0.00    +0.000 C 
ATOM     33  O   UNL     1       7.851  13.996  17.807  0.00  0.00    +0.000 OA
ENDBRANCH  26  33
ENDBRANCH  25  31
ENDBRANCH  21  25
ENDBRANCH  20  22
ENDBRANCH   1  20
TORSDOF 6
ENDMDL
MODEL 2
REMARK VINA RESULT:      -8.9      0.935      1.245
REMARK  Name = 
REMARK  7 active torsions:
REMARK  status: ('A' for Active; 'I' for Inactive)
REMARK    1  A    between atoms: C_1  and  O_2
REMARK    2  A    between atoms: O_2  and  C_3
REMARK    3  A    between atoms: C_8  and  C_9
REMARK    4  A    between atoms: C_9  and  N_10
REMARK    5  A    between atoms: C_11  and  C_13
REMARK    6  A    between atoms: C_13  and  N_14
REMARK    7  A    between atoms: C_18  and  C_19
REMARK                            x       y       z     vdW  Elec       q    Type
REMARK                         _______ _______ _______ _____ _____    ______ ____
ROOT
ATOM      1  N   UNL     1       7.432   6.062  18.212  0.00  0.00    +0.000 N 
ATOM      2  C   UNL     1       6.898   5.408  19.278  0.00  0.00    +0.000 A 
ATOM      3  O   UNL     1       7.559   4.854  20.144  0.00  0.00    +0.000 OA
ATOM      4  N   UNL     1       5.550   5.452  19.298  0.00  0.00    +0.000 NA
ATOM      5  C   UNL     1       4.946   5.162  18.186  0.00  0.00    +0.000 A 
ATOM      6  C   UNL     1       5.602   5.214  16.860  0.00  0.00    +0.000 A 
ATOM      7  C   UNL     1       5.013   4.713  15.685  0.00  0.00    +0.000 A 
ATOM      8  C   UNL     1       5.808   4.466  14.572  0.00  0.00    +0.000 A 
ATOM      9 CL   UNL     1       5.114   3.735  13.176  0.00  0.00    +0.000 Cl
ATOM     10  C   UNL     1       7.182   4.725  14.644  0.00  0.00    +0.000 A 
ATOM     11  C   UNL     1       7.746   5.349  15.796  0.00  0.00    +0.000 A 
ATOM     12  C   UNL     1       6.944   5.661  16.913  0.00  0.00    +0.000 A 
ENDROOT
BRANCH   5  13
ATOM     13  C   UNL     1       3.685   4.462  18.439  0.00  0.00    +0.000 A 
ATOM     14  C   UNL     1       2.579   5.158  17.908  0.00  0.00    +0.000 A 
ATOM     15  C   UNL     1       1.336   4.565  17.881  0.00  0.00    +0.000 A 
ATOM     16  C   UNL     1       1.190   3.292  18.431  0.00  0.00    +0.000 A 
ATOM     17  C   UNL     1       2.286   2.620  18.978  0.00  0.00    +0.000 A 
ATOM     18  C   UNL     1       3.544   3.201  18.963  0.00  0.00    +0.000 A 
ATOM     19  F   UNL     1       4.580   2.504  19.445  0.00  0.00    +0.000 F 
ENDBRANCH   5  13
BRANCH   1  20
ATOM     20  C   UNL     1       8.164   7.237  18.634  0.00  0.00    +0.000 C 
BRANCH  20  22
ATOM     21  N   UNL     1       8.831   9.894  18.355  0.00  0.00    +0.000 N 
ATOM     22  C   UNL     1       8.070   8.770  17.997  0.00  0.00    +0.000 C 
ATOM     23  O   UNL     1       7.199   8.922  17.124  0.00  0.00    +0.000 OA
ATOM     24  H   UNL     1       9.448   9.853  19.159  0.00  0.00    +0.000 HD
BRANCH  21  25
ATOM     25  C   UNL     1       8.456  11.288  17.818  0.00  0.00    +0.000 C 
BRANCH  25  31
ATOM     26  C   UNL     1       9.148  13.817  18.100  0.00  0.00    +0.000 A 
ATOM     27  C   UNL     1      10.139  14.818  18.161  0.00  0.00    +0.000 A 
ATOM     28  C   UNL     1      11.432  14.561  17.728  0.00  0.00    +0.000 A 
ATOM     29  C   UNL     1      11.730  13.285  17.262  0.00  0.00    +0.000 A 
ATOM     30  C   UNL     1      10.783  12.244  17.328  0.00  0.00    +0.000 A 
ATOM     31  C   UNL     1       9.479  12.449  17.810  0.00  0.00    +0.000 A 
BRANCH  26  33
ATOM     32  C   UNL     1       7.498  15.535  17.866  0.00  0.00    +0.000 C 
ATOM     33  O   UNL     1       7.818  14.178  18.262  0.00  0.00    +0.000 OA
ENDBRANCH  26  33
ENDBRANCH  25  31
ENDBRANCH  21  25
ENDBRANCH  20  22
ENDBRANCH   1  20
TORSDOF 6
ENDMDL
MODEL 3
REMARK VINA RESULT:      -8.8      1.233      1.531
REMARK  Name = 
REMARK  7 active torsions:
REMARK  status: ('A' for Active; 'I' for Inactive)
REMARK    1  A    between atoms: C_1  and  O_2
REMARK    2  A    between atoms: O_2  and  C_3
REMARK    3  A    between atoms: C_8  and  C_9
REMARK    4  A    between atoms: C_9  and  N_10
REMARK    5  A    between atoms: C_11  and  C_13
REMARK    6  A    between atoms: C_13  and  N_14
REMARK    7  A    between atoms: C_18  and  C_19
REMARK                            x       y       z     vdW  Elec       q    Type
REMARK                         _______ _______ _______ _____ _____    ______ ____
ROOT
ATOM      1  N   UNL     1       7.330   5.913  18.220  0.00  0.00    +0.000 N 
ATOM      2  C   UNL     1       6.729   5.265  19.253  0.00  0.00    +0.000 A 
ATOM      3  O   UNL     1       7.332   4.662  20.129  0.00  0.00    +0.000 OA
ATOM      4  N   UNL     1       5.384   5.374  19.229  0.00  0.00    +0.000 NA
ATOM      5  C   UNL     1       4.806   5.136  18.092  0.00  0.00    +0.000 A 
ATOM      6  C   UNL     1       5.508   5.183  16.790  0.00  0.00    +0.000 A 
ATOM      7  C   UNL     1       4.937   4.735  15.585  0.00  0.00    +0.000 A 
ATOM      8  C   UNL     1       5.757   4.473  14.495  0.00  0.00    +0.000 A 
ATOM      9 CL   UNL     1       5.076   3.804  13.060  0.00  0.00    +0.000 Cl
ATOM     10  C   UNL     1       7.138   4.662  14.617  0.00  0.00    +0.000 A 
ATOM     11  C   UNL     1       7.692   5.235  15.801  0.00  0.00    +0.000 A 
ATOM     12  C   UNL     1       6.868   5.563  16.897  0.00  0.00    +0.000 A 
ENDROOT
BRANCH   5  13
ATOM     13  C   UNL     1       3.505   4.494  18.287  0.00  0.00    +0.000 A 
ATOM     14  C   UNL     1       3.635   3.159  18.728  0.00  0.00    +0.000 A 
ATOM     15  C   UNL     1       2.526   2.457  19.145  0.00  0.00    +0.000 A 
ATOM     16  C   UNL     1       1.277   3.075  19.075  0.00  0.00    +0.000 A 
ATOM     17  C   UNL     1       1.155   4.387  18.613  0.00  0.00    +0.000 A 
ATOM     18  C   UNL     1       2.277   5.107  18.236  0.00  0.00    +0.000 A 
ATOM     19  F   UNL     1       2.127   6.380  17.851  0.00  0.00    +0.000 F 
ENDBRANCH   5  13
BRANCH   1  20
ATOM     20  C   UNL     1       8.102   7.042  18.691  0.00  0.00    +0.000 C 
BRANCH  20  22
ATOM     21  N   UNL     1       8.915   9.666  18.487  0.00  0.00    +0.000 N 
ATOM     22  C   UNL     1       8.121   8.585  18.071  0.00  0.00    +0.000 C 
ATOM     23  O   UNL     1       7.310   8.789  17.152  0.00  0.00    +0.000 OA
ATOM     24  H   UNL     1       9.481   9.585  19.325  0.00  0.00    +0.000 HD
BRANCH  21  25
ATOM     25  C   UNL     1       8.641  11.082  17.949  0.00  0.00    +0.000 C 
BRANCH  25  31
ATOM     26  C   UNL     1      10.091  12.387  19.724  0.00  0.00    +0.000 A 
ATOM     27  C   UNL     1      10.898  13.486  20.078  0.00  0.00    +0.000 A 
ATOM     28  C   UNL     1      10.936  14.622  19.282  0.00  0.00    +0.000 A 
ATOM     29  C   UNL     1      10.182  14.634  18.114  0.00  0.00    +0.000 A 
ATOM     30  C   UNL     1       9.483  13.488  17.685  0.00  0.00    +0.000 A 
ATOM     31  C   UNL     1       9.462  12.300  18.434  0.00  0.00    +0.000 A 
BRANCH  26  33
ATOM     32  C   UNL     1       8.844  11.731  21.659  0.00  0.00    +0.000 C 
ATOM     33  O   UNL     1       9.848  11.400  20.668  0.00  0.00    +0.000 OA
ENDBRANCH  26  33
ENDBRANCH  25  31
ENDBRANCH  21  25
ENDBRANCH  20  22
ENDBRANCH   1  20
TORSDOF 6
ENDMDL
MODEL 4
REMARK VINA RESULT:      -8.8      3.049      3.898
REMARK  Name = 
REMARK  7 active torsions:
REMARK  status: ('A' for Active; 'I' for Inactive)
REMARK    1  A    between atoms: C_1  and  O_2
REMARK    2  A    between atoms: O_2  and  C_3
REMARK    3  A    between atoms: C_8  and  C_9
REMARK    4  A    between atoms: C_9  and  N_10
REMARK    5  A    between atoms: C_11  and  C_13
REMARK    6  A    between atoms: C_13  and  N_14
REMARK    7  A    between atoms: C_18  and  C_19
REMARK                            x       y       z     vdW  Elec       q    Type
REMARK                         _______ _______ _______ _____ _____    ______ ____
ROOT
ATOM      1  N   UNL     1       5.104   6.441  17.138  0.00  0.00    +0.000 N 
ATOM      2  C   UNL     1       4.799   5.128  16.952  0.00  0.00    +0.000 A 
ATOM      3  O   UNL     1       4.866   4.555  15.875  0.00  0.00    +0.000 OA
ATOM      4  N   UNL     1       4.436   4.509  18.094  0.00  0.00    +0.000 NA
ATOM      5  C   UNL     1       3.558   5.122  18.829  0.00  0.00    +0.000 A 
ATOM      6  C   UNL     1       3.276   6.571  18.730  0.00  0.00    +0.000 A 
ATOM      7  C   UNL     1       2.196   7.195  19.380  0.00  0.00    +0.000 A 
ATOM      8  C   UNL     1       1.782   8.455  18.964  0.00  0.00    +0.000 A 
ATOM      9 CL   UNL     1       0.383   9.168  19.672  0.00  0.00    +0.000 Cl
ATOM     10  C   UNL     1       2.453   9.079  17.905  0.00  0.00    +0.000 A 
ATOM     11  C   UNL     1       3.623   8.492  17.338  0.00  0.00    +0.000 A 
ATOM     12  C   UNL     1       4.093   7.241  17.788  0.00  0.00    +0.000 A 
ENDROOT
BRANCH   5  13
ATOM     13  C   UNL     1       2.669   4.167  19.494  0.00  0.00    +0.000 A 
ATOM     14  C   UNL     1       3.054   3.929  20.830  0.00  0.00    +0.000 A 
ATOM     15  C   UNL     1       2.232   3.208  21.669  0.00  0.00    +0.000 A 
ATOM     16  C   UNL     1       1.046   2.684  21.156  0.00  0.00    +0.000 A 
ATOM     17  C   UNL     1       0.685   2.903  19.824  0.00  0.00    +0.000 A 
ATOM     18  C   UNL     1       1.492   3.666  18.995  0.00  0.00    +0.000 A 
ATOM     19  F   UNL     1       1.087   3.901  17.741  0.00  0.00    +0.000 F 
ENDBRANCH   5  13
BRANCH   1  20
ATOM     20  C   UNL     1       6.512   6.687  16.909  0.00  0.00    +0.000 C 
BRANCH  20  22
ATOM     21  N   UNL     1       7.772   8.962  17.815  0.00  0.00    +0.000 N 
ATOM     22  C   UNL     1       7.550   7.576  17.855  0.00  0.00    +0.000 C 
ATOM     23  O   UNL     1       8.218   6.912  18.666  0.00  0.00    +0.000 OA
ATOM     24  H   UNL     1       7.359   9.519  17.074  0.00  0.00    +0.000 HD
BRANCH  21  25
ATOM     25  C   UNL     1       8.933   9.586  18.610  0.00  0.00    +0.000 C 
BRANCH  25  31
ATOM     26  C   UNL     1       9.427  11.806  19.946  0.00  0.00    +0.000 A 
ATOM     27  C   UNL     1       9.647  13.198  19.973  0.00  0.00    +0.000 A 
ATOM     28  C   UNL     1       9.337  13.984  18.872  0.00  0.00    +0.000 A 
ATOM     29  C   UNL     1       8.835  13.360  17.736  0.00  0.00    +0.000 A 
ATOM     30  C   UNL     1       8.743  11.956  17.654  0.00  0.00    +0.000 A 
ATOM     31  C   UNL     1       9.096  11.120  18.726  0.00  0.00    +0.000 A 
BRANCH  26  33
ATOM     32  C   UNL     1       8.490  11.500  22.127  0.00  0.00    +0.000 C 
ATOM     33  O   UNL     1       9.469  11.096  21.137  0.00  0.00    +0.000 OA
ENDBRANCH  26  33
ENDBRANCH  25  31
ENDBRANCH  21  25
ENDBRANCH  20  22
ENDBRANCH   1  20
TORSDOF 6
ENDMDL
MODEL 5
REMARK VINA RESULT:      -8.7      5.588      8.693
REMARK  Name = 
REMARK  7 active torsions:
REMARK  status: ('A' for Active; 'I' for Inactive)
REMARK    1  A    between atoms: C_1  and  O_2
REMARK    2  A    between atoms: O_2  and  C_3
REMARK    3  A    between atoms: C_8  and  C_9
REMARK    4  A    between atoms: C_9  and  N_10
REMARK    5  A    between atoms: C_11  and  C_13
REMARK    6  A    between atoms: C_13  and  N_14
REMARK    7  A    between atoms: C_18  and  C_19
REMARK                            x       y       z     vdW  Elec       q    Type
REMARK                         _______ _______ _______ _____ _____    ______ ____
ROOT
ATOM      1  N   UNL     1       2.076   7.384  19.351  0.00  0.00    +0.000 N 
ATOM      2  C   UNL     1       2.678   7.735  18.183  0.00  0.00    +0.000 A 
ATOM      3  O   UNL     1       2.148   8.413  17.315  0.00  0.00    +0.000 OA
ATOM      4  N   UNL     1       3.943   7.276  18.088  0.00  0.00    +0.000 NA
ATOM      5  C   UNL     1       4.127   6.025  18.382  0.00  0.00    +0.000 A 
ATOM      6  C   UNL     1       3.181   5.228  19.194  0.00  0.00    +0.000 A 
ATOM      7  C   UNL     1       3.278   3.833  19.348  0.00  0.00    +0.000 A 
ATOM      8  C   UNL     1       2.179   3.117  19.807  0.00  0.00    +0.000 A 
ATOM      9 CL   UNL     1       2.253   1.397  19.876  0.00  0.00    +0.000 Cl
ATOM     10  C   UNL     1       0.997   3.801  20.111  0.00  0.00    +0.000 A 
ATOM     11  C   UNL     1       0.949   5.226  20.072  0.00  0.00    +0.000 A 
ATOM     12  C   UNL     1       2.073   5.974  19.664  0.00  0.00    +0.000 A 
ENDROOT
BRANCH   5  13
ATOM     13  C   UNL     1       5.173   5.435  17.545  0.00  0.00    +0.000 A 
ATOM     14  C   UNL     1       4.820   5.438  16.179  0.00  0.00    +0.000 A 
ATOM     15  C   UNL     1       5.752   5.098  15.223  0.00  0.00    +0.000 A 
ATOM     16  C   UNL     1       7.025   4.708  15.638  0.00  0.00    +0.000 A 
ATOM     17  C   UNL     1       7.358   4.683  16.994  0.00  0.00    +0.000 A 
ATOM     18  C   UNL     1       6.432   5.068  17.951  0.00  0.00    +0.000 A 
ATOM     19  F   UNL     1       6.804   5.085  19.237  0.00  0.00    +0.000 F 
ENDBRANCH   5  13
BRANCH   1  20
ATOM     20  C   UNL     1       1.828   8.544  20.179  0.00  0.00    +0.000 C 
BRANCH  20  22
ATOM     21  N   UNL     1      -0.574   9.882  20.023  0.00  0.00    +0.000 N 
ATOM     22  C   UNL     1       0.818   9.824  19.852  0.00  0.00    +0.000 C 
ATOM     23  O   UNL     1       1.379  10.824  19.374  0.00  0.00    +0.000 OA
ATOM     24  H   UNL     1      -1.090   9.044  20.270  0.00  0.00    +0.000 HD
BRANCH  21  25
ATOM     25  C   UNL     1      -1.377  11.068  19.458  0.00  0.00    +0.000 C 
BRANCH  25  31
ATOM     26  C   UNL     1      -3.522  11.499  17.986  0.00  0.00    +0.000 A 
ATOM     27  C   UNL     1      -4.202  11.412  16.754  0.00  0.00    +0.000 A 
ATOM     28  C   UNL     1      -3.731  10.587  15.743  0.00  0.00    +0.000 A 
ATOM     29  C   UNL     1      -2.559   9.874  15.966  0.00  0.00    +0.000 A 
ATOM     30  C   UNL     1      -1.802  10.062  17.139  0.00  0.00    +0.000 A 
ATOM     31  C   UNL     1      -2.215  10.929  18.165  0.00  0.00    +0.000 A 
BRANCH  26  33
ATOM     32  C   UNL     1      -5.571  11.788  19.189  0.00  0.00    +0.000 C 
ATOM     33  O   UNL     1      -4.160  12.095  19.065  0.00  0.00    +0.000 OA
ENDBRANCH  26  33
ENDBRANCH  25  31
ENDBRANCH  21  25
ENDBRANCH  20  22
ENDBRANCH   1  20
TORSDOF 6
ENDMDL
MODEL 6
REMARK VINA RESULT:      -8.6      7.426     10.897
REMARK  Name = 
REMARK  7 active torsions:
REMARK  status: ('A' for Active; 'I' for Inactive)
REMARK    1  A    between atoms: C_1  and  O_2
REMARK    2  A    between atoms: O_2  and  C_3
REMARK    3  A    between atoms: C_8  and  C_9
REMARK    4  A    between atoms: C_9  and  N_10
REMARK    5  A    between atoms: C_11  and  C_13
REMARK    6  A    between atoms: C_13  and  N_14
REMARK    7  A    between atoms: C_18  and  C_19
REMARK                            x       y       z     vdW  Elec       q    Type
REMARK                         _______ _______ _______ _____ _____    ______ ____
ROOT
ATOM      1  N   UNL     1      -0.057  10.068  19.085  0.00  0.00    +0.000 N 
ATOM      2  C   UNL     1      -0.017  10.152  20.441  0.00  0.00    +0.000 A 
ATOM      3  O   UNL     1       0.269   9.220  21.179  0.00  0.00    +0.000 OA
ATOM      4  N   UNL     1      -0.304  11.389  20.897  0.00  0.00    +0.000 NA
ATOM      5  C   UNL     1      -1.357  11.959  20.397  0.00  0.00    +0.000 A 
ATOM      6  C   UNL     1      -1.976  11.554  19.115  0.00  0.00    +0.000 A 
ATOM      7  C   UNL     1      -3.222  12.035  18.672  0.00  0.00    +0.000 A 
ATOM      8  C   UNL     1      -3.898  11.356  17.665  0.00  0.00    +0.000 A 
ATOM      9 CL   UNL     1      -5.479  11.866  17.208  0.00  0.00    +0.000 Cl
ATOM     10  C   UNL     1      -3.323  10.206  17.111  0.00  0.00    +0.000 A 
ATOM     11  C   UNL     1      -2.006   9.801  17.480  0.00  0.00    +0.000 A 
ATOM     12  C   UNL     1      -1.279  10.513  18.457  0.00  0.00    +0.000 A 
ENDROOT
BRANCH   5  13
ATOM     13  C   UNL     1      -2.033  12.787  21.397  0.00  0.00    +0.000 A 
ATOM     14  C   UNL     1      -2.507  12.022  22.484  0.00  0.00    +0.000 A 
ATOM     15  C   UNL     1      -3.000  12.647  23.608  0.00  0.00    +0.000 A 
ATOM     16  C   UNL     1      -3.065  14.041  23.624  0.00  0.00    +0.000 A 
ATOM     17  C   UNL     1      -2.618  14.789  22.534  0.00  0.00    +0.000 A 
ATOM     18  C   UNL     1      -2.081  14.159  21.422  0.00  0.00    +0.000 A 
ATOM     19  F   UNL     1      -1.612  14.912  20.419  0.00  0.00    +0.000 F 
ENDBRANCH   5  13
BRANCH   1  20
ATOM     20  C   UNL     1       1.261   9.826  18.538  0.00  0.00    +0.000 C 
BRANCH  20  22
ATOM     21  N   UNL     1       2.128   7.420  19.559  0.00  0.00    +0.000 N 
ATOM     22  C   UNL     1       2.117   8.401  18.555  0.00  0.00    +0.000 C 
ATOM     23  O   UNL     1       2.848   8.218  17.567  0.00  0.00    +0.000 OA
ATOM     24  H   UNL     1       1.664   7.596  20.444  0.00  0.00    +0.000 HD
BRANCH  21  25
ATOM     25  C   UNL     1       3.152   6.271  19.511  0.00  0.00    +0.000 C 
BRANCH  25  31
ATOM     26  C   UNL     1       1.903   3.951  19.420  0.00  0.00    +0.000 A 
ATOM     27  C   UNL     1       1.561   2.768  18.733  0.00  0.00    +0.000 A 
ATOM     28  C   UNL     1       2.254   2.387  17.593  0.00  0.00    +0.000 A 
ATOM     29  C   UNL     1       3.269   3.216  17.130  0.00  0.00    +0.000 A 
ATOM     30  C   UNL     1       3.522   4.466  17.730  0.00  0.00    +0.000 A 
ATOM     31  C   UNL     1       2.808   4.913  18.854  0.00  0.00    +0.000 A 
BRANCH  26  33
ATOM     32  C   UNL     1       1.810   3.175  21.682  0.00  0.00    +0.000 C 
ATOM     33  O   UNL     1       1.400   4.155  20.697  0.00  0.00    +0.000 OA
ENDBRANCH  26  33
ENDBRANCH  25  31
ENDBRANCH  21  25
ENDBRANCH  20  22
ENDBRANCH   1  20
TORSDOF 6
ENDMDL
MODEL 7
REMARK VINA RESULT:      -8.6      5.707      8.788
REMARK  Name = 
REMARK  7 active torsions:
REMARK  status: ('A' for Active; 'I' for Inactive)
REMARK    1  A    between atoms: C_1  and  O_2
REMARK    2  A    between atoms: O_2  and  C_3
REMARK    3  A    between atoms: C_8  and  C_9
REMARK    4  A    between atoms: C_9  and  N_10
REMARK    5  A    between atoms: C_11  and  C_13
REMARK    6  A    between atoms: C_13  and  N_14
REMARK    7  A    between atoms: C_18  and  C_19
REMARK                            x       y       z     vdW  Elec       q    Type
REMARK                         _______ _______ _______ _____ _____    ______ ____
ROOT
ATOM      1  N   UNL     1       1.991   7.667  19.526  0.00  0.00    +0.000 N 
ATOM      2  C   UNL     1       2.251   7.911  18.214  0.00  0.00    +0.000 A 
ATOM      3  O   UNL     1       1.430   8.352  17.423  0.00  0.00    +0.000 OA
ATOM      4  N   UNL     1       3.527   7.637  17.873  0.00  0.00    +0.000 NA
ATOM      5  C   UNL     1       3.997   6.493  18.267  0.00  0.00    +0.000 A 
ATOM      6  C   UNL     1       3.412   5.704  19.374  0.00  0.00    +0.000 A 
ATOM      7  C   UNL     1       3.794   4.383  19.670  0.00  0.00    +0.000 A 
ATOM      8  C   UNL     1       2.972   3.594  20.465  0.00  0.00    +0.000 A 
ATOM      9 CL   UNL     1       3.372   1.939  20.725  0.00  0.00    +0.000 Cl
ATOM     10  C   UNL     1       1.778   4.134  20.959  0.00  0.00    +0.000 A 
ATOM     11  C   UNL     1       1.463   5.511  20.757  0.00  0.00    +0.000 A 
ATOM     12  C   UNL     1       2.315   6.342  20.002  0.00  0.00    +0.000 A 
ENDROOT
BRANCH   5  13
ATOM     13  C   UNL     1       4.926   5.938  17.281  0.00  0.00    +0.000 A 
ATOM     14  C   UNL     1       6.182   6.580  17.318  0.00  0.00    +0.000 A 
ATOM     15  C   UNL     1       7.241   6.073  16.598  0.00  0.00    +0.000 A 
ATOM     16  C   UNL     1       7.030   4.948  15.801  0.00  0.00    +0.000 A 
ATOM     17  C   UNL     1       5.777   4.333  15.750  0.00  0.00    +0.000 A 
ATOM     18  C   UNL     1       4.725   4.820  16.509  0.00  0.00    +0.000 A 
ATOM     19  F   UNL     1       3.554   4.172  16.478  0.00  0.00    +0.000 F 
ENDBRANCH   5  13
BRANCH   1  20
ATOM     20  C   UNL     1       1.720   8.895  20.241  0.00  0.00    +0.000 C 
BRANCH  20  22
ATOM     21  N   UNL     1      -0.708  10.161  19.947  0.00  0.00    +0.000 N 
ATOM     22  C   UNL     1       0.687  10.119  19.795  0.00  0.00    +0.000 C 
ATOM     23  O   UNL     1       1.232  11.087  19.238  0.00  0.00    +0.000 OA
ATOM     24  H   UNL     1      -1.208   9.335  20.260  0.00  0.00    +0.000 HD
BRANCH  21  25
ATOM     25  C   UNL     1      -1.530  11.275  19.273  0.00  0.00    +0.000 C 
BRANCH  25  31
ATOM     26  C   UNL     1      -3.693  11.467  17.777  0.00  0.00    +0.000 A 
ATOM     27  C   UNL     1      -4.357  11.266  16.550  0.00  0.00    +0.000 A 
ATOM     28  C   UNL     1      -3.821  10.427  15.584  0.00  0.00    +0.000 A 
ATOM     29  C   UNL     1      -2.599   9.816  15.846  0.00  0.00    +0.000 A 
ATOM     30  C   UNL     1      -1.865  10.122  17.009  0.00  0.00    +0.000 A 
ATOM     31  C   UNL     1      -2.348  11.007  17.988  0.00  0.00    +0.000 A 
BRANCH  26  33
ATOM     32  C   UNL     1      -5.740  11.605  19.009  0.00  0.00    +0.000 C 
ATOM     33  O   UNL     1      -4.380  12.068  18.822  0.00  0.00    +0.000 OA
ENDBRANCH  26  33
ENDBRANCH  25  31
ENDBRANCH  21  25
ENDBRANCH  20  22
ENDBRANCH   1  20
TORSDOF 6
ENDMDL
MODEL 8
REMARK VINA RESULT:      -8.6      7.662     11.053
REMARK  Name = 
REMARK  7 active torsions:
REMARK  status: ('A' for Active; 'I' for Inactive)
REMARK    1  A    between atoms: C_1  and  O_2
REMARK    2  A    between atoms: O_2  and  C_3
REMARK    3  A    between atoms: C_8  and  C_9
REMARK    4  A    between atoms: C_9  and  N_10
REMARK    5  A    between atoms: C_11  and  C_13
REMARK    6  A    between atoms: C_13  and  N_14
REMARK    7  A    between atoms: C_18  and  C_19
REMARK                            x       y       z     vdW  Elec       q    Type
REMARK                         _______ _______ _______ _____ _____    ______ ____
ROOT
ATOM      1  N   UNL     1      -0.353  10.316  19.154  0.00  0.00    +0.000 N 
ATOM      2  C   UNL     1      -0.265  10.423  20.507  0.00  0.00    +0.000 A 
ATOM      3  O   UNL     1       0.098   9.518  21.244  0.00  0.00    +0.000 OA
ATOM      4  N   UNL     1      -0.598  11.650  20.958  0.00  0.00    +0.000 NA
ATOM      5  C   UNL     1      -1.699  12.157  20.492  0.00  0.00    +0.000 A 
ATOM      6  C   UNL     1      -2.346  11.701  19.241  0.00  0.00    +0.000 A 
ATOM      7  C   UNL     1      -3.631  12.108  18.842  0.00  0.00    +0.000 A 
ATOM      8  C   UNL     1      -4.309  11.380  17.872  0.00  0.00    +0.000 A 
ATOM      9 CL   UNL     1      -5.932  11.800  17.471  0.00  0.00    +0.000 Cl
ATOM     10  C   UNL     1      -3.696  10.254  17.310  0.00  0.00    +0.000 A 
ATOM     11  C   UNL     1      -2.346   9.924  17.631  0.00  0.00    +0.000 A 
ATOM     12  C   UNL     1      -1.621  10.687  18.569  0.00  0.00    +0.000 A 
ENDROOT
BRANCH   5  13
ATOM     13  C   UNL     1      -2.379  12.963  21.508  0.00  0.00    +0.000 A 
ATOM     14  C   UNL     1      -2.798  12.184  22.607  0.00  0.00    +0.000 A 
ATOM     15  C   UNL     1      -3.285  12.794  23.742  0.00  0.00    +0.000 A 
ATOM     16  C   UNL     1      -3.398  14.184  23.758  0.00  0.00    +0.000 A 
ATOM     17  C   UNL     1      -3.004  14.946  22.656  0.00  0.00    +0.000 A 
ATOM     18  C   UNL     1      -2.474  14.332  21.532  0.00  0.00    +0.000 A 
ATOM     19  F   UNL     1      -2.056  15.098  20.517  0.00  0.00    +0.000 F 
ENDBRANCH   5  13
BRANCH   1  20
ATOM     20  C   UNL     1       0.953  10.136  18.558  0.00  0.00    +0.000 C 
BRANCH  20  22
ATOM     21  N   UNL     1       1.998   7.741  19.429  0.00  0.00    +0.000 N 
ATOM     22  C   UNL     1       1.827   8.726  18.442  0.00  0.00    +0.000 C 
ATOM     23  O   UNL     1       2.410   8.559  17.358  0.00  0.00    +0.000 OA
ATOM     24  H   UNL     1       1.664   7.905  20.372  0.00  0.00    +0.000 HD
BRANCH  21  25
ATOM     25  C   UNL     1       3.023   6.610  19.226  0.00  0.00    +0.000 C 
BRANCH  25  31
ATOM     26  C   UNL     1       3.569   4.038  19.429  0.00  0.00    +0.000 A 
ATOM     27  C   UNL     1       3.327   2.775  20.005  0.00  0.00    +0.000 A 
ATOM     28  C   UNL     1       2.168   2.538  20.730  0.00  0.00    +0.000 A 
ATOM     29  C   UNL     1       1.268   3.585  20.896  0.00  0.00    +0.000 A 
ATOM     30  C   UNL     1       1.569   4.884  20.441  0.00  0.00    +0.000 A 
ATOM     31  C   UNL     1       2.757   5.179  19.750  0.00  0.00    +0.000 A 
BRANCH  26  33
ATOM     32  C   UNL     1       4.278   3.580  17.189  0.00  0.00    +0.000 C 
ATOM     33  O   UNL     1       4.576   4.162  18.482  0.00  0.00    +0.000 OA
ENDBRANCH  26  33
ENDBRANCH  25  31
ENDBRANCH  21  25
ENDBRANCH  20  22
ENDBRANCH   1  20
TORSDOF 6
ENDMDL
MODEL 9
REMARK VINA RESULT:      -8.6      3.088      4.000
REMARK  Name = 
REMARK  7 active torsions:
REMARK  status: ('A' for Active; 'I' for Inactive)
REMARK    1  A    between atoms: C_1  and  O_2
REMARK    2  A    between atoms: O_2  and  C_3
REMARK    3  A    between atoms: C_8  and  C_9
REMARK    4  A    between atoms: C_9  and  N_10
REMARK    5  A    between atoms: C_11  and  C_13
REMARK    6  A    between atoms: C_13  and  N_14
REMARK    7  A    between atoms: C_18  and  C_19
REMARK                            x       y       z     vdW  Elec       q    Type
REMARK                         _______ _______ _______ _____ _____    ______ ____
ROOT
ATOM      1  N   UNL     1       4.992   6.639  17.092  0.00  0.00    +0.000 N 
ATOM      2  C   UNL     1       4.718   5.321  16.901  0.00  0.00    +0.000 A 
ATOM      3  O   UNL     1       4.762   4.761  15.815  0.00  0.00    +0.000 OA
ATOM      4  N   UNL     1       4.413   4.679  18.047  0.00  0.00    +0.000 NA
ATOM      5  C   UNL     1       3.545   5.258  18.820  0.00  0.00    +0.000 A 
ATOM      6  C   UNL     1       3.219   6.700  18.749  0.00  0.00    +0.000 A 
ATOM      7  C   UNL     1       2.146   7.286  19.444  0.00  0.00    +0.000 A 
ATOM      8  C   UNL     1       1.682   8.538  19.058  0.00  0.00    +0.000 A 
ATOM      9 CL   UNL     1       0.289   9.202  19.823  0.00  0.00    +0.000 Cl
ATOM     10  C   UNL     1       2.297   9.192  17.984  0.00  0.00    +0.000 A 
ATOM     11  C   UNL     1       3.462   8.645  17.368  0.00  0.00    +0.000 A 
ATOM     12  C   UNL     1       3.982   7.403  17.786  0.00  0.00    +0.000 A 
ENDROOT
BRANCH   5  13
ATOM     13  C   UNL     1       2.708   4.271  19.504  0.00  0.00    +0.000 A 
ATOM     14  C   UNL     1       3.096   4.090  20.849  0.00  0.00    +0.000 A 
ATOM     15  C   UNL     1       2.311   3.345  21.701  0.00  0.00    +0.000 A 
ATOM     16  C   UNL     1       1.160   2.740  21.195  0.00  0.00    +0.000 A 
ATOM     17  C   UNL     1       0.797   2.904  19.856  0.00  0.00    +0.000 A 
ATOM     18  C   UNL     1       1.565   3.690  19.012  0.00  0.00    +0.000 A 
ATOM     19  F   UNL     1       1.156   3.869  17.750  0.00  0.00    +0.000 F 
ENDBRANCH   5  13
BRANCH   1  20
ATOM     20  C   UNL     1       6.383   6.928  16.816  0.00  0.00    +0.000 C 
BRANCH  20  22
ATOM     21  N   UNL     1       7.889   8.972  17.884  0.00  0.00    +0.000 N 
ATOM     22  C   UNL     1       7.493   7.625  17.839  0.00  0.00    +0.000 C 
ATOM     23  O   UNL     1       8.045   6.839  18.627  0.00  0.00    +0.000 OA
ATOM     24  H   UNL     1       7.576   9.616  17.166  0.00  0.00    +0.000 HD
BRANCH  21  25
ATOM     25  C   UNL     1       9.093   9.398  18.744  0.00  0.00    +0.000 C 
BRANCH  25  31
ATOM     26  C   UNL     1       9.311  12.022  18.889  0.00  0.00    +0.000 A 
ATOM     27  C   UNL     1       9.220  13.221  19.624  0.00  0.00    +0.000 A 
ATOM     28  C   UNL     1       9.142  13.198  21.010  0.00  0.00    +0.000 A 
ATOM     29  C   UNL     1       9.125  11.963  21.649  0.00  0.00    +0.000 A 
ATOM     30  C   UNL     1       9.076  10.762  20.913  0.00  0.00    +0.000 A 
ATOM     31  C   UNL     1       9.099  10.743  19.509  0.00  0.00    +0.000 A 
BRANCH  26  33
ATOM     32  C   UNL     1      11.063  12.422  17.308  0.00  0.00    +0.000 C 
ATOM     33  O   UNL     1       9.676  12.081  17.552  0.00  0.00    +0.000 OA
ENDBRANCH  26  33
ENDBRANCH  25  31
ENDBRANCH  21  25
ENDBRANCH  20  22
ENDBRANCH   1  20
TORSDOF 6
ENDMDL
