MODEL 1
REMARK VINA RESULT:      -6.7      0.000      0.000
REMARK  Name = 
REMARK  25 active torsions:
REMARK  status: ('A' for Active; 'I' for Inactive)
REMARK    1  A    between atoms: C_1  and  C_2
REMARK    2  A    between atoms: C_2  and  C_3
REMARK    3  A    between atoms: C_3  and  C_4
REMARK    4  A    between atoms: C_4  and  C_5
REMARK    5  A    between atoms: C_5  and  C_6
REMARK    6  A    between atoms: C_6  and  C_7
REMARK    7  A    between atoms: C_7  and  C_8
REMARK    8  A    between atoms: C_8  and  C_9
REMARK    9  A    between atoms: C_9  and  C_10
REMARK   10  A    between atoms: C_10  and  C_11
REMARK   11  A    between atoms: C_11  and  C_12
REMARK   12  A    between atoms: C_12  and  O_14
REMARK   13  A    between atoms: O_14  and  C_15
REMARK   14  A    between atoms: C_15  and  C_16
REMARK   15  A    between atoms: C_15  and  C_29
REMARK   16  A    between atoms: C_16  and  C_17
REMARK   17  A    between atoms: C_17  and  O_19
REMARK   18  A    between atoms: O_19  and  C_20
REMARK   19  A    between atoms: C_20  and  C_21
REMARK   20  A    between atoms: C_21  and  O_22
REMARK   21  A    between atoms: O_22  and  C_23
REMARK   22  A    between atoms: C_29  and  N_30
REMARK   23  A    between atoms: N_30  and  C_31
REMARK   24  A    between atoms: N_30  and  C_32
REMARK   25  A    between atoms: N_30  and  C_33
REMARK                            x       y       z     vdW  Elec       q    Type
REMARK                         _______ _______ _______ _____ _____    ______ ____
ROOT
ATOM      1  C   UNL     1       2.989   5.228  17.913  0.00  0.00    +0.000 C 
ENDROOT
BRANCH   1   2
ATOM      2  O   UNL     1       4.245   4.893  18.585  0.00  0.00    +0.000 OA
BRANCH   2   3
ATOM      3  C   UNL     1       5.419   4.757  17.928  0.00  0.00    +0.000 C 
ATOM      4  O   UNL     1       6.472   5.251  18.309  0.00  0.00    +0.000 OA
BRANCH   3   5
ATOM      5  C   UNL     1       5.221   3.880  16.706  0.00  0.00    +0.000 C 
BRANCH   5   6
ATOM      6  C   UNL     1       5.429   4.668  15.427  0.00  0.00    +0.000 C 
BRANCH   6   7
ATOM      7  C   UNL     1       6.916   4.938  15.204  0.00  0.00    +0.000 C 
BRANCH   7   8
ATOM      8  C   UNL     1       7.334   4.580  13.791  0.00  0.00    +0.000 C 
BRANCH   8   9
ATOM      9  C   UNL     1       6.099   4.296  12.945  0.00  0.00    +0.000 C 
BRANCH   9  10
ATOM     10  C   UNL     1       6.369   3.130  12.008  0.00  0.00    +0.000 C 
BRANCH  10  11
ATOM     11  C   UNL     1       5.074   2.420  11.637  0.00  0.00    +0.000 C 
BRANCH  11  12
ATOM     12  C   UNL     1       3.943   3.431  11.500  0.00  0.00    +0.000 C 
BRANCH  12  13
ATOM     13  C   UNL     1       3.142   3.183  10.227  0.00  0.00    +0.000 C 
BRANCH  13  15
ATOM     14  C   UNL     1       2.053   5.026   8.919  0.00  0.00    +0.000 C 
ATOM     15  C   UNL     1       3.356   4.309   9.221  0.00  0.00    +0.000 C 
ENDBRANCH  13  15
ENDBRANCH  12  13
ENDBRANCH  11  12
ENDBRANCH  10  11
ENDBRANCH   9  10
ENDBRANCH   8   9
ENDBRANCH   7   8
ENDBRANCH   6   7
ENDBRANCH   5   6
ENDBRANCH   3   5
ENDBRANCH   2   3
ENDBRANCH   1   2
BRANCH   1  16
ATOM     16  C   UNL     1       1.937   4.065  17.942  0.00  0.00    +0.000 C 
BRANCH  16  17
ATOM     17  N   UNL     1       1.725   3.315  19.291  0.00  0.00    +0.000 N 
ATOM     18  C   UNL     1       3.007   2.896  20.000  0.00  0.00    +0.000 C 
ATOM     19  C   UNL     1       0.865   4.140  20.235  0.00  0.00    +0.000 C 
ATOM     20  C   UNL     1       0.976   2.002  18.981  0.00  0.00    +0.000 C 
ENDBRANCH  16  17
ENDBRANCH   1  16
BRANCH   1  21
ATOM     21  C   UNL     1       2.582   6.517  18.647  0.00  0.00    +0.000 C 
BRANCH  21  22
ATOM     22  C   UNL     1       2.919   7.719  17.796  0.00  0.00    +0.000 C 
ATOM     23  O   UNL     1       3.938   7.796  17.127  0.00  0.00    +0.000 OA
BRANCH  22  24
ATOM     24  O   UNL     1       1.848   8.539  17.686  0.00  0.00    +0.000 OA
BRANCH  24  25
ATOM     25  C   UNL     1       1.516   9.312  18.858  0.00  0.00    +0.000 C 
BRANCH  25  26
ATOM     26  C   UNL     1       0.479  10.335  18.401  0.00  0.00    +0.000 C 
BRANCH  26  27
ATOM     27  O   UNL     1      -0.829  10.067  18.853  0.00  0.00    +0.000 OA
BRANCH  27  28
ATOM     28  C   UNL     1      -1.834  10.300  17.962  0.00  0.00    +0.000 A 
ATOM     29  C   UNL     1      -2.777  11.218  18.411  0.00  0.00    +0.000 A 
ATOM     30  C   UNL     1      -3.881  11.522  17.623  0.00  0.00    +0.000 A 
ATOM     31  C   UNL     1      -4.034  10.918  16.376  0.00  0.00    +0.000 A 
ATOM     32  C   UNL     1      -3.070  10.028  15.907  0.00  0.00    +0.000 A 
ATOM     33  C   UNL     1      -1.961   9.723  16.695  0.00  0.00    +0.000 A 
ENDBRANCH  27  28
ENDBRANCH  26  27
ENDBRANCH  25  26
ENDBRANCH  24  25
ENDBRANCH  22  24
ENDBRANCH  21  22
ENDBRANCH   1  21
TORSDOF 21
ENDMDL
MODEL 2
REMARK VINA RESULT:      -6.5      4.156      7.254
REMARK  Name = 
REMARK  25 active torsions:
REMARK  status: ('A' for Active; 'I' for Inactive)
REMARK    1  A    between atoms: C_1  and  C_2
REMARK    2  A    between atoms: C_2  and  C_3
REMARK    3  A    between atoms: C_3  and  C_4
REMARK    4  A    between atoms: C_4  and  C_5
REMARK    5  A    between atoms: C_5  and  C_6
REMARK    6  A    between atoms: C_6  and  C_7
REMARK    7  A    between atoms: C_7  and  C_8
REMARK    8  A    between atoms: C_8  and  C_9
REMARK    9  A    between atoms: C_9  and  C_10
REMARK   10  A    between atoms: C_10  and  C_11
REMARK   11  A    between atoms: C_11  and  C_12
REMARK   12  A    between atoms: C_12  and  O_14
REMARK   13  A    between atoms: O_14  and  C_15
REMARK   14  A    between atoms: C_15  and  C_16
REMARK   15  A    between atoms: C_15  and  C_29
REMARK   16  A    between atoms: C_16  and  C_17
REMARK   17  A    between atoms: C_17  and  O_19
REMARK   18  A    between atoms: O_19  and  C_20
REMARK   19  A    between atoms: C_20  and  C_21
REMARK   20  A    between atoms: C_21  and  O_22
REMARK   21  A    between atoms: O_22  and  C_23
REMARK   22  A    between atoms: C_29  and  N_30
REMARK   23  A    between atoms: N_30  and  C_31
REMARK   24  A    between atoms: N_30  and  C_32
REMARK   25  A    between atoms: N_30  and  C_33
REMARK                            x       y       z     vdW  Elec       q    Type
REMARK                         _______ _______ _______ _____ _____    ______ ____
ROOT
ATOM      1  C   UNL     1      -0.239  10.404  19.128  0.00  0.00    +0.000 C 
ENDROOT
BRANCH   1   2
ATOM      2  O   UNL     1       0.805   9.388  19.263  0.00  0.00    +0.000 OA
BRANCH   2   3
ATOM      3  C   UNL     1       1.769   9.193  18.334  0.00  0.00    +0.000 C 
ATOM      4  O   UNL     1       2.108  10.041  17.520  0.00  0.00    +0.000 OA
BRANCH   3   5
ATOM      5  C   UNL     1       2.365   7.808  18.500  0.00  0.00    +0.000 C 
BRANCH   5   6
ATOM      6  C   UNL     1       3.351   7.501  17.390  0.00  0.00    +0.000 C 
BRANCH   6   7
ATOM      7  C   UNL     1       4.337   6.423  17.837  0.00  0.00    +0.000 C 
BRANCH   7   8
ATOM      8  C   UNL     1       3.701   5.476  18.836  0.00  0.00    +0.000 C 
BRANCH   8   9
ATOM      9  C   UNL     1       4.043   4.037  18.470  0.00  0.00    +0.000 C 
BRANCH   9  10
ATOM     10  C   UNL     1       3.195   3.585  17.292  0.00  0.00    +0.000 C 
BRANCH  10  11
ATOM     11  C   UNL     1       2.574   2.222  17.560  0.00  0.00    +0.000 C 
BRANCH  11  12
ATOM     12  C   UNL     1       2.208   2.093  19.034  0.00  0.00    +0.000 C 
BRANCH  12  13
ATOM     13  C   UNL     1       0.856   2.738  19.317  0.00  0.00    +0.000 C 
BRANCH  13  15
ATOM     14  C   UNL     1       1.952   3.131  21.540  0.00  0.00    +0.000 C 
ATOM     15  C   UNL     1       0.932   3.647  20.540  0.00  0.00    +0.000 C 
ENDBRANCH  13  15
ENDBRANCH  12  13
ENDBRANCH  11  12
ENDBRANCH  10  11
ENDBRANCH   9  10
ENDBRANCH   8   9
ENDBRANCH   7   8
ENDBRANCH   6   7
ENDBRANCH   5   6
ENDBRANCH   3   5
ENDBRANCH   2   3
ENDBRANCH   1   2
BRANCH   1  16
ATOM     16  C   UNL     1      -1.543   9.871  18.437  0.00  0.00    +0.000 C 
BRANCH  16  17
ATOM     17  N   UNL     1      -2.358  10.870  17.563  0.00  0.00    +0.000 N 
ATOM     18  C   UNL     1      -2.529  10.458  16.107  0.00  0.00    +0.000 C 
ATOM     19  C   UNL     1      -3.721  11.137  18.183  0.00  0.00    +0.000 C 
ATOM     20  C   UNL     1      -1.577  12.200  17.527  0.00  0.00    +0.000 C 
ENDBRANCH  16  17
ENDBRANCH   1  16
BRANCH   1  21
ATOM     21  C   UNL     1      -0.398  10.876  20.584  0.00  0.00    +0.000 C 
BRANCH  21  22
ATOM     22  C   UNL     1       0.639  11.930  20.896  0.00  0.00    +0.000 C 
ATOM     23  O   UNL     1       1.407  12.376  20.058  0.00  0.00    +0.000 OA
BRANCH  22  24
ATOM     24  O   UNL     1       0.418  12.466  22.119  0.00  0.00    +0.000 OA
BRANCH  24  25
ATOM     25  C   UNL     1      -0.285  13.726  22.142  0.00  0.00    +0.000 C 
BRANCH  25  26
ATOM     26  C   UNL     1      -1.244  13.645  23.327  0.00  0.00    +0.000 C 
BRANCH  26  27
ATOM     27  O   UNL     1      -1.977  12.442  23.391  0.00  0.00    +0.000 OA
BRANCH  27  28
ATOM     28  C   UNL     1      -3.334  12.561  23.340  0.00  0.00    +0.000 A 
ATOM     29  C   UNL     1      -3.835  12.698  22.050  0.00  0.00    +0.000 A 
ATOM     30  C   UNL     1      -5.200  12.869  21.849  0.00  0.00    +0.000 A 
ATOM     31  C   UNL     1      -6.067  12.887  22.939  0.00  0.00    +0.000 A 
ATOM     32  C   UNL     1      -5.572  12.710  24.229  0.00  0.00    +0.000 A 
ATOM     33  C   UNL     1      -4.204  12.536  24.434  0.00  0.00    +0.000 A 
ENDBRANCH  27  28
ENDBRANCH  26  27
ENDBRANCH  25  26
ENDBRANCH  24  25
ENDBRANCH  22  24
ENDBRANCH  21  22
ENDBRANCH   1  21
TORSDOF 21
ENDMDL
MODEL 3
REMARK VINA RESULT:      -6.4      4.539      6.749
REMARK  Name = 
REMARK  25 active torsions:
REMARK  status: ('A' for Active; 'I' for Inactive)
REMARK    1  A    between atoms: C_1  and  C_2
REMARK    2  A    between atoms: C_2  and  C_3
REMARK    3  A    between atoms: C_3  and  C_4
REMARK    4  A    between atoms: C_4  and  C_5
REMARK    5  A    between atoms: C_5  and  C_6
REMARK    6  A    between atoms: C_6  and  C_7
REMARK    7  A    between atoms: C_7  and  C_8
REMARK    8  A    between atoms: C_8  and  C_9
REMARK    9  A    between atoms: C_9  and  C_10
REMARK   10  A    between atoms: C_10  and  C_11
REMARK   11  A    between atoms: C_11  and  C_12
REMARK   12  A    between atoms: C_12  and  O_14
REMARK   13  A    between atoms: O_14  and  C_15
REMARK   14  A    between atoms: C_15  and  C_16
REMARK   15  A    between atoms: C_15  and  C_29
REMARK   16  A    between atoms: C_16  and  C_17
REMARK   17  A    between atoms: C_17  and  O_19
REMARK   18  A    between atoms: O_19  and  C_20
REMARK   19  A    between atoms: C_20  and  C_21
REMARK   20  A    between atoms: C_21  and  O_22
REMARK   21  A    between atoms: O_22  and  C_23
REMARK   22  A    between atoms: C_29  and  N_30
REMARK   23  A    between atoms: N_30  and  C_31
REMARK   24  A    between atoms: N_30  and  C_32
REMARK   25  A    between atoms: N_30  and  C_33
REMARK                            x       y       z     vdW  Elec       q    Type
REMARK                         _______ _______ _______ _____ _____    ______ ____
ROOT
ATOM      1  C   UNL     1       5.062   4.821  18.127  0.00  0.00    +0.000 C 
ENDROOT
BRANCH   1   2
ATOM      2  O   UNL     1       6.493   5.122  18.080  0.00  0.00    +0.000 OA
BRANCH   2   3
ATOM      3  C   UNL     1       7.187   5.574  19.150  0.00  0.00    +0.000 C 
ATOM      4  O   UNL     1       7.068   5.114  20.278  0.00  0.00    +0.000 OA
BRANCH   3   5
ATOM      5  C   UNL     1       8.133   6.676  18.716  0.00  0.00    +0.000 C 
BRANCH   5   6
ATOM      6  C   UNL     1       7.623   7.375  17.470  0.00  0.00    +0.000 C 
BRANCH   6   7
ATOM      7  C   UNL     1       7.671   8.890  17.652  0.00  0.00    +0.000 C 
BRANCH   7   8
ATOM      8  C   UNL     1       8.878   9.309  18.468  0.00  0.00    +0.000 C 
BRANCH   8   9
ATOM      9  C   UNL     1       8.887  10.824  18.633  0.00  0.00    +0.000 C 
BRANCH   9  10
ATOM     10  C   UNL     1      10.260  11.288  19.091  0.00  0.00    +0.000 C 
BRANCH  10  11
ATOM     11  C   UNL     1      11.157  11.594  17.900  0.00  0.00    +0.000 C 
BRANCH  11  12
ATOM     12  C   UNL     1      10.720  12.894  17.235  0.00  0.00    +0.000 C 
BRANCH  12  13
ATOM     13  C   UNL     1      10.839  14.066  18.202  0.00  0.00    +0.000 C 
BRANCH  13  15
ATOM     14  C   UNL     1       8.359  14.442  18.131  0.00  0.00    +0.000 C 
ATOM     15  C   UNL     1       9.726  15.082  17.964  0.00  0.00    +0.000 C 
ENDBRANCH  13  15
ENDBRANCH  12  13
ENDBRANCH  11  12
ENDBRANCH  10  11
ENDBRANCH   9  10
ENDBRANCH   8   9
ENDBRANCH   7   8
ENDBRANCH   6   7
ENDBRANCH   5   6
ENDBRANCH   3   5
ENDBRANCH   2   3
ENDBRANCH   1   2
BRANCH   1  16
ATOM     16  C   UNL     1       4.730   3.477  18.866  0.00  0.00    +0.000 C 
BRANCH  16  17
ATOM     17  N   UNL     1       3.380   2.779  18.526  0.00  0.00    +0.000 N 
ATOM     18  C   UNL     1       2.686   3.300  17.274  0.00  0.00    +0.000 C 
ATOM     19  C   UNL     1       3.567   1.273  18.418  0.00  0.00    +0.000 C 
ATOM     20  C   UNL     1       2.405   3.061  19.687  0.00  0.00    +0.000 C 
ENDBRANCH  16  17
ENDBRANCH   1  16
BRANCH   1  21
ATOM     21  C   UNL     1       4.501   6.098  18.775  0.00  0.00    +0.000 C 
BRANCH  21  22
ATOM     22  C   UNL     1       3.790   6.931  17.734  0.00  0.00    +0.000 C 
ATOM     23  O   UNL     1       4.272   7.181  16.639  0.00  0.00    +0.000 OA
BRANCH  22  24
ATOM     24  O   UNL     1       2.496   7.122  18.079  0.00  0.00    +0.000 OA
BRANCH  24  25
ATOM     25  C   UNL     1       2.015   8.481  18.014  0.00  0.00    +0.000 C 
BRANCH  25  26
ATOM     26  C   UNL     1       1.615   8.849  19.440  0.00  0.00    +0.000 C 
BRANCH  26  27
ATOM     27  O   UNL     1       0.293   9.321  19.562  0.00  0.00    +0.000 OA
BRANCH  27  28
ATOM     28  C   UNL     1       0.081  10.621  19.206  0.00  0.00    +0.000 A 
ATOM     29  C   UNL     1      -1.115  10.826  18.528  0.00  0.00    +0.000 A 
ATOM     30  C   UNL     1      -1.444  12.096  18.068  0.00  0.00    +0.000 A 
ATOM     31  C   UNL     1      -0.581  13.165  18.300  0.00  0.00    +0.000 A 
ATOM     32  C   UNL     1       0.599  12.969  19.014  0.00  0.00    +0.000 A 
ATOM     33  C   UNL     1       0.930  11.697  19.479  0.00  0.00    +0.000 A 
ENDBRANCH  27  28
ENDBRANCH  26  27
ENDBRANCH  25  26
ENDBRANCH  24  25
ENDBRANCH  22  24
ENDBRANCH  21  22
ENDBRANCH   1  21
TORSDOF 21
ENDMDL
MODEL 4
REMARK VINA RESULT:      -6.4      1.488      2.360
REMARK  Name = 
REMARK  25 active torsions:
REMARK  status: ('A' for Active; 'I' for Inactive)
REMARK    1  A    between atoms: C_1  and  C_2
REMARK    2  A    between atoms: C_2  and  C_3
REMARK    3  A    between atoms: C_3  and  C_4
REMARK    4  A    between atoms: C_4  and  C_5
REMARK    5  A    between atoms: C_5  and  C_6
REMARK    6  A    between atoms: C_6  and  C_7
REMARK    7  A    between atoms: C_7  and  C_8
REMARK    8  A    between atoms: C_8  and  C_9
REMARK    9  A    between atoms: C_9  and  C_10
REMARK   10  A    between atoms: C_10  and  C_11
REMARK   11  A    between atoms: C_11  and  C_12
REMARK   12  A    between atoms: C_12  and  O_14
REMARK   13  A    between atoms: O_14  and  C_15
REMARK   14  A    between atoms: C_15  and  C_16
REMARK   15  A    between atoms: C_15  and  C_29
REMARK   16  A    between atoms: C_16  and  C_17
REMARK   17  A    between atoms: C_17  and  O_19
REMARK   18  A    between atoms: O_19  and  C_20
REMARK   19  A    between atoms: C_20  and  C_21
REMARK   20  A    between atoms: C_21  and  O_22
REMARK   21  A    between atoms: O_22  and  C_23
REMARK   22  A    between atoms: C_29  and  N_30
REMARK   23  A    between atoms: N_30  and  C_31
REMARK   24  A    between atoms: N_30  and  C_32
REMARK   25  A    between atoms: N_30  and  C_33
REMARK                            x       y       z     vdW  Elec       q    Type
REMARK                         _______ _______ _______ _____ _____    ______ ____
ROOT
ATOM      1  C   UNL     1       3.529   5.368  19.211  0.00  0.00    +0.000 C 
ENDROOT
BRANCH   1   2
ATOM      2  O   UNL     1       4.894   5.553  19.706  0.00  0.00    +0.000 OA
BRANCH   2   3
ATOM      3  C   UNL     1       5.962   4.910  19.181  0.00  0.00    +0.000 C 
ATOM      4  O   UNL     1       5.916   3.773  18.730  0.00  0.00    +0.000 OA
BRANCH   3   5
ATOM      5  C   UNL     1       7.171   5.825  19.205  0.00  0.00    +0.000 C 
BRANCH   5   6
ATOM      6  C   UNL     1       7.522   6.305  17.809  0.00  0.00    +0.000 C 
BRANCH   6   7
ATOM      7  C   UNL     1       6.363   7.100  17.212  0.00  0.00    +0.000 C 
BRANCH   7   8
ATOM      8  C   UNL     1       6.096   6.690  15.777  0.00  0.00    +0.000 C 
BRANCH   8   9
ATOM      9  C   UNL     1       5.059   5.575  15.745  0.00  0.00    +0.000 C 
BRANCH   9  10
ATOM     10  C   UNL     1       5.656   4.329  15.112  0.00  0.00    +0.000 C 
BRANCH  10  11
ATOM     11  C   UNL     1       6.367   4.667  13.809  0.00  0.00    +0.000 C 
BRANCH  11  12
ATOM     12  C   UNL     1       6.150   3.555  12.790  0.00  0.00    +0.000 C 
BRANCH  12  13
ATOM     13  C   UNL     1       4.668   3.380  12.482  0.00  0.00    +0.000 C 
BRANCH  13  15
ATOM     14  C   UNL     1       3.266   3.698  10.426  0.00  0.00    +0.000 C 
ATOM     15  C   UNL     1       4.459   2.976  11.026  0.00  0.00    +0.000 C 
ENDBRANCH  13  15
ENDBRANCH  12  13
ENDBRANCH  11  12
ENDBRANCH  10  11
ENDBRANCH   9  10
ENDBRANCH   8   9
ENDBRANCH   7   8
ENDBRANCH   6   7
ENDBRANCH   5   6
ENDBRANCH   3   5
ENDBRANCH   2   3
ENDBRANCH   1   2
BRANCH   1  16
ATOM     16  C   UNL     1       2.828   4.084  19.779  0.00  0.00    +0.000 C 
BRANCH  16  17
ATOM     17  N   UNL     1       2.410   2.980  18.763  0.00  0.00    +0.000 N 
ATOM     18  C   UNL     1       3.248   1.709  18.816  0.00  0.00    +0.000 C 
ATOM     19  C   UNL     1       0.939   2.630  18.927  0.00  0.00    +0.000 C 
ATOM     20  C   UNL     1       2.614   3.551  17.345  0.00  0.00    +0.000 C 
ENDBRANCH  16  17
ENDBRANCH   1  16
BRANCH   1  21
ATOM     21  C   UNL     1       2.881   6.710  19.592  0.00  0.00    +0.000 C 
BRANCH  21  22
ATOM     22  C   UNL     1       2.425   7.430  18.345  0.00  0.00    +0.000 C 
ATOM     23  O   UNL     1       1.922   6.856  17.391  0.00  0.00    +0.000 OA
BRANCH  22  24
ATOM     24  O   UNL     1       2.414   8.768  18.546  0.00  0.00    +0.000 OA
BRANCH  24  25
ATOM     25  C   UNL     1       1.221   9.464  18.127  0.00  0.00    +0.000 C 
BRANCH  25  26
ATOM     26  C   UNL     1       0.915  10.468  19.235  0.00  0.00    +0.000 C 
BRANCH  26  27
ATOM     27  O   UNL     1       0.352  11.676  18.776  0.00  0.00    +0.000 OA
BRANCH  27  28
ATOM     28  C   UNL     1      -1.008  11.763  18.822  0.00  0.00    +0.000 A 
ATOM     29  C   UNL     1      -1.490  12.369  19.977  0.00  0.00    +0.000 A 
ATOM     30  C   UNL     1      -2.860  12.489  20.178  0.00  0.00    +0.000 A 
ATOM     31  C   UNL     1      -3.750  12.015  19.215  0.00  0.00    +0.000 A 
ATOM     32  C   UNL     1      -3.268  11.444  18.040  0.00  0.00    +0.000 A 
ATOM     33  C   UNL     1      -1.894  11.324  17.834  0.00  0.00    +0.000 A 
ENDBRANCH  27  28
ENDBRANCH  26  27
ENDBRANCH  25  26
ENDBRANCH  24  25
ENDBRANCH  22  24
ENDBRANCH  21  22
ENDBRANCH   1  21
TORSDOF 21
ENDMDL
MODEL 5
REMARK VINA RESULT:      -6.3      4.918      7.208
REMARK  Name = 
REMARK  25 active torsions:
REMARK  status: ('A' for Active; 'I' for Inactive)
REMARK    1  A    between atoms: C_1  and  C_2
REMARK    2  A    between atoms: C_2  and  C_3
REMARK    3  A    between atoms: C_3  and  C_4
REMARK    4  A    between atoms: C_4  and  C_5
REMARK    5  A    between atoms: C_5  and  C_6
REMARK    6  A    between atoms: C_6  and  C_7
REMARK    7  A    between atoms: C_7  and  C_8
REMARK    8  A    between atoms: C_8  and  C_9
REMARK    9  A    between atoms: C_9  and  C_10
REMARK   10  A    between atoms: C_10  and  C_11
REMARK   11  A    between atoms: C_11  and  C_12
REMARK   12  A    between atoms: C_12  and  O_14
REMARK   13  A    between atoms: O_14  and  C_15
REMARK   14  A    between atoms: C_15  and  C_16
REMARK   15  A    between atoms: C_15  and  C_29
REMARK   16  A    between atoms: C_16  and  C_17
REMARK   17  A    between atoms: C_17  and  O_19
REMARK   18  A    between atoms: O_19  and  C_20
REMARK   19  A    between atoms: C_20  and  C_21
REMARK   20  A    between atoms: C_21  and  O_22
REMARK   21  A    between atoms: O_22  and  C_23
REMARK   22  A    between atoms: C_29  and  N_30
REMARK   23  A    between atoms: N_30  and  C_31
REMARK   24  A    between atoms: N_30  and  C_32
REMARK   25  A    between atoms: N_30  and  C_33
REMARK                            x       y       z     vdW  Elec       q    Type
REMARK                         _______ _______ _______ _____ _____    ______ ____
ROOT
ATOM      1  C   UNL     1       4.704   5.011  18.780  0.00  0.00    +0.000 C 
ENDROOT
BRANCH   1   2
ATOM      2  O   UNL     1       5.747   5.692  19.547  0.00  0.00    +0.000 OA
BRANCH   2   3
ATOM      3  C   UNL     1       7.067   5.466  19.360  0.00  0.00    +0.000 C 
ATOM      4  O   UNL     1       7.861   5.288  20.274  0.00  0.00    +0.000 OA
BRANCH   3   5
ATOM      5  C   UNL     1       7.373   5.426  17.875  0.00  0.00    +0.000 C 
BRANCH   5   6
ATOM      6  C   UNL     1       7.601   6.822  17.327  0.00  0.00    +0.000 C 
BRANCH   6   7
ATOM      7  C   UNL     1       8.181   7.731  18.408  0.00  0.00    +0.000 C 
BRANCH   7   8
ATOM      8  C   UNL     1       8.160   9.184  17.976  0.00  0.00    +0.000 C 
BRANCH   8   9
ATOM      9  C   UNL     1       9.110   9.995  18.849  0.00  0.00    +0.000 C 
BRANCH   9  10
ATOM     10  C   UNL     1       9.422  11.324  18.180  0.00  0.00    +0.000 C 
BRANCH  10  11
ATOM     11  C   UNL     1       9.438  12.455  19.199  0.00  0.00    +0.000 C 
BRANCH  11  12
ATOM     12  C   UNL     1      10.669  12.339  20.090  0.00  0.00    +0.000 C 
BRANCH  12  13
ATOM     13  C   UNL     1      11.553  13.575  19.962  0.00  0.00    +0.000 C 
BRANCH  13  15
ATOM     14  C   UNL     1      12.276  14.250  17.656  0.00  0.00    +0.000 C 
ATOM     15  C   UNL     1      11.193  14.373  18.713  0.00  0.00    +0.000 C 
ENDBRANCH  13  15
ENDBRANCH  12  13
ENDBRANCH  11  12
ENDBRANCH  10  11
ENDBRANCH   9  10
ENDBRANCH   8   9
ENDBRANCH   7   8
ENDBRANCH   6   7
ENDBRANCH   5   6
ENDBRANCH   3   5
ENDBRANCH   2   3
ENDBRANCH   1   2
BRANCH   1  16
ATOM     16  C   UNL     1       3.706   4.193  19.673  0.00  0.00    +0.000 C 
BRANCH  16  17
ATOM     17  N   UNL     1       3.433   2.711  19.280  0.00  0.00    +0.000 N 
ATOM     18  C   UNL     1       2.051   2.191  19.656  0.00  0.00    +0.000 C 
ATOM     19  C   UNL     1       3.674   2.496  17.794  0.00  0.00    +0.000 C 
ATOM     20  C   UNL     1       4.432   1.832  20.062  0.00  0.00    +0.000 C 
ENDBRANCH  16  17
ENDBRANCH   1  16
BRANCH   1  21
ATOM     21  C   UNL     1       4.092   6.179  17.988  0.00  0.00    +0.000 C 
BRANCH  21  22
ATOM     22  C   UNL     1       2.664   6.402  18.426  0.00  0.00    +0.000 C 
ATOM     23  O   UNL     1       1.739   5.688  18.067  0.00  0.00    +0.000 OA
BRANCH  22  24
ATOM     24  O   UNL     1       2.609   7.302  19.435  0.00  0.00    +0.000 OA
BRANCH  24  25
ATOM     25  C   UNL     1       1.640   7.038  20.470  0.00  0.00    +0.000 C 
BRANCH  25  26
ATOM     26  C   UNL     1       1.389   8.378  21.156  0.00  0.00    +0.000 C 
BRANCH  26  27
ATOM     27  O   UNL     1       0.588   9.265  20.408  0.00  0.00    +0.000 OA
BRANCH  27  28
ATOM     28  C   UNL     1      -0.203  10.114  21.124  0.00  0.00    +0.000 A 
ATOM     29  C   UNL     1      -0.795  11.109  20.354  0.00  0.00    +0.000 A 
ATOM     30  C   UNL     1      -1.597  12.071  20.958  0.00  0.00    +0.000 A 
ATOM     31  C   UNL     1      -1.818  12.028  22.333  0.00  0.00    +0.000 A 
ATOM     32  C   UNL     1      -1.258  11.009  23.101  0.00  0.00    +0.000 A 
ATOM     33  C   UNL     1      -0.456  10.042  22.497  0.00  0.00    +0.000 A 
ENDBRANCH  27  28
ENDBRANCH  26  27
ENDBRANCH  25  26
ENDBRANCH  24  25
ENDBRANCH  22  24
ENDBRANCH  21  22
ENDBRANCH   1  21
TORSDOF 21
ENDMDL
MODEL 6
REMARK VINA RESULT:      -6.3      4.121      9.490
REMARK  Name = 
REMARK  25 active torsions:
REMARK  status: ('A' for Active; 'I' for Inactive)
REMARK    1  A    between atoms: C_1  and  C_2
REMARK    2  A    between atoms: C_2  and  C_3
REMARK    3  A    between atoms: C_3  and  C_4
REMARK    4  A    between atoms: C_4  and  C_5
REMARK    5  A    between atoms: C_5  and  C_6
REMARK    6  A    between atoms: C_6  and  C_7
REMARK    7  A    between atoms: C_7  and  C_8
REMARK    8  A    between atoms: C_8  and  C_9
REMARK    9  A    between atoms: C_9  and  C_10
REMARK   10  A    between atoms: C_10  and  C_11
REMARK   11  A    between atoms: C_11  and  C_12
REMARK   12  A    between atoms: C_12  and  O_14
REMARK   13  A    between atoms: O_14  and  C_15
REMARK   14  A    between atoms: C_15  and  C_16
REMARK   15  A    between atoms: C_15  and  C_29
REMARK   16  A    between atoms: C_16  and  C_17
REMARK   17  A    between atoms: C_17  and  O_19
REMARK   18  A    between atoms: O_19  and  C_20
REMARK   19  A    between atoms: C_20  and  C_21
REMARK   20  A    between atoms: C_21  and  O_22
REMARK   21  A    between atoms: O_22  and  C_23
REMARK   22  A    between atoms: C_29  and  N_30
REMARK   23  A    between atoms: N_30  and  C_31
REMARK   24  A    between atoms: N_30  and  C_32
REMARK   25  A    between atoms: N_30  and  C_33
REMARK                            x       y       z     vdW  Elec       q    Type
REMARK                         _______ _______ _______ _____ _____    ______ ____
ROOT
ATOM      1  C   UNL     1       4.374   5.680  17.962  0.00  0.00    +0.000 C 
ENDROOT
BRANCH   1   2
ATOM      2  O   UNL     1       3.789   6.976  18.310  0.00  0.00    +0.000 OA
BRANCH   2   3
ATOM      3  C   UNL     1       2.680   7.103  19.075  0.00  0.00    +0.000 C 
ATOM      4  O   UNL     1       2.180   6.179  19.702  0.00  0.00    +0.000 OA
BRANCH   3   5
ATOM      5  C   UNL     1       2.210   8.544  19.057  0.00  0.00    +0.000 C 
BRANCH   5   6
ATOM      6  C   UNL     1       1.779   8.962  17.664  0.00  0.00    +0.000 C 
BRANCH   6   7
ATOM      7  C   UNL     1       0.277   9.234  17.631  0.00  0.00    +0.000 C 
BRANCH   7   8
ATOM      8  C   UNL     1      -0.089  10.412  18.513  0.00  0.00    +0.000 C 
BRANCH   8   9
ATOM      9  C   UNL     1      -1.452  10.956  18.105  0.00  0.00    +0.000 C 
BRANCH   9  10
ATOM     10  C   UNL     1      -2.129   9.993  17.144  0.00  0.00    +0.000 C 
BRANCH  10  11
ATOM     11  C   UNL     1      -3.644  10.064  17.279  0.00  0.00    +0.000 C 
BRANCH  11  12
ATOM     12  C   UNL     1      -4.179  11.286  16.543  0.00  0.00    +0.000 C 
BRANCH  12  13
ATOM     13  C   UNL     1      -5.362  11.895  17.286  0.00  0.00    +0.000 C 
BRANCH  13  15
ATOM     14  C   UNL     1      -6.798  10.538  18.834  0.00  0.00    +0.000 C 
ATOM     15  C   UNL     1      -5.492  11.298  18.684  0.00  0.00    +0.000 C 
ENDBRANCH  13  15
ENDBRANCH  12  13
ENDBRANCH  11  12
ENDBRANCH  10  11
ENDBRANCH   9  10
ENDBRANCH   8   9
ENDBRANCH   7   8
ENDBRANCH   6   7
ENDBRANCH   5   6
ENDBRANCH   3   5
ENDBRANCH   2   3
ENDBRANCH   1   2
BRANCH   1  16
ATOM     16  C   UNL     1       3.309   4.609  17.537  0.00  0.00    +0.000 C 
BRANCH  16  17
ATOM     17  N   UNL     1       3.298   3.255  18.307  0.00  0.00    +0.000 N 
ATOM     18  C   UNL     1       1.971   2.902  18.966  0.00  0.00    +0.000 C 
ATOM     19  C   UNL     1       3.737   2.118  17.398  0.00  0.00    +0.000 C 
ATOM     20  C   UNL     1       4.315   3.369  19.461  0.00  0.00    +0.000 C 
ENDBRANCH  16  17
ENDBRANCH   1  16
BRANCH   1  21
ATOM     21  C   UNL     1       5.388   6.083  16.878  0.00  0.00    +0.000 C 
BRANCH  21  22
ATOM     22  C   UNL     1       6.780   5.681  17.304  0.00  0.00    +0.000 C 
ATOM     23  O   UNL     1       7.375   4.729  16.821  0.00  0.00    +0.000 OA
BRANCH  22  24
ATOM     24  O   UNL     1       7.340   6.644  18.072  0.00  0.00    +0.000 OA
BRANCH  24  25
ATOM     25  C   UNL     1       7.488   7.941  17.457  0.00  0.00    +0.000 C 
BRANCH  25  26
ATOM     26  C   UNL     1       8.442   8.721  18.357  0.00  0.00    +0.000 C 
BRANCH  26  27
ATOM     27  O   UNL     1       8.452  10.110  18.116  0.00  0.00    +0.000 OA
BRANCH  27  28
ATOM     28  C   UNL     1       9.527  10.798  18.595  0.00  0.00    +0.000 A 
ATOM     29  C   UNL     1       9.472  11.035  19.964  0.00  0.00    +0.000 A 
ATOM     30  C   UNL     1      10.482  11.762  20.584  0.00  0.00    +0.000 A 
ATOM     31  C   UNL     1      11.557  12.238  19.836  0.00  0.00    +0.000 A 
ATOM     32  C   UNL     1      11.634  11.967  18.472  0.00  0.00    +0.000 A 
ATOM     33  C   UNL     1      10.623  11.237  17.847  0.00  0.00    +0.000 A 
ENDBRANCH  27  28
ENDBRANCH  26  27
ENDBRANCH  25  26
ENDBRANCH  24  25
ENDBRANCH  22  24
ENDBRANCH  21  22
ENDBRANCH   1  21
TORSDOF 21
ENDMDL
MODEL 7
REMARK VINA RESULT:      -6.3      3.891      6.480
REMARK  Name = 
REMARK  25 active torsions:
REMARK  status: ('A' for Active; 'I' for Inactive)
REMARK    1  A    between atoms: C_1  and  C_2
REMARK    2  A    between atoms: C_2  and  C_3
REMARK    3  A    between atoms: C_3  and  C_4
REMARK    4  A    between atoms: C_4  and  C_5
REMARK    5  A    between atoms: C_5  and  C_6
REMARK    6  A    between atoms: C_6  and  C_7
REMARK    7  A    between atoms: C_7  and  C_8
REMARK    8  A    between atoms: C_8  and  C_9
REMARK    9  A    between atoms: C_9  and  C_10
REMARK   10  A    between atoms: C_10  and  C_11
REMARK   11  A    between atoms: C_11  and  C_12
REMARK   12  A    between atoms: C_12  and  O_14
REMARK   13  A    between atoms: O_14  and  C_15
REMARK   14  A    between atoms: C_15  and  C_16
REMARK   15  A    between atoms: C_15  and  C_29
REMARK   16  A    between atoms: C_16  and  C_17
REMARK   17  A    between atoms: C_17  and  O_19
REMARK   18  A    between atoms: O_19  and  C_20
REMARK   19  A    between atoms: C_20  and  C_21
REMARK   20  A    between atoms: C_21  and  O_22
REMARK   21  A    between atoms: O_22  and  C_23
REMARK   22  A    between atoms: C_29  and  N_30
REMARK   23  A    between atoms: N_30  and  C_31
REMARK   24  A    between atoms: N_30  and  C_32
REMARK   25  A    between atoms: N_30  and  C_33
REMARK                            x       y       z     vdW  Elec       q    Type
REMARK                         _______ _______ _______ _____ _____    ______ ____
ROOT
ATOM      1  C   UNL     1       3.519   5.810  18.402  0.00  0.00    +0.000 C 
ENDROOT
BRANCH   1   2
ATOM      2  O   UNL     1       4.932   6.159  18.249  0.00  0.00    +0.000 OA
BRANCH   2   3
ATOM      3  C   UNL     1       5.779   5.471  17.449  0.00  0.00    +0.000 C 
ATOM      4  O   UNL     1       5.519   5.158  16.295  0.00  0.00    +0.000 OA
BRANCH   3   5
ATOM      5  C   UNL     1       7.075   5.204  18.189  0.00  0.00    +0.000 C 
BRANCH   5   6
ATOM      6  C   UNL     1       7.764   6.501  18.571  0.00  0.00    +0.000 C 
BRANCH   6   7
ATOM      7  C   UNL     1       7.879   7.420  17.358  0.00  0.00    +0.000 C 
BRANCH   7   8
ATOM      8  C   UNL     1       7.675   8.872  17.745  0.00  0.00    +0.000 C 
BRANCH   8   9
ATOM      9  C   UNL     1       8.778   9.310  18.701  0.00  0.00    +0.000 C 
BRANCH   9  10
ATOM     10  C   UNL     1       9.437  10.579  18.187  0.00  0.00    +0.000 C 
BRANCH  10  11
ATOM     11  C   UNL     1      10.334  11.196  19.251  0.00  0.00    +0.000 C 
BRANCH  11  12
ATOM     12  C   UNL     1       9.805  12.567  19.652  0.00  0.00    +0.000 C 
BRANCH  12  13
ATOM     13  C   UNL     1       9.669  12.677  21.166  0.00  0.00    +0.000 C 
BRANCH  13  15
ATOM     14  C   UNL     1       7.834  11.860  22.670  0.00  0.00    +0.000 C 
ATOM     15  C   UNL     1       8.963  11.453  21.740  0.00  0.00    +0.000 C 
ENDBRANCH  13  15
ENDBRANCH  12  13
ENDBRANCH  11  12
ENDBRANCH  10  11
ENDBRANCH   9  10
ENDBRANCH   8   9
ENDBRANCH   7   8
ENDBRANCH   6   7
ENDBRANCH   5   6
ENDBRANCH   3   5
ENDBRANCH   2   3
ENDBRANCH   1   2
BRANCH   1  16
ATOM     16  C   UNL     1       3.277   4.605  19.378  0.00  0.00    +0.000 C 
BRANCH  16  17
ATOM     17  N   UNL     1       2.454   3.396  18.842  0.00  0.00    +0.000 N 
ATOM     18  C   UNL     1       1.854   2.501  19.919  0.00  0.00    +0.000 C 
ATOM     19  C   UNL     1       1.359   3.868  17.899  0.00  0.00    +0.000 C 
ATOM     20  C   UNL     1       3.420   2.493  18.046  0.00  0.00    +0.000 C 
ENDBRANCH  16  17
ENDBRANCH   1  16
BRANCH   1  21
ATOM     21  C   UNL     1       2.916   7.156  18.838  0.00  0.00    +0.000 C 
BRANCH  21  22
ATOM     22  C   UNL     1       2.676   8.026  17.626  0.00  0.00    +0.000 C 
ATOM     23  O   UNL     1       3.362   7.965  16.617  0.00  0.00    +0.000 OA
BRANCH  22  24
ATOM     24  O   UNL     1       1.484   8.659  17.723  0.00  0.00    +0.000 OA
BRANCH  24  25
ATOM     25  C   UNL     1       1.337   9.571  18.832  0.00  0.00    +0.000 C 
BRANCH  25  26
ATOM     26  C   UNL     1       0.025  10.312  18.589  0.00  0.00    +0.000 C 
BRANCH  26  27
ATOM     27  O   UNL     1      -0.722   9.817  17.501  0.00  0.00    +0.000 OA
BRANCH  27  28
ATOM     28  C   UNL     1      -1.954  10.370  17.315  0.00  0.00    +0.000 A 
ATOM     29  C   UNL     1      -2.423  11.074  18.419  0.00  0.00    +0.000 A 
ATOM     30  C   UNL     1      -3.684  11.658  18.387  0.00  0.00    +0.000 A 
ATOM     31  C   UNL     1      -4.472  11.549  17.242  0.00  0.00    +0.000 A 
ATOM     32  C   UNL     1      -3.988  10.878  16.121  0.00  0.00    +0.000 A 
ATOM     33  C   UNL     1      -2.723  10.294  16.150  0.00  0.00    +0.000 A 
ENDBRANCH  27  28
ENDBRANCH  26  27
ENDBRANCH  25  26
ENDBRANCH  24  25
ENDBRANCH  22  24
ENDBRANCH  21  22
ENDBRANCH   1  21
TORSDOF 21
ENDMDL
MODEL 8
REMARK VINA RESULT:      -6.3      2.212      9.929
REMARK  Name = 
REMARK  25 active torsions:
REMARK  status: ('A' for Active; 'I' for Inactive)
REMARK    1  A    between atoms: C_1  and  C_2
REMARK    2  A    between atoms: C_2  and  C_3
REMARK    3  A    between atoms: C_3  and  C_4
REMARK    4  A    between atoms: C_4  and  C_5
REMARK    5  A    between atoms: C_5  and  C_6
REMARK    6  A    between atoms: C_6  and  C_7
REMARK    7  A    between atoms: C_7  and  C_8
REMARK    8  A    between atoms: C_8  and  C_9
REMARK    9  A    between atoms: C_9  and  C_10
REMARK   10  A    between atoms: C_10  and  C_11
REMARK   11  A    between atoms: C_11  and  C_12
REMARK   12  A    between atoms: C_12  and  O_14
REMARK   13  A    between atoms: O_14  and  C_15
REMARK   14  A    between atoms: C_15  and  C_16
REMARK   15  A    between atoms: C_15  and  C_29
REMARK   16  A    between atoms: C_16  and  C_17
REMARK   17  A    between atoms: C_17  and  O_19
REMARK   18  A    between atoms: O_19  and  C_20
REMARK   19  A    between atoms: C_20  and  C_21
REMARK   20  A    between atoms: C_21  and  O_22
REMARK   21  A    between atoms: O_22  and  C_23
REMARK   22  A    between atoms: C_29  and  N_30
REMARK   23  A    between atoms: N_30  and  C_31
REMARK   24  A    between atoms: N_30  and  C_32
REMARK   25  A    between atoms: N_30  and  C_33
REMARK                            x       y       z     vdW  Elec       q    Type
REMARK                         _______ _______ _______ _____ _____    ______ ____
ROOT
ATOM      1  C   UNL     1       2.935   5.512  18.297  0.00  0.00    +0.000 C 
ENDROOT
BRANCH   1   2
ATOM      2  O   UNL     1       2.052   6.643  18.008  0.00  0.00    +0.000 OA
BRANCH   2   3
ATOM      3  C   UNL     1       2.078   7.798  18.712  0.00  0.00    +0.000 C 
ATOM      4  O   UNL     1       2.133   7.846  19.934  0.00  0.00    +0.000 OA
BRANCH   3   5
ATOM      5  C   UNL     1       2.074   8.977  17.759  0.00  0.00    +0.000 C 
BRANCH   5   6
ATOM      6  C   UNL     1       1.528  10.222  18.432  0.00  0.00    +0.000 C 
BRANCH   6   7
ATOM      7  C   UNL     1       0.004  10.173  18.487  0.00  0.00    +0.000 C 
BRANCH   7   8
ATOM      8  C   UNL     1      -0.530  10.956  19.671  0.00  0.00    +0.000 C 
BRANCH   8   9
ATOM      9  C   UNL     1      -1.696  11.831  19.226  0.00  0.00    +0.000 C 
BRANCH   9  10
ATOM     10  C   UNL     1      -1.675  13.148  19.985  0.00  0.00    +0.000 C 
BRANCH  10  11
ATOM     11  C   UNL     1      -2.225  12.973  21.394  0.00  0.00    +0.000 C 
BRANCH  11  12
ATOM     12  C   UNL     1      -3.653  12.446  21.337  0.00  0.00    +0.000 C 
BRANCH  12  13
ATOM     13  C   UNL     1      -4.657  13.593  21.307  0.00  0.00    +0.000 C 
BRANCH  13  15
ATOM     14  C   UNL     1      -5.376  12.232  19.326  0.00  0.00    +0.000 C 
ATOM     15  C   UNL     1      -5.449  13.589  20.003  0.00  0.00    +0.000 C 
ENDBRANCH  13  15
ENDBRANCH  12  13
ENDBRANCH  11  12
ENDBRANCH  10  11
ENDBRANCH   9  10
ENDBRANCH   8   9
ENDBRANCH   7   8
ENDBRANCH   6   7
ENDBRANCH   5   6
ENDBRANCH   3   5
ENDBRANCH   2   3
ENDBRANCH   1   2
BRANCH   1  16
ATOM     16  C   UNL     1       2.350   4.131  17.837  0.00  0.00    +0.000 C 
BRANCH  16  17
ATOM     17  N   UNL     1       2.185   3.021  18.918  0.00  0.00    +0.000 N 
ATOM     18  C   UNL     1       3.080   1.803  18.728  0.00  0.00    +0.000 C 
ATOM     19  C   UNL     1       2.389   3.594  20.311  0.00  0.00    +0.000 C 
ATOM     20  C   UNL     1       0.739   2.491  18.822  0.00  0.00    +0.000 C 
ENDBRANCH  16  17
ENDBRANCH   1  16
BRANCH   1  21
ATOM     21  C   UNL     1       4.236   5.953  17.603  0.00  0.00    +0.000 C 
BRANCH  21  22
ATOM     22  C   UNL     1       5.387   5.880  18.579  0.00  0.00    +0.000 C 
ATOM     23  O   UNL     1       5.284   5.391  19.694  0.00  0.00    +0.000 OA
BRANCH  22  24
ATOM     24  O   UNL     1       6.553   6.180  17.962  0.00  0.00    +0.000 OA
BRANCH  24  25
ATOM     25  C   UNL     1       7.555   5.142  17.959  0.00  0.00    +0.000 C 
BRANCH  25  26
ATOM     26  C   UNL     1       7.465   4.481  16.586  0.00  0.00    +0.000 C 
BRANCH  26  27
ATOM     27  O   UNL     1       7.120   5.366  15.544  0.00  0.00    +0.000 OA
BRANCH  27  28
ATOM     28  C   UNL     1       6.843   4.797  14.337  0.00  0.00    +0.000 A 
ATOM     29  C   UNL     1       7.740   5.150  13.334  0.00  0.00    +0.000 A 
ATOM     30  C   UNL     1       7.559   4.676  12.040  0.00  0.00    +0.000 A 
ATOM     31  C   UNL     1       6.485   3.835  11.751  0.00  0.00    +0.000 A 
ATOM     32  C   UNL     1       5.609   3.448  12.762  0.00  0.00    +0.000 A 
ATOM     33  C   UNL     1       5.790   3.920  14.062  0.00  0.00    +0.000 A 
ENDBRANCH  27  28
ENDBRANCH  26  27
ENDBRANCH  25  26
ENDBRANCH  24  25
ENDBRANCH  22  24
ENDBRANCH  21  22
ENDBRANCH   1  21
TORSDOF 21
ENDMDL
MODEL 9
REMARK VINA RESULT:      -6.3      3.602      5.980
REMARK  Name = 
REMARK  25 active torsions:
REMARK  status: ('A' for Active; 'I' for Inactive)
REMARK    1  A    between atoms: C_1  and  C_2
REMARK    2  A    between atoms: C_2  and  C_3
REMARK    3  A    between atoms: C_3  and  C_4
REMARK    4  A    between atoms: C_4  and  C_5
REMARK    5  A    between atoms: C_5  and  C_6
REMARK    6  A    between atoms: C_6  and  C_7
REMARK    7  A    between atoms: C_7  and  C_8
REMARK    8  A    between atoms: C_8  and  C_9
REMARK    9  A    between atoms: C_9  and  C_10
REMARK   10  A    between atoms: C_10  and  C_11
REMARK   11  A    between atoms: C_11  and  C_12
REMARK   12  A    between atoms: C_12  and  O_14
REMARK   13  A    between atoms: O_14  and  C_15
REMARK   14  A    between atoms: C_15  and  C_16
REMARK   15  A    between atoms: C_15  and  C_29
REMARK   16  A    between atoms: C_16  and  C_17
REMARK   17  A    between atoms: C_17  and  O_19
REMARK   18  A    between atoms: O_19  and  C_20
REMARK   19  A    between atoms: C_20  and  C_21
REMARK   20  A    between atoms: C_21  and  O_22
REMARK   21  A    between atoms: O_22  and  C_23
REMARK   22  A    between atoms: C_29  and  N_30
REMARK   23  A    between atoms: N_30  and  C_31
REMARK   24  A    between atoms: N_30  and  C_32
REMARK   25  A    between atoms: N_30  and  C_33
REMARK                            x       y       z     vdW  Elec       q    Type
REMARK                         _______ _______ _______ _____ _____    ______ ____
ROOT
ATOM      1  C   UNL     1       3.858   4.389  18.749  0.00  0.00    +0.000 C 
ENDROOT
BRANCH   1   2
ATOM      2  O   UNL     1       4.983   3.783  18.035  0.00  0.00    +0.000 OA
BRANCH   2   3
ATOM      3  C   UNL     1       5.252   4.035  16.733  0.00  0.00    +0.000 C 
ATOM      4  O   UNL     1       4.389   4.198  15.881  0.00  0.00    +0.000 OA
BRANCH   3   5
ATOM      5  C   UNL     1       6.752   4.123  16.531  0.00  0.00    +0.000 C 
BRANCH   5   6
ATOM      6  C   UNL     1       7.258   5.529  16.793  0.00  0.00    +0.000 C 
BRANCH   6   7
ATOM      7  C   UNL     1       7.691   5.676  18.250  0.00  0.00    +0.000 C 
BRANCH   7   8
ATOM      8  C   UNL     1       8.130   7.095  18.554  0.00  0.00    +0.000 C 
BRANCH   8   9
ATOM      9  C   UNL     1       7.452   8.061  17.590  0.00  0.00    +0.000 C 
BRANCH   9  10
ATOM     10  C   UNL     1       8.145   9.413  17.638  0.00  0.00    +0.000 C 
BRANCH  10  11
ATOM     11  C   UNL     1       8.894   9.595  18.951  0.00  0.00    +0.000 C 
BRANCH  11  12
ATOM     12  C   UNL     1       9.753  10.852  18.894  0.00  0.00    +0.000 C 
BRANCH  12  13
ATOM     13  C   UNL     1       9.086  11.930  18.047  0.00  0.00    +0.000 C 
BRANCH  13  15
ATOM     14  C   UNL     1       8.944  13.607  19.907  0.00  0.00    +0.000 C 
ATOM     15  C   UNL     1       9.492  13.322  18.520  0.00  0.00    +0.000 C 
ENDBRANCH  13  15
ENDBRANCH  12  13
ENDBRANCH  11  12
ENDBRANCH  10  11
ENDBRANCH   9  10
ENDBRANCH   8   9
ENDBRANCH   7   8
ENDBRANCH   6   7
ENDBRANCH   5   6
ENDBRANCH   3   5
ENDBRANCH   2   3
ENDBRANCH   1   2
BRANCH   1  16
ATOM     16  C   UNL     1       3.402   3.569  20.006  0.00  0.00    +0.000 C 
BRANCH  16  17
ATOM     17  N   UNL     1       1.876   3.505  20.312  0.00  0.00    +0.000 N 
ATOM     18  C   UNL     1       1.486   2.552  21.435  0.00  0.00    +0.000 C 
ATOM     19  C   UNL     1       1.330   4.894  20.607  0.00  0.00    +0.000 C 
ATOM     20  C   UNL     1       1.170   2.968  19.050  0.00  0.00    +0.000 C 
ENDBRANCH  16  17
ENDBRANCH   1  16
BRANCH   1  21
ATOM     21  C   UNL     1       4.399   5.801  19.031  0.00  0.00    +0.000 C 
BRANCH  21  22
ATOM     22  C   UNL     1       3.628   6.817  18.221  0.00  0.00    +0.000 C 
ATOM     23  O   UNL     1       3.949   7.148  17.090  0.00  0.00    +0.000 OA
BRANCH  22  24
ATOM     24  O   UNL     1       2.439   7.089  18.807  0.00  0.00    +0.000 OA
BRANCH  24  25
ATOM     25  C   UNL     1       1.987   8.457  18.721  0.00  0.00    +0.000 C 
BRANCH  25  26
ATOM     26  C   UNL     1       1.184   8.710  19.995  0.00  0.00    +0.000 C 
BRANCH  26  27
ATOM     27  O   UNL     1       1.161  10.059  20.400  0.00  0.00    +0.000 OA
BRANCH  27  28
ATOM     28  C   UNL     1       0.407  10.904  19.640  0.00  0.00    +0.000 A 
ATOM     29  C   UNL     1       1.060  12.086  19.305  0.00  0.00    +0.000 A 
ATOM     30  C   UNL     1       0.398  13.060  18.566  0.00  0.00    +0.000 A 
ATOM     31  C   UNL     1      -0.914  12.845  18.149  0.00  0.00    +0.000 A 
ATOM     32  C   UNL     1      -1.556  11.646  18.450  0.00  0.00    +0.000 A 
ATOM     33  C   UNL     1      -0.894  10.667  19.189  0.00  0.00    +0.000 A 
ENDBRANCH  27  28
ENDBRANCH  26  27
ENDBRANCH  25  26
ENDBRANCH  24  25
ENDBRANCH  22  24
ENDBRANCH  21  22
ENDBRANCH   1  21
TORSDOF 21
ENDMDL
