MODEL 1
REMARK VINA RESULT:      -8.6      0.000      0.000
REMARK  Name = 
REMARK  6 active torsions:
REMARK  status: ('A' for Active; 'I' for Inactive)
REMARK    1  A    between atoms: C_4  and  C_5
REMARK    2  A    between atoms: C_5  and  N_6
REMARK    3  A    between atoms: N_6  and  S_7
REMARK    4  A    between atoms: S_7  and  C_10
REMARK    5  A    between atoms: N_18  and  C_19
REMARK    6  A    between atoms: C_22  and  N_23
REMARK                            x       y       z     vdW  Elec       q    Type
REMARK                         _______ _______ _______ _____ _____    ______ ____
ROOT
ATOM      1  O   UNL     1       1.521   4.707  20.648  0.00  0.00    +0.000 OA
ATOM      2  C   UNL     1       2.566   5.017  20.098  0.00  0.00    +0.000 C 
ATOM      3  O   UNL     1       3.562   4.099  19.908  0.00  0.00    +0.000 OA
ATOM      4  C   UNL     1       4.727   4.779  19.425  0.00  0.00    +0.000 C 
ATOM      5  C   UNL     1       4.205   6.093  18.891  0.00  0.00    +0.000 C 
ATOM      6  N   UNL     1       2.954   6.245  19.577  0.00  0.00    +0.000 N 
ENDROOT
BRANCH   6   7
ATOM      7  C   UNL     1       2.195   7.442  19.558  0.00  0.00    +0.000 A 
ATOM      8  C   UNL     1       2.064   8.209  18.398  0.00  0.00    +0.000 A 
ATOM      9  C   UNL     1       1.330   9.403  18.393  0.00  0.00    +0.000 A 
ATOM     10  C   UNL     1       0.693   9.891  19.539  0.00  0.00    +0.000 A 
ATOM     11  C   UNL     1       0.821   9.103  20.691  0.00  0.00    +0.000 A 
ATOM     12  F   UNL     1       0.215   9.467  21.835  0.00  0.00    +0.000 F 
ATOM     13  C   UNL     1       1.549   7.908  20.708  0.00  0.00    +0.000 A 
BRANCH  10  14
ATOM     14  N   UNL     1       0.049  11.109  19.498  0.00  0.00    +0.000 N 
ATOM     15  C   UNL     1       0.592  12.317  20.134  0.00  0.00    +0.000 C 
ATOM     16  C   UNL     1       0.326  13.533  19.208  0.00  0.00    +0.000 C 
ATOM     17  N   UNL     1      -1.084  13.688  18.788  0.00  0.00    +0.000 NA
ATOM     18  C   UNL     1      -1.576  12.419  18.212  0.00  0.00    +0.000 C 
ATOM     19  C   UNL     1      -1.376  11.212  19.152  0.00  0.00    +0.000 C 
ATOM     20  H   UNL     1      -1.134  14.413  18.074  0.00  0.00    +0.000 HD
ENDBRANCH  10  14
ENDBRANCH   6   7
BRANCH   4  21
ATOM     21  C   UNL     1       5.411   3.892  18.390  0.00  0.00    +0.000 C 
BRANCH  21  22
ATOM     22  N   UNL     1       5.411   4.501  17.047  0.00  0.00    +0.000 NA
ATOM     23  H   UNL     1       4.681   5.184  16.837  0.00  0.00    +0.000 HD
BRANCH  22  24
ATOM     24  S   UNL     1       6.895   5.137  16.525  0.00  0.00    +0.000 S 
ATOM     25  O   UNL     1       6.784   6.568  16.715  0.00  0.00    +0.000 OA
ATOM     26  O   UNL     1       7.958   4.371  17.133  0.00  0.00    +0.000 OA
BRANCH  24  27
ATOM     27  C   UNL     1       6.886   4.815  14.779  0.00  0.00    +0.000 A 
ATOM     28  C   UNL     1       7.809   5.469  13.953  0.00  0.00    +0.000 A 
ATOM     29  C   UNL     1       7.881   5.130  12.600  0.00  0.00    +0.000 A 
ATOM     30  C   UNL     1       7.039   4.144  12.091  0.00  0.00    +0.000 A 
ATOM     31  F   UNL     1       7.126   3.808  10.799  0.00  0.00    +0.000 F 
ATOM     32  C   UNL     1       6.123   3.489  12.910  0.00  0.00    +0.000 A 
ATOM     33  C   UNL     1       6.047   3.820  14.264  0.00  0.00    +0.000 A 
ENDBRANCH  24  27
ENDBRANCH  22  24
ENDBRANCH  21  22
ENDBRANCH   4  21
TORSDOF 6
ENDMDL
MODEL 2
REMARK VINA RESULT:      -8.5      0.883      1.228
REMARK  Name = 
REMARK  6 active torsions:
REMARK  status: ('A' for Active; 'I' for Inactive)
REMARK    1  A    between atoms: C_4  and  C_5
REMARK    2  A    between atoms: C_5  and  N_6
REMARK    3  A    between atoms: N_6  and  S_7
REMARK    4  A    between atoms: S_7  and  C_10
REMARK    5  A    between atoms: N_18  and  C_19
REMARK    6  A    between atoms: C_22  and  N_23
REMARK                            x       y       z     vdW  Elec       q    Type
REMARK                         _______ _______ _______ _____ _____    ______ ____
ROOT
ATOM      1  O   UNL     1       1.551   4.538  20.646  0.00  0.00    +0.000 OA
ATOM      2  C   UNL     1       2.597   4.858  20.104  0.00  0.00    +0.000 C 
ATOM      3  O   UNL     1       3.583   3.937  19.875  0.00  0.00    +0.000 OA
ATOM      4  C   UNL     1       4.753   4.623  19.412  0.00  0.00    +0.000 C 
ATOM      5  C   UNL     1       4.241   5.961  18.929  0.00  0.00    +0.000 C 
ATOM      6  N   UNL     1       2.995   6.100  19.625  0.00  0.00    +0.000 N 
ENDROOT
BRANCH   6   7
ATOM      7  C   UNL     1       2.247   7.304  19.653  0.00  0.00    +0.000 A 
ATOM      8  C   UNL     1       1.541   7.704  20.790  0.00  0.00    +0.000 A 
ATOM      9  C   UNL     1       0.787   8.885  20.801  0.00  0.00    +0.000 A 
ATOM     10  C   UNL     1       0.697   9.723  19.685  0.00  0.00    +0.000 A 
ATOM     11  C   UNL     1       1.423   9.317  18.557  0.00  0.00    +0.000 A 
ATOM     12  F   UNL     1       1.431  10.073  17.446  0.00  0.00    +0.000 F 
ATOM     13  C   UNL     1       2.182   8.141  18.534  0.00  0.00    +0.000 A 
BRANCH  10  14
ATOM     14  N   UNL     1      -0.121  10.832  19.726  0.00  0.00    +0.000 N 
ATOM     15  C   UNL     1       0.084  11.936  20.672  0.00  0.00    +0.000 C 
ATOM     16  C   UNL     1      -0.202  13.277  19.946  0.00  0.00    +0.000 C 
ATOM     17  N   UNL     1      -1.514  13.339  19.265  0.00  0.00    +0.000 NA
ATOM     18  C   UNL     1      -1.672  12.168  18.377  0.00  0.00    +0.000 C 
ATOM     19  C   UNL     1      -1.453  10.825  19.104  0.00  0.00    +0.000 C 
ATOM     20  H   UNL     1      -1.550  14.186  18.700  0.00  0.00    +0.000 HD
ENDBRANCH  10  14
ENDBRANCH   6   7
BRANCH   4  21
ATOM     21  C   UNL     1       5.423   3.768  18.343  0.00  0.00    +0.000 C 
BRANCH  21  22
ATOM     22  N   UNL     1       5.439   4.433  17.026  0.00  0.00    +0.000 NA
ATOM     23  H   UNL     1       4.721   5.136  16.843  0.00  0.00    +0.000 HD
BRANCH  22  24
ATOM     24  S   UNL     1       6.934   5.065  16.536  0.00  0.00    +0.000 S 
ATOM     25  O   UNL     1       6.845   6.489  16.782  0.00  0.00    +0.000 OA
ATOM     26  O   UNL     1       7.983   4.259  17.117  0.00  0.00    +0.000 OA
BRANCH  24  27
ATOM     27  C   UNL     1       6.928   4.813  14.778  0.00  0.00    +0.000 A 
ATOM     28  C   UNL     1       7.854   5.497  13.980  0.00  0.00    +0.000 A 
ATOM     29  C   UNL     1       7.927   5.212  12.615  0.00  0.00    +0.000 A 
ATOM     30  C   UNL     1       7.085   4.249  12.067  0.00  0.00    +0.000 A 
ATOM     31  F   UNL     1       7.174   3.965  10.762  0.00  0.00    +0.000 F 
ATOM     32  C   UNL     1       6.166   3.564  12.857  0.00  0.00    +0.000 A 
ATOM     33  C   UNL     1       6.088   3.840  14.222  0.00  0.00    +0.000 A 
ENDBRANCH  24  27
ENDBRANCH  22  24
ENDBRANCH  21  22
ENDBRANCH   4  21
TORSDOF 6
ENDMDL
MODEL 3
REMARK VINA RESULT:      -8.5      0.998      1.326
REMARK  Name = 
REMARK  6 active torsions:
REMARK  status: ('A' for Active; 'I' for Inactive)
REMARK    1  A    between atoms: C_4  and  C_5
REMARK    2  A    between atoms: C_5  and  N_6
REMARK    3  A    between atoms: N_6  and  S_7
REMARK    4  A    between atoms: S_7  and  C_10
REMARK    5  A    between atoms: N_18  and  C_19
REMARK    6  A    between atoms: C_22  and  N_23
REMARK                            x       y       z     vdW  Elec       q    Type
REMARK                         _______ _______ _______ _____ _____    ______ ____
ROOT
ATOM      1  O   UNL     1       1.305   4.914  17.497  0.00  0.00    +0.000 OA
ATOM      2  C   UNL     1       2.311   5.014  18.180  0.00  0.00    +0.000 C 
ATOM      3  O   UNL     1       3.171   3.960  18.329  0.00  0.00    +0.000 OA
ATOM      4  C   UNL     1       4.143   4.298  19.326  0.00  0.00    +0.000 C 
ATOM      5  C   UNL     1       4.085   5.806  19.416  0.00  0.00    +0.000 C 
ATOM      6  N   UNL     1       2.786   6.110  18.890  0.00  0.00    +0.000 N 
ENDROOT
BRANCH   6   7
ATOM      7  C   UNL     1       2.194   7.395  18.970  0.00  0.00    +0.000 A 
ATOM      8  C   UNL     1       2.143   8.251  17.867  0.00  0.00    +0.000 A 
ATOM      9  C   UNL     1       1.576   9.529  17.961  0.00  0.00    +0.000 A 
ATOM     10  C   UNL     1       1.034  10.018  19.154  0.00  0.00    +0.000 A 
ATOM     11  C   UNL     1       1.078   9.143  20.248  0.00  0.00    +0.000 A 
ATOM     12  F   UNL     1       0.549   9.505  21.430  0.00  0.00    +0.000 F 
ATOM     13  C   UNL     1       1.639   7.863  20.166  0.00  0.00    +0.000 A 
BRANCH  10  14
ATOM     14  N   UNL     1       0.559  11.310  19.210  0.00  0.00    +0.000 N 
ATOM     15  C   UNL     1      -0.759  11.696  18.689  0.00  0.00    +0.000 C 
ATOM     16  C   UNL     1      -1.398  12.728  19.656  0.00  0.00    +0.000 C 
ATOM     17  N   UNL     1      -0.539  13.891  19.968  0.00  0.00    +0.000 NA
ATOM     18  C   UNL     1       0.785  13.425  20.430  0.00  0.00    +0.000 C 
ATOM     19  C   UNL     1       1.459  12.449  19.443  0.00  0.00    +0.000 C 
ATOM     20  H   UNL     1      -0.976  14.429  20.715  0.00  0.00    +0.000 HD
ENDBRANCH  10  14
ENDBRANCH   6   7
BRANCH   4  21
ATOM     21  C   UNL     1       5.492   3.732  18.897  0.00  0.00    +0.000 C 
BRANCH  21  22
ATOM     22  N   UNL     1       5.700   3.828  17.440  0.00  0.00    +0.000 NA
ATOM     23  H   UNL     1       4.891   4.059  16.862  0.00  0.00    +0.000 HD
BRANCH  22  24
ATOM     24  S   UNL     1       7.000   4.797  16.942  0.00  0.00    +0.000 S 
ATOM     25  O   UNL     1       6.642   6.144  17.331  0.00  0.00    +0.000 OA
ATOM     26  O   UNL     1       8.227   4.179  17.389  0.00  0.00    +0.000 OA
BRANCH  24  27
ATOM     27  C   UNL     1       6.926   4.702  15.171  0.00  0.00    +0.000 A 
ATOM     28  C   UNL     1       7.831   5.443  14.401  0.00  0.00    +0.000 A 
ATOM     29  C   UNL     1       7.850   5.280  13.015  0.00  0.00    +0.000 A 
ATOM     30  C   UNL     1       6.974   4.378  12.416  0.00  0.00    +0.000 A 
ATOM     31  F   UNL     1       7.011   4.210  11.089  0.00  0.00    +0.000 F 
ATOM     32  C   UNL     1       6.075   3.636  13.177  0.00  0.00    +0.000 A 
ATOM     33  C   UNL     1       6.051   3.792  14.563  0.00  0.00    +0.000 A 
ENDBRANCH  24  27
ENDBRANCH  22  24
ENDBRANCH  21  22
ENDBRANCH   4  21
TORSDOF 6
ENDMDL
MODEL 4
REMARK VINA RESULT:      -8.4      0.783      1.215
REMARK  Name = 
REMARK  6 active torsions:
REMARK  status: ('A' for Active; 'I' for Inactive)
REMARK    1  A    between atoms: C_4  and  C_5
REMARK    2  A    between atoms: C_5  and  N_6
REMARK    3  A    between atoms: N_6  and  S_7
REMARK    4  A    between atoms: S_7  and  C_10
REMARK    5  A    between atoms: N_18  and  C_19
REMARK    6  A    between atoms: C_22  and  N_23
REMARK                            x       y       z     vdW  Elec       q    Type
REMARK                         _______ _______ _______ _____ _____    ______ ____
ROOT
ATOM      1  O   UNL     1       1.667   4.537  18.308  0.00  0.00    +0.000 OA
ATOM      2  C   UNL     1       2.777   4.924  18.636  0.00  0.00    +0.000 C 
ATOM      3  O   UNL     1       3.844   4.068  18.662  0.00  0.00    +0.000 OA
ATOM      4  C   UNL     1       4.957   4.740  19.264  0.00  0.00    +0.000 C 
ATOM      5  C   UNL     1       4.614   6.209  19.160  0.00  0.00    +0.000 C 
ATOM      6  N   UNL     1       3.188   6.197  19.013  0.00  0.00    +0.000 N 
ENDROOT
BRANCH   6   7
ATOM      7  C   UNL     1       2.386   7.364  19.091  0.00  0.00    +0.000 A 
ATOM      8  C   UNL     1       2.153   8.170  17.975  0.00  0.00    +0.000 A 
ATOM      9  C   UNL     1       1.379   9.334  18.065  0.00  0.00    +0.000 A 
ATOM     10  C   UNL     1       0.799   9.752  19.268  0.00  0.00    +0.000 A 
ATOM     11  C   UNL     1       1.029   8.925  20.376  0.00  0.00    +0.000 A 
ATOM     12  F   UNL     1       0.484   9.220  21.569  0.00  0.00    +0.000 F 
ATOM     13  C   UNL     1       1.799   7.759  20.297  0.00  0.00    +0.000 A 
BRANCH  10  14
ATOM     14  N   UNL     1       0.111  10.945  19.318  0.00  0.00    +0.000 N 
ATOM     15  C   UNL     1       0.710  12.188  19.821  0.00  0.00    +0.000 C 
ATOM     16  C   UNL     1       0.235  13.368  18.933  0.00  0.00    +0.000 C 
ATOM     17  N   UNL     1      -1.232  13.462  18.769  0.00  0.00    +0.000 NA
ATOM     18  C   UNL     1      -1.768  12.162  18.317  0.00  0.00    +0.000 C 
ATOM     19  C   UNL     1      -1.356  10.989  19.231  0.00  0.00    +0.000 C 
ATOM     20  H   UNL     1      -1.437  14.166  18.061  0.00  0.00    +0.000 HD
ENDBRANCH  10  14
ENDBRANCH   6   7
BRANCH   4  21
ATOM     21  C   UNL     1       6.227   4.324  18.531  0.00  0.00    +0.000 C 
BRANCH  21  22
ATOM     22  N   UNL     1       6.004   4.149  17.084  0.00  0.00    +0.000 NA
ATOM     23  H   UNL     1       5.122   3.728  16.789  0.00  0.00    +0.000 HD
BRANCH  22  24
ATOM     24  S   UNL     1       6.282   5.519  16.123  0.00  0.00    +0.000 S 
ATOM     25  O   UNL     1       5.000   6.185  16.029  0.00  0.00    +0.000 OA
ATOM     26  O   UNL     1       7.454   6.198  16.625  0.00  0.00    +0.000 OA
BRANCH  24  27
ATOM     27  C   UNL     1       6.659   4.832  14.530  0.00  0.00    +0.000 A 
ATOM     28  C   UNL     1       5.882   3.779  14.031  0.00  0.00    +0.000 A 
ATOM     29  C   UNL     1       6.103   3.317  12.732  0.00  0.00    +0.000 A 
ATOM     30  C   UNL     1       7.088   3.912  11.948  0.00  0.00    +0.000 A 
ATOM     31  F   UNL     1       7.282   3.479  10.697  0.00  0.00    +0.000 F 
ATOM     32  C   UNL     1       7.860   4.961  12.438  0.00  0.00    +0.000 A 
ATOM     33  C   UNL     1       7.644   5.431  13.734  0.00  0.00    +0.000 A 
ENDBRANCH  24  27
ENDBRANCH  22  24
ENDBRANCH  21  22
ENDBRANCH   4  21
TORSDOF 6
ENDMDL
MODEL 5
REMARK VINA RESULT:      -8.3      1.341      1.832
REMARK  Name = 
REMARK  6 active torsions:
REMARK  status: ('A' for Active; 'I' for Inactive)
REMARK    1  A    between atoms: C_4  and  C_5
REMARK    2  A    between atoms: C_5  and  N_6
REMARK    3  A    between atoms: N_6  and  S_7
REMARK    4  A    between atoms: S_7  and  C_10
REMARK    5  A    between atoms: N_18  and  C_19
REMARK    6  A    between atoms: C_22  and  N_23
REMARK                            x       y       z     vdW  Elec       q    Type
REMARK                         _______ _______ _______ _____ _____    ______ ____
ROOT
ATOM      1  O   UNL     1       1.303   4.905  17.578  0.00  0.00    +0.000 OA
ATOM      2  C   UNL     1       2.322   4.939  18.248  0.00  0.00    +0.000 C 
ATOM      3  O   UNL     1       3.192   3.883  18.264  0.00  0.00    +0.000 OA
ATOM      4  C   UNL     1       4.182   4.119  19.272  0.00  0.00    +0.000 C 
ATOM      5  C   UNL     1       4.115   5.607  19.529  0.00  0.00    +0.000 C 
ATOM      6  N   UNL     1       2.804   5.956  19.064  0.00  0.00    +0.000 N 
ENDROOT
BRANCH   6   7
ATOM      7  C   UNL     1       2.205   7.219  19.296  0.00  0.00    +0.000 A 
ATOM      8  C   UNL     1       1.628   7.543  20.526  0.00  0.00    +0.000 A 
ATOM      9  C   UNL     1       1.018   8.786  20.740  0.00  0.00    +0.000 A 
ATOM     10  C   UNL     1       0.951   9.765  19.744  0.00  0.00    +0.000 A 
ATOM     11  C   UNL     1       1.547   9.432  18.519  0.00  0.00    +0.000 A 
ATOM     12  F   UNL     1       1.568  10.319  17.510  0.00  0.00    +0.000 F 
ATOM     13  C   UNL     1       2.162   8.195  18.295  0.00  0.00    +0.000 A 
BRANCH  10  14
ATOM     14  N   UNL     1       0.272  10.941  19.983  0.00  0.00    +0.000 N 
ATOM     15  C   UNL     1      -0.800  11.432  19.107  0.00  0.00    +0.000 C 
ATOM     16  C   UNL     1      -1.924  12.042  19.986  0.00  0.00    +0.000 C 
ATOM     17  N   UNL     1      -1.461  13.059  20.956  0.00  0.00    +0.000 NA
ATOM     18  C   UNL     1      -0.348  12.514  21.759  0.00  0.00    +0.000 C 
ATOM     19  C   UNL     1       0.806  11.963  20.895  0.00  0.00    +0.000 C 
ATOM     20  H   UNL     1      -2.233  13.290  21.579  0.00  0.00    +0.000 HD
ENDBRANCH  10  14
ENDBRANCH   6   7
BRANCH   4  21
ATOM     21  C   UNL     1       5.526   3.616  18.758  0.00  0.00    +0.000 C 
BRANCH  21  22
ATOM     22  N   UNL     1       5.683   3.828  17.307  0.00  0.00    +0.000 NA
ATOM     23  H   UNL     1       4.857   4.116  16.780  0.00  0.00    +0.000 HD
BRANCH  22  24
ATOM     24  S   UNL     1       6.980   4.817  16.841  0.00  0.00    +0.000 S 
ATOM     25  O   UNL     1       6.590   6.159  17.217  0.00  0.00    +0.000 OA
ATOM     26  O   UNL     1       8.204   4.219  17.321  0.00  0.00    +0.000 OA
BRANCH  24  27
ATOM     27  C   UNL     1       6.953   4.717  15.068  0.00  0.00    +0.000 A 
ATOM     28  C   UNL     1       7.887   5.447  14.322  0.00  0.00    +0.000 A 
ATOM     29  C   UNL     1       7.942   5.279  12.937  0.00  0.00    +0.000 A 
ATOM     30  C   UNL     1       7.074   4.385  12.316  0.00  0.00    +0.000 A 
ATOM     31  F   UNL     1       7.145   4.212  10.991  0.00  0.00    +0.000 F 
ATOM     32  C   UNL     1       6.147   3.654  13.054  0.00  0.00    +0.000 A 
ATOM     33  C   UNL     1       6.086   3.814  14.439  0.00  0.00    +0.000 A 
ENDBRANCH  24  27
ENDBRANCH  22  24
ENDBRANCH  21  22
ENDBRANCH   4  21
TORSDOF 6
ENDMDL
MODEL 6
REMARK VINA RESULT:      -8.2      1.070      1.676
REMARK  Name = 
REMARK  6 active torsions:
REMARK  status: ('A' for Active; 'I' for Inactive)
REMARK    1  A    between atoms: C_4  and  C_5
REMARK    2  A    between atoms: C_5  and  N_6
REMARK    3  A    between atoms: N_6  and  S_7
REMARK    4  A    between atoms: S_7  and  C_10
REMARK    5  A    between atoms: N_18  and  C_19
REMARK    6  A    between atoms: C_22  and  N_23
REMARK                            x       y       z     vdW  Elec       q    Type
REMARK                         _______ _______ _______ _____ _____    ______ ____
ROOT
ATOM      1  O   UNL     1       1.431   4.889  17.593  0.00  0.00    +0.000 OA
ATOM      2  C   UNL     1       2.473   5.015  18.216  0.00  0.00    +0.000 C 
ATOM      3  O   UNL     1       3.423   4.030  18.209  0.00  0.00    +0.000 OA
ATOM      4  C   UNL     1       4.434   4.362  19.167  0.00  0.00    +0.000 C 
ATOM      5  C   UNL     1       4.263   5.845  19.402  0.00  0.00    +0.000 C 
ATOM      6  N   UNL     1       2.909   6.081  18.992  0.00  0.00    +0.000 N 
ENDROOT
BRANCH   6   7
ATOM      7  C   UNL     1       2.224   7.299  19.230  0.00  0.00    +0.000 A 
ATOM      8  C   UNL     1       2.072   8.264  18.231  0.00  0.00    +0.000 A 
ATOM      9  C   UNL     1       1.413   9.475  18.482  0.00  0.00    +0.000 A 
ATOM     10  C   UNL     1       0.874   9.785  19.735  0.00  0.00    +0.000 A 
ATOM     11  C   UNL     1       1.021   8.802  20.723  0.00  0.00    +0.000 A 
ATOM     12  F   UNL     1       0.506   8.989  21.950  0.00  0.00    +0.000 F 
ATOM     13  C   UNL     1       1.675   7.587  20.484  0.00  0.00    +0.000 A 
BRANCH  10  14
ATOM     14  N   UNL     1       0.304  11.022  19.948  0.00  0.00    +0.000 N 
ATOM     15  C   UNL     1      -1.138  11.266  19.812  0.00  0.00    +0.000 C 
ATOM     16  C   UNL     1      -1.590  12.232  20.940  0.00  0.00    +0.000 C 
ATOM     17  N   UNL     1      -0.801  13.479  21.033  0.00  0.00    +0.000 NA
ATOM     18  C   UNL     1       0.639  13.156  21.108  0.00  0.00    +0.000 C 
ATOM     19  C   UNL     1       1.114  12.249  19.953  0.00  0.00    +0.000 C 
ATOM     20  H   UNL     1      -1.071  13.974  21.882  0.00  0.00    +0.000 HD
ENDBRANCH  10  14
ENDBRANCH   6   7
BRANCH   4  21
ATOM     21  C   UNL     1       5.790   3.954  18.601  0.00  0.00    +0.000 C 
BRANCH  21  22
ATOM     22  N   UNL     1       5.795   3.936  17.126  0.00  0.00    +0.000 NA
ATOM     23  H   UNL     1       4.939   3.640  16.654  0.00  0.00    +0.000 HD
BRANCH  22  24
ATOM     24  S   UNL     1       6.354   5.349  16.372  0.00  0.00    +0.000 S 
ATOM     25  O   UNL     1       5.206   6.230  16.317  0.00  0.00    +0.000 OA
ATOM     26  O   UNL     1       7.587   5.748  17.009  0.00  0.00    +0.000 OA
BRANCH  24  27
ATOM     27  C   UNL     1       6.713   4.815  14.718  0.00  0.00    +0.000 A 
ATOM     28  C   UNL     1       5.926   3.818  14.128  0.00  0.00    +0.000 A 
ATOM     29  C   UNL     1       6.134   3.481  12.788  0.00  0.00    +0.000 A 
ATOM     30  C   UNL     1       7.115   4.144  12.056  0.00  0.00    +0.000 A 
ATOM     31  F   UNL     1       7.295   3.831  10.767  0.00  0.00    +0.000 F 
ATOM     32  C   UNL     1       7.897   5.138  12.637  0.00  0.00    +0.000 A 
ATOM     33  C   UNL     1       7.694   5.483  13.974  0.00  0.00    +0.000 A 
ENDBRANCH  24  27
ENDBRANCH  22  24
ENDBRANCH  21  22
ENDBRANCH   4  21
TORSDOF 6
ENDMDL
MODEL 7
REMARK VINA RESULT:      -8.1      5.169      9.538
REMARK  Name = 
REMARK  6 active torsions:
REMARK  status: ('A' for Active; 'I' for Inactive)
REMARK    1  A    between atoms: C_4  and  C_5
REMARK    2  A    between atoms: C_5  and  N_6
REMARK    3  A    between atoms: N_6  and  S_7
REMARK    4  A    between atoms: S_7  and  C_10
REMARK    5  A    between atoms: N_18  and  C_19
REMARK    6  A    between atoms: C_22  and  N_23
REMARK                            x       y       z     vdW  Elec       q    Type
REMARK                         _______ _______ _______ _____ _____    ______ ____
ROOT
ATOM      1  O   UNL     1       1.805  10.698  18.022  0.00  0.00    +0.000 OA
ATOM      2  C   UNL     1       1.406  10.607  19.172  0.00  0.00    +0.000 C 
ATOM      3  O   UNL     1       0.873  11.687  19.821  0.00  0.00    +0.000 OA
ATOM      4  C   UNL     1       0.675  11.344  21.198  0.00  0.00    +0.000 C 
ATOM      5  C   UNL     1       0.685   9.832  21.216  0.00  0.00    +0.000 C 
ATOM      6  N   UNL     1       1.388   9.500  20.011  0.00  0.00    +0.000 N 
ENDROOT
BRANCH   6   7
ATOM      7  C   UNL     1       1.831   8.189  19.703  0.00  0.00    +0.000 A 
ATOM      8  C   UNL     1       2.417   7.882  18.473  0.00  0.00    +0.000 A 
ATOM      9  C   UNL     1       2.832   6.579  18.168  0.00  0.00    +0.000 A 
ATOM     10  C   UNL     1       2.685   5.520  19.070  0.00  0.00    +0.000 A 
ATOM     11  C   UNL     1       2.109   5.846  20.305  0.00  0.00    +0.000 A 
ATOM     12  F   UNL     1       1.958   4.905  21.254  0.00  0.00    +0.000 F 
ATOM     13  C   UNL     1       1.693   7.144  20.622  0.00  0.00    +0.000 A 
BRANCH  10  14
ATOM     14  N   UNL     1       3.039   4.243  18.689  0.00  0.00    +0.000 N 
ATOM     15  C   UNL     1       4.303   3.615  19.097  0.00  0.00    +0.000 C 
ATOM     16  C   UNL     1       4.037   2.120  19.419  0.00  0.00    +0.000 C 
ATOM     17  N   UNL     1       3.344   1.375  18.346  0.00  0.00    +0.000 NA
ATOM     18  C   UNL     1       2.116   2.096  17.949  0.00  0.00    +0.000 C 
ATOM     19  C   UNL     1       2.378   3.567  17.564  0.00  0.00    +0.000 C 
ATOM     20  H   UNL     1       3.084   0.456  18.701  0.00  0.00    +0.000 HD
ENDBRANCH  10  14
ENDBRANCH   6   7
BRANCH   4  21
ATOM     21  C   UNL     1      -0.625  11.982  21.674  0.00  0.00    +0.000 C 
BRANCH  21  22
ATOM     22  N   UNL     1      -1.802  11.442  20.970  0.00  0.00    +0.000 NA
ATOM     23  H   UNL     1      -2.487  10.924  21.523  0.00  0.00    +0.000 HD
BRANCH  22  24
ATOM     24  S   UNL     1      -2.640  12.538  19.983  0.00  0.00    +0.000 S 
ATOM     25  O   UNL     1      -3.953  12.662  20.580  0.00  0.00    +0.000 OA
ATOM     26  O   UNL     1      -1.796  13.688  19.761  0.00  0.00    +0.000 OA
BRANCH  24  27
ATOM     27  C   UNL     1      -2.817  11.656  18.452  0.00  0.00    +0.000 A 
ATOM     28  C   UNL     1      -1.794  10.800  18.026  0.00  0.00    +0.000 A 
ATOM     29  C   UNL     1      -1.982  10.019  16.884  0.00  0.00    +0.000 A 
ATOM     30  C   UNL     1      -3.185  10.097  16.187  0.00  0.00    +0.000 A 
ATOM     31  F   UNL     1      -3.368   9.331  15.105  0.00  0.00    +0.000 F 
ATOM     32  C   UNL     1      -4.206  10.944  16.609  0.00  0.00    +0.000 A 
ATOM     33  C   UNL     1      -4.028  11.726  17.751  0.00  0.00    +0.000 A 
ENDBRANCH  24  27
ENDBRANCH  22  24
ENDBRANCH  21  22
ENDBRANCH   4  21
TORSDOF 6
ENDMDL
MODEL 8
REMARK VINA RESULT:      -8.1      5.127      9.687
REMARK  Name = 
REMARK  6 active torsions:
REMARK  status: ('A' for Active; 'I' for Inactive)
REMARK    1  A    between atoms: C_4  and  C_5
REMARK    2  A    between atoms: C_5  and  N_6
REMARK    3  A    between atoms: N_6  and  S_7
REMARK    4  A    between atoms: S_7  and  C_10
REMARK    5  A    between atoms: N_18  and  C_19
REMARK    6  A    between atoms: C_22  and  N_23
REMARK                            x       y       z     vdW  Elec       q    Type
REMARK                         _______ _______ _______ _____ _____    ______ ____
ROOT
ATOM      1  O   UNL     1       1.288   9.526  22.646  0.00  0.00    +0.000 OA
ATOM      2  C   UNL     1       0.995  10.043  21.580  0.00  0.00    +0.000 C 
ATOM      3  O   UNL     1       0.461  11.301  21.529  0.00  0.00    +0.000 OA
ATOM      4  C   UNL     1       0.042  11.567  20.185  0.00  0.00    +0.000 C 
ATOM      5  C   UNL     1       0.797  10.562  19.346  0.00  0.00    +0.000 C 
ATOM      6  N   UNL     1       1.130   9.538  20.293  0.00  0.00    +0.000 N 
ENDROOT
BRANCH   6   7
ATOM      7  C   UNL     1       1.663   8.278  19.922  0.00  0.00    +0.000 A 
ATOM      8  C   UNL     1       2.331   8.091  18.710  0.00  0.00    +0.000 A 
ATOM      9  C   UNL     1       2.835   6.836  18.341  0.00  0.00    +0.000 A 
ATOM     10  C   UNL     1       2.700   5.709  19.158  0.00  0.00    +0.000 A 
ATOM     11  C   UNL     1       2.040   5.915  20.378  0.00  0.00    +0.000 A 
ATOM     12  F   UNL     1       1.892   4.903  21.250  0.00  0.00    +0.000 F 
ATOM     13  C   UNL     1       1.535   7.163  20.758  0.00  0.00    +0.000 A 
BRANCH  10  14
ATOM     14  N   UNL     1       3.146   4.483  18.713  0.00  0.00    +0.000 N 
ATOM     15  C   UNL     1       4.418   3.894  19.151  0.00  0.00    +0.000 C 
ATOM     16  C   UNL     1       4.219   2.368  19.352  0.00  0.00    +0.000 C 
ATOM     17  N   UNL     1       3.630   1.667  18.191  0.00  0.00    +0.000 NA
ATOM     18  C   UNL     1       2.388   2.349  17.773  0.00  0.00    +0.000 C 
ATOM     19  C   UNL     1       2.588   3.856  17.506  0.00  0.00    +0.000 C 
ATOM     20  H   UNL     1       3.402   0.712  18.467  0.00  0.00    +0.000 HD
ENDBRANCH  10  14
ENDBRANCH   6   7
BRANCH   4  21
ATOM     21  C   UNL     1       0.343  13.027  19.864  0.00  0.00    +0.000 C 
BRANCH  21  22
ATOM     22  N   UNL     1       0.510  13.842  21.082  0.00  0.00    +0.000 NA
ATOM     23  H   UNL     1       0.187  13.445  21.965  0.00  0.00    +0.000 HD
BRANCH  22  24
ATOM     24  S   UNL     1       2.058  14.490  21.329  0.00  0.00    +0.000 S 
ATOM     25  O   UNL     1       1.909  15.426  22.423  0.00  0.00    +0.000 OA
ATOM     26  O   UNL     1       3.005  13.400  21.386  0.00  0.00    +0.000 OA
BRANCH  24  27
ATOM     27  C   UNL     1       2.353  15.423  19.848  0.00  0.00    +0.000 A 
ATOM     28  C   UNL     1       3.309  14.974  18.927  0.00  0.00    +0.000 A 
ATOM     29  C   UNL     1       3.458  15.642  17.710  0.00  0.00    +0.000 A 
ATOM     30  C   UNL     1       2.651  16.741  17.424  0.00  0.00    +0.000 A 
ATOM     31  F   UNL     1       2.784  17.365  16.248  0.00  0.00    +0.000 F 
ATOM     32  C   UNL     1       1.697  17.188  18.334  0.00  0.00    +0.000 A 
ATOM     33  C   UNL     1       1.540  16.525  19.552  0.00  0.00    +0.000 A 
ENDBRANCH  24  27
ENDBRANCH  22  24
ENDBRANCH  21  22
ENDBRANCH   4  21
TORSDOF 6
ENDMDL
MODEL 9
REMARK VINA RESULT:      -8.0      5.221     11.375
REMARK  Name = 
REMARK  6 active torsions:
REMARK  status: ('A' for Active; 'I' for Inactive)
REMARK    1  A    between atoms: C_4  and  C_5
REMARK    2  A    between atoms: C_5  and  N_6
REMARK    3  A    between atoms: N_6  and  S_7
REMARK    4  A    between atoms: S_7  and  C_10
REMARK    5  A    between atoms: N_18  and  C_19
REMARK    6  A    between atoms: C_22  and  N_23
REMARK                            x       y       z     vdW  Elec       q    Type
REMARK                         _______ _______ _______ _____ _____    ______ ____
ROOT
ATOM      1  O   UNL     1      -1.323   9.911  18.289  0.00  0.00    +0.000 OA
ATOM      2  C   UNL     1      -0.531  10.634  18.872  0.00  0.00    +0.000 C 
ATOM      3  O   UNL     1      -0.871  11.910  19.229  0.00  0.00    +0.000 OA
ATOM      4  C   UNL     1       0.299  12.579  19.714  0.00  0.00    +0.000 C 
ATOM      5  C   UNL     1       1.255  11.462  20.066  0.00  0.00    +0.000 C 
ATOM      6  N   UNL     1       0.768  10.363  19.284  0.00  0.00    +0.000 N 
ENDROOT
BRANCH   6   7
ATOM      7  C   UNL     1       1.478   9.146  19.122  0.00  0.00    +0.000 A 
ATOM      8  C   UNL     1       2.229   8.882  17.975  0.00  0.00    +0.000 A 
ATOM      9  C   UNL     1       2.909   7.667  17.813  0.00  0.00    +0.000 A 
ATOM     10  C   UNL     1       2.876   6.659  18.782  0.00  0.00    +0.000 A 
ATOM     11  C   UNL     1       2.130   6.944  19.934  0.00  0.00    +0.000 A 
ATOM     12  F   UNL     1       2.066   6.055  20.939  0.00  0.00    +0.000 F 
ATOM     13  C   UNL     1       1.449   8.155  20.108  0.00  0.00    +0.000 A 
BRANCH  10  14
ATOM     14  N   UNL     1       3.499   5.454  18.537  0.00  0.00    +0.000 N 
ATOM     15  C   UNL     1       4.750   5.059  19.198  0.00  0.00    +0.000 C 
ATOM     16  C   UNL     1       4.678   3.548  19.543  0.00  0.00    +0.000 C 
ATOM     17  N   UNL     1       4.328   2.674  18.401  0.00  0.00    +0.000 NA
ATOM     18  C   UNL     1       3.095   3.166  17.754  0.00  0.00    +0.000 C 
ATOM     19  C   UNL     1       3.180   4.653  17.347  0.00  0.00    +0.000 C 
ATOM     20  H   UNL     1       4.161   1.731  18.751  0.00  0.00    +0.000 HD
ENDBRANCH  10  14
ENDBRANCH   6   7
BRANCH   4  21
ATOM     21  C   UNL     1      -0.103  13.471  20.883  0.00  0.00    +0.000 C 
BRANCH  21  22
ATOM     22  N   UNL     1      -1.489  13.224  21.322  0.00  0.00    +0.000 NA
ATOM     23  H   UNL     1      -2.081  12.650  20.719  0.00  0.00    +0.000 HD
BRANCH  22  24
ATOM     24  S   UNL     1      -1.672  12.676  22.917  0.00  0.00    +0.000 S 
ATOM     25  O   UNL     1      -1.315  11.273  22.881  0.00  0.00    +0.000 OA
ATOM     26  O   UNL     1      -1.005  13.606  23.798  0.00  0.00    +0.000 OA
BRANCH  24  27
ATOM     27  C   UNL     1      -3.422  12.787  23.190  0.00  0.00    +0.000 A 
ATOM     28  C   UNL     1      -4.278  13.007  22.102  0.00  0.00    +0.000 A 
ATOM     29  C   UNL     1      -5.660  12.979  22.299  0.00  0.00    +0.000 A 
ATOM     30  C   UNL     1      -6.170  12.727  23.569  0.00  0.00    +0.000 A 
ATOM     31  F   UNL     1      -7.496  12.680  23.748  0.00  0.00    +0.000 F 
ATOM     32  C   UNL     1      -5.324  12.504  24.652  0.00  0.00    +0.000 A 
ATOM     33  C   UNL     1      -3.941  12.528  24.465  0.00  0.00    +0.000 A 
ENDBRANCH  24  27
ENDBRANCH  22  24
ENDBRANCH  21  22
ENDBRANCH   4  21
TORSDOF 6
ENDMDL
