MODEL 1
REMARK VINA RESULT:      -8.5      0.000      0.000
REMARK  Name = 
REMARK  8 active torsions:
REMARK  status: ('A' for Active; 'I' for Inactive)
REMARK    1  A    between atoms: C_1  and  C_2
REMARK    2  A    between atoms: C_8  and  N_9
REMARK    3  A    between atoms: C_10  and  C_12
REMARK    4  A    between atoms: C_12  and  C_13
REMARK    5  A    between atoms: C_13  and  N_14
REMARK    6  A    between atoms: C_15  and  C_17
REMARK    7  A    between atoms: C_20  and  N_21
REMARK    8  A    between atoms: C_24  and  C_25
REMARK                            x       y       z     vdW  Elec       q    Type
REMARK                         _______ _______ _______ _____ _____    ______ ____
ROOT
ATOM      1  N   UNL     1       2.145   4.622  19.650  0.00  0.00    +0.000 N 
ATOM      2  C   UNL     1       2.967   5.731  19.577  0.00  0.00    +0.000 C 
ATOM      3  O   UNL     1       4.185   5.660  19.721  0.00  0.00    +0.000 OA
ATOM      4  H   UNL     1       1.139   4.749  19.715  0.00  0.00    +0.000 HD
ENDROOT
BRANCH   2   5
ATOM      5  C   UNL     1       2.320   7.054  19.357  0.00  0.00    +0.000 A 
ATOM      6  C   UNL     1       1.725   7.690  20.459  0.00  0.00    +0.000 A 
ATOM      7  C   UNL     1       1.109   8.937  20.318  0.00  0.00    +0.000 A 
ATOM      8  C   UNL     1       1.080   9.566  19.066  0.00  0.00    +0.000 A 
ATOM      9  C   UNL     1       1.682   8.935  17.966  0.00  0.00    +0.000 A 
ATOM     10  C   UNL     1       2.305   7.690  18.112  0.00  0.00    +0.000 A 
BRANCH   8  11
ATOM     11  N   UNL     1       0.442  10.827  18.891  0.00  0.00    +0.000 N 
ATOM     12  C   UNL     1      -0.816  11.077  18.388  0.00  0.00    +0.000 A 
ATOM     13  C   UNL     1      -0.970  12.441  18.340  0.00  0.00    +0.000 A 
ATOM     14  C   UNL     1       0.243  12.972  18.841  0.00  0.00    +0.000 A 
ATOM     15  N   UNL     1       1.079  11.983  19.211  0.00  0.00    +0.000 NA
BRANCH  14  16
ATOM     16  C   UNL     1       0.601  14.429  18.955  0.00  0.00    +0.000 C 
ATOM     17  F   UNL     1       0.892  14.775  20.241  0.00  0.00    +0.000 F 
ATOM     18  F   UNL     1       1.690  14.762  18.213  0.00  0.00    +0.000 F 
ATOM     19  F   UNL     1      -0.414  15.247  18.564  0.00  0.00    +0.000 F 
ENDBRANCH  14  16
ENDBRANCH   8  11
ENDBRANCH   2   5
BRANCH   1  20
ATOM     20  C   UNL     1       2.708   3.332  19.996  0.00  0.00    +0.000 C 
BRANCH  20  21
ATOM     21  C   UNL     1       2.778   2.353  18.834  0.00  0.00    +0.000 C 
BRANCH  21  23
ATOM     22  N   UNL     1       4.746   3.137  17.597  0.00  0.00    +0.000 N 
ATOM     23  C   UNL     1       3.362   3.022  17.610  0.00  0.00    +0.000 C 
ATOM     24  O   UNL     1       2.589   3.346  16.707  0.00  0.00    +0.000 OA
ATOM     25  H   UNL     1       5.266   2.673  18.329  0.00  0.00    +0.000 HD
BRANCH  22  33
ATOM     26  C   UNL     1       6.864   5.151  18.232  0.00  0.00    +0.000 C 
ATOM     27  C   UNL     1       6.525   4.680  16.842  0.00  0.00    +0.000 A 
ATOM     28  C   UNL     1       7.286   5.225  15.783  0.00  0.00    +0.000 A 
ATOM     29  C   UNL     1       7.050   4.860  14.458  0.00  0.00    +0.000 A 
ATOM     30  C   UNL     1       6.032   3.967  14.179  0.00  0.00    +0.000 A 
ATOM     31 BR   UNL     1       5.681   3.474  12.383  0.00  0.00    +0.000 Br
ATOM     32  C   UNL     1       5.270   3.416  15.204  0.00  0.00    +0.000 A 
ATOM     33  C   UNL     1       5.512   3.738  16.550  0.00  0.00    +0.000 A 
ENDBRANCH  22  33
ENDBRANCH  21  23
ENDBRANCH  20  21
ENDBRANCH   1  20
TORSDOF 7
ENDMDL
MODEL 2
REMARK VINA RESULT:      -8.4      3.342      3.774
REMARK  Name = 
REMARK  8 active torsions:
REMARK  status: ('A' for Active; 'I' for Inactive)
REMARK    1  A    between atoms: C_1  and  C_2
REMARK    2  A    between atoms: C_8  and  N_9
REMARK    3  A    between atoms: C_10  and  C_12
REMARK    4  A    between atoms: C_12  and  C_13
REMARK    5  A    between atoms: C_13  and  N_14
REMARK    6  A    between atoms: C_15  and  C_17
REMARK    7  A    between atoms: C_20  and  N_21
REMARK    8  A    between atoms: C_24  and  C_25
REMARK                            x       y       z     vdW  Elec       q    Type
REMARK                         _______ _______ _______ _____ _____    ______ ____
ROOT
ATOM      1  N   UNL     1       1.275   5.937  20.908  0.00  0.00    +0.000 N 
ATOM      2  C   UNL     1       1.694   7.152  20.397  0.00  0.00    +0.000 C 
ATOM      3  O   UNL     1       2.630   7.248  19.607  0.00  0.00    +0.000 OA
ATOM      4  H   UNL     1       0.632   5.921  21.694  0.00  0.00    +0.000 HD
ENDROOT
BRANCH   2   5
ATOM      5  C   UNL     1       0.996   8.377  20.874  0.00  0.00    +0.000 A 
ATOM      6  C   UNL     1       0.361   8.331  22.126  0.00  0.00    +0.000 A 
ATOM      7  C   UNL     1      -0.305   9.452  22.632  0.00  0.00    +0.000 A 
ATOM      8  C   UNL     1      -0.344  10.638  21.888  0.00  0.00    +0.000 A 
ATOM      9  C   UNL     1       0.296  10.688  20.639  0.00  0.00    +0.000 A 
ATOM     10  C   UNL     1       0.970   9.567  20.139  0.00  0.00    +0.000 A 
BRANCH   8  11
ATOM     11  N   UNL     1      -1.032  11.788  22.370  0.00  0.00    +0.000 N 
ATOM     12  C   UNL     1      -0.676  13.111  22.227  0.00  0.00    +0.000 A 
ATOM     13  C   UNL     1      -1.600  13.856  22.918  0.00  0.00    +0.000 A 
ATOM     14  C   UNL     1      -2.509  12.917  23.459  0.00  0.00    +0.000 A 
ATOM     15  N   UNL     1      -2.179  11.665  23.087  0.00  0.00    +0.000 NA
BRANCH  14  16
ATOM     16  C   UNL     1      -3.690  13.222  24.341  0.00  0.00    +0.000 C 
ATOM     17  F   UNL     1      -4.699  13.813  23.642  0.00  0.00    +0.000 F 
ATOM     18  F   UNL     1      -4.220  12.108  24.912  0.00  0.00    +0.000 F 
ATOM     19  F   UNL     1      -3.377  14.079  25.351  0.00  0.00    +0.000 F 
ENDBRANCH  14  16
ENDBRANCH   8  11
ENDBRANCH   2   5
BRANCH   1  20
ATOM     20  C   UNL     1       2.006   4.730  20.580  0.00  0.00    +0.000 C 
BRANCH  20  21
ATOM     21  C   UNL     1       1.650   4.135  19.227  0.00  0.00    +0.000 C 
BRANCH  21  23
ATOM     22  N   UNL     1       3.670   4.833  18.023  0.00  0.00    +0.000 N 
ATOM     23  C   UNL     1       2.901   3.764  18.463  0.00  0.00    +0.000 C 
ATOM     24  O   UNL     1       3.173   2.568  18.350  0.00  0.00    +0.000 OA
ATOM     25  H   UNL     1       3.414   5.760  18.335  0.00  0.00    +0.000 HD
BRANCH  22  33
ATOM     26  C   UNL     1       6.307   5.350  19.335  0.00  0.00    +0.000 C 
ATOM     27  C   UNL     1       6.137   4.950  17.893  0.00  0.00    +0.000 A 
ATOM     28  C   UNL     1       7.318   4.795  17.133  0.00  0.00    +0.000 A 
ATOM     29  C   UNL     1       7.272   4.433  15.788  0.00  0.00    +0.000 A 
ATOM     30  C   UNL     1       6.042   4.249  15.184  0.00  0.00    +0.000 A 
ATOM     31 BR   UNL     1       5.956   3.777  13.350  0.00  0.00    +0.000 Br
ATOM     32  C   UNL     1       4.865   4.394  15.911  0.00  0.00    +0.000 A 
ATOM     33  C   UNL     1       4.885   4.722  17.278  0.00  0.00    +0.000 A 
ENDBRANCH  22  33
ENDBRANCH  21  23
ENDBRANCH  20  21
ENDBRANCH   1  20
TORSDOF 7
ENDMDL
MODEL 3
REMARK VINA RESULT:      -8.4      5.090      9.835
REMARK  Name = 
REMARK  8 active torsions:
REMARK  status: ('A' for Active; 'I' for Inactive)
REMARK    1  A    between atoms: C_1  and  C_2
REMARK    2  A    between atoms: C_8  and  N_9
REMARK    3  A    between atoms: C_10  and  C_12
REMARK    4  A    between atoms: C_12  and  C_13
REMARK    5  A    between atoms: C_13  and  N_14
REMARK    6  A    between atoms: C_15  and  C_17
REMARK    7  A    between atoms: C_20  and  N_21
REMARK    8  A    between atoms: C_24  and  C_25
REMARK                            x       y       z     vdW  Elec       q    Type
REMARK                         _______ _______ _______ _____ _____    ______ ____
ROOT
ATOM      1  N   UNL     1       1.254  11.133  20.369  0.00  0.00    +0.000 N 
ATOM      2  C   UNL     1       0.695   9.869  20.382  0.00  0.00    +0.000 C 
ATOM      3  O   UNL     1      -0.346   9.613  20.981  0.00  0.00    +0.000 OA
ATOM      4  H   UNL     1       2.202  11.256  20.026  0.00  0.00    +0.000 HD
ENDROOT
BRANCH   2   5
ATOM      5  C   UNL     1       1.427   8.785  19.669  0.00  0.00    +0.000 A 
ATOM      6  C   UNL     1       1.717   7.607  20.378  0.00  0.00    +0.000 A 
ATOM      7  C   UNL     1       2.395   6.550  19.761  0.00  0.00    +0.000 A 
ATOM      8  C   UNL     1       2.793   6.660  18.423  0.00  0.00    +0.000 A 
ATOM      9  C   UNL     1       2.497   7.834  17.712  0.00  0.00    +0.000 A 
ATOM     10  C   UNL     1       1.811   8.887  18.328  0.00  0.00    +0.000 A 
BRANCH   8  11
ATOM     11  N   UNL     1       3.502   5.607  17.777  0.00  0.00    +0.000 N 
ATOM     12  C   UNL     1       3.229   4.257  17.810  0.00  0.00    +0.000 A 
ATOM     13  C   UNL     1       4.222   3.626  17.102  0.00  0.00    +0.000 A 
ATOM     14  C   UNL     1       5.075   4.660  16.650  0.00  0.00    +0.000 A 
ATOM     15  N   UNL     1       4.607   5.864  17.031  0.00  0.00    +0.000 NA
BRANCH  14  16
ATOM     16  C   UNL     1       6.345   4.491  15.861  0.00  0.00    +0.000 C 
ATOM     17  F   UNL     1       7.433   4.391  16.676  0.00  0.00    +0.000 F 
ATOM     18  F   UNL     1       6.340   3.370  15.092  0.00  0.00    +0.000 F 
ATOM     19  F   UNL     1       6.588   5.543  15.033  0.00  0.00    +0.000 F 
ENDBRANCH  14  16
ENDBRANCH   8  11
ENDBRANCH   2   5
BRANCH   1  20
ATOM     20  C   UNL     1       0.654  12.191  21.157  0.00  0.00    +0.000 C 
BRANCH  20  21
ATOM     21  C   UNL     1       0.429  13.485  20.390  0.00  0.00    +0.000 C 
BRANCH  21  23
ATOM     22  N   UNL     1      -1.571  12.313  19.587  0.00  0.00    +0.000 N 
ATOM     23  C   UNL     1      -0.624  13.293  19.322  0.00  0.00    +0.000 C 
ATOM     24  O   UNL     1      -0.601  14.050  18.350  0.00  0.00    +0.000 OA
ATOM     25  H   UNL     1      -1.566  11.887  20.503  0.00  0.00    +0.000 HD
BRANCH  22  33
ATOM     26  C   UNL     1      -4.405  12.787  20.416  0.00  0.00    +0.000 C 
ATOM     27  C   UNL     1      -3.992  12.189  19.098  0.00  0.00    +0.000 A 
ATOM     28  C   UNL     1      -5.030  11.854  18.198  0.00  0.00    +0.000 A 
ATOM     29  C   UNL     1      -4.757  11.289  16.954  0.00  0.00    +0.000 A 
ATOM     30  C   UNL     1      -3.443  11.030  16.608  0.00  0.00    +0.000 A 
ATOM     31 BR   UNL     1      -3.051  10.243  14.929  0.00  0.00    +0.000 Br
ATOM     32  C   UNL     1      -2.404  11.350  17.475  0.00  0.00    +0.000 A 
ATOM     33  C   UNL     1      -2.650  11.955  18.720  0.00  0.00    +0.000 A 
ENDBRANCH  22  33
ENDBRANCH  21  23
ENDBRANCH  20  21
ENDBRANCH   1  20
TORSDOF 7
ENDMDL
MODEL 4
REMARK VINA RESULT:      -8.3      6.092     10.660
REMARK  Name = 
REMARK  8 active torsions:
REMARK  status: ('A' for Active; 'I' for Inactive)
REMARK    1  A    between atoms: C_1  and  C_2
REMARK    2  A    between atoms: C_8  and  N_9
REMARK    3  A    between atoms: C_10  and  C_12
REMARK    4  A    between atoms: C_12  and  C_13
REMARK    5  A    between atoms: C_13  and  N_14
REMARK    6  A    between atoms: C_15  and  C_17
REMARK    7  A    between atoms: C_20  and  N_21
REMARK    8  A    between atoms: C_24  and  C_25
REMARK                            x       y       z     vdW  Elec       q    Type
REMARK                         _______ _______ _______ _____ _____    ______ ____
ROOT
ATOM      1  N   UNL     1       2.012   7.715  20.326  0.00  0.00    +0.000 N 
ATOM      2  C   UNL     1       2.183   6.373  20.038  0.00  0.00    +0.000 C 
ATOM      3  O   UNL     1       1.667   5.483  20.708  0.00  0.00    +0.000 OA
ATOM      4  H   UNL     1       2.603   8.403  19.869  0.00  0.00    +0.000 HD
ENDROOT
BRANCH   2   5
ATOM      5  C   UNL     1       3.068   6.023  18.892  0.00  0.00    +0.000 A 
ATOM      6  C   UNL     1       3.398   4.671  18.702  0.00  0.00    +0.000 A 
ATOM      7  C   UNL     1       4.218   4.277  17.639  0.00  0.00    +0.000 A 
ATOM      8  C   UNL     1       4.719   5.237  16.749  0.00  0.00    +0.000 A 
ATOM      9  C   UNL     1       4.383   6.587  16.934  0.00  0.00    +0.000 A 
ATOM     10  C   UNL     1       3.555   6.978  17.994  0.00  0.00    +0.000 A 
BRANCH   8  11
ATOM     11  N   UNL     1       5.572   4.866  15.671  0.00  0.00    +0.000 N 
ATOM     12  C   UNL     1       6.928   5.079  15.551  0.00  0.00    +0.000 A 
ATOM     13  C   UNL     1       7.303   4.616  14.314  0.00  0.00    +0.000 A 
ATOM     14  C   UNL     1       6.116   4.119  13.725  0.00  0.00    +0.000 A 
ATOM     15  N   UNL     1       5.077   4.238  14.574  0.00  0.00    +0.000 NA
BRANCH  14  16
ATOM     16  C   UNL     1       5.979   3.539  12.343  0.00  0.00    +0.000 C 
ATOM     17  F   UNL     1       6.305   2.215  12.321  0.00  0.00    +0.000 F 
ATOM     18  F   UNL     1       4.713   3.629  11.859  0.00  0.00    +0.000 F 
ATOM     19  F   UNL     1       6.798   4.145  11.441  0.00  0.00    +0.000 F 
ENDBRANCH  14  16
ENDBRANCH   8  11
ENDBRANCH   2   5
BRANCH   1  20
ATOM     20  C   UNL     1       1.272   8.105  21.509  0.00  0.00    +0.000 C 
BRANCH  20  21
ATOM     21  C   UNL     1       0.033   8.939  21.220  0.00  0.00    +0.000 C 
BRANCH  21  23
ATOM     22  N   UNL     1      -0.445  11.334  21.459  0.00  0.00    +0.000 N 
ATOM     23  C   UNL     1       0.016  10.182  22.082  0.00  0.00    +0.000 C 
ATOM     24  O   UNL     1       0.342  10.066  23.264  0.00  0.00    +0.000 OA
ATOM     25  H   UNL     1      -0.841  11.244  20.533  0.00  0.00    +0.000 HD
BRANCH  22  33
ATOM     26  C   UNL     1       1.526  13.484  20.798  0.00  0.00    +0.000 C 
ATOM     27  C   UNL     1       0.376  13.648  21.757  0.00  0.00    +0.000 A 
ATOM     28  C   UNL     1       0.225  14.917  22.359  0.00  0.00    +0.000 A 
ATOM     29  C   UNL     1      -0.802  15.173  23.265  0.00  0.00    +0.000 A 
ATOM     30  C   UNL     1      -1.674  14.152  23.598  0.00  0.00    +0.000 A 
ATOM     31 BR   UNL     1      -3.065  14.473  24.844  0.00  0.00    +0.000 Br
ATOM     32  C   UNL     1      -1.547  12.893  23.019  0.00  0.00    +0.000 A 
ATOM     33  C   UNL     1      -0.542  12.621  22.075  0.00  0.00    +0.000 A 
ENDBRANCH  22  33
ENDBRANCH  21  23
ENDBRANCH  20  21
ENDBRANCH   1  20
TORSDOF 7
ENDMDL
MODEL 5
REMARK VINA RESULT:      -8.3      5.261      9.832
REMARK  Name = 
REMARK  8 active torsions:
REMARK  status: ('A' for Active; 'I' for Inactive)
REMARK    1  A    between atoms: C_1  and  C_2
REMARK    2  A    between atoms: C_8  and  N_9
REMARK    3  A    between atoms: C_10  and  C_12
REMARK    4  A    between atoms: C_12  and  C_13
REMARK    5  A    between atoms: C_13  and  N_14
REMARK    6  A    between atoms: C_15  and  C_17
REMARK    7  A    between atoms: C_20  and  N_21
REMARK    8  A    between atoms: C_24  and  C_25
REMARK                            x       y       z     vdW  Elec       q    Type
REMARK                         _______ _______ _______ _____ _____    ______ ____
ROOT
ATOM      1  N   UNL     1       1.973   7.774  20.287  0.00  0.00    +0.000 N 
ATOM      2  C   UNL     1       2.151   6.428  20.025  0.00  0.00    +0.000 C 
ATOM      3  O   UNL     1       1.638   5.549  20.713  0.00  0.00    +0.000 OA
ATOM      4  H   UNL     1       2.562   8.456  19.817  0.00  0.00    +0.000 HD
ENDROOT
BRANCH   2   5
ATOM      5  C   UNL     1       3.038   6.059  18.887  0.00  0.00    +0.000 A 
ATOM      6  C   UNL     1       3.334   4.700  18.695  0.00  0.00    +0.000 A 
ATOM      7  C   UNL     1       4.154   4.289  17.639  0.00  0.00    +0.000 A 
ATOM      8  C   UNL     1       4.691   5.238  16.760  0.00  0.00    +0.000 A 
ATOM      9  C   UNL     1       4.390   6.597  16.947  0.00  0.00    +0.000 A 
ATOM     10  C   UNL     1       3.561   7.004  18.000  0.00  0.00    +0.000 A 
BRANCH   8  11
ATOM     11  N   UNL     1       5.546   4.849  15.689  0.00  0.00    +0.000 N 
ATOM     12  C   UNL     1       6.904   5.048  15.574  0.00  0.00    +0.000 A 
ATOM     13  C   UNL     1       7.281   4.570  14.343  0.00  0.00    +0.000 A 
ATOM     14  C   UNL     1       6.092   4.080  13.752  0.00  0.00    +0.000 A 
ATOM     15  N   UNL     1       5.050   4.217  14.594  0.00  0.00    +0.000 NA
BRANCH  14  16
ATOM     16  C   UNL     1       5.956   3.489  12.375  0.00  0.00    +0.000 C 
ATOM     17  F   UNL     1       6.220   2.151  12.375  0.00  0.00    +0.000 F 
ATOM     18  F   UNL     1       4.705   3.632  11.863  0.00  0.00    +0.000 F 
ATOM     19  F   UNL     1       6.820   4.045  11.482  0.00  0.00    +0.000 F 
ENDBRANCH  14  16
ENDBRANCH   8  11
ENDBRANCH   2   5
BRANCH   1  20
ATOM     20  C   UNL     1       1.230   8.185  21.461  0.00  0.00    +0.000 C 
BRANCH  20  21
ATOM     21  C   UNL     1      -0.001   9.024  21.155  0.00  0.00    +0.000 C 
BRANCH  21  23
ATOM     22  N   UNL     1       0.152  11.066  19.803  0.00  0.00    +0.000 N 
ATOM     23  C   UNL     1       0.367  10.487  21.047  0.00  0.00    +0.000 C 
ATOM     24  O   UNL     1       0.757  11.059  22.066  0.00  0.00    +0.000 OA
ATOM     25  H   UNL     1      -0.333  10.519  19.106  0.00  0.00    +0.000 HD
BRANCH  22  33
ATOM     26  C   UNL     1      -1.991  13.144  19.982  0.00  0.00    +0.000 C 
ATOM     27  C   UNL     1      -0.571  13.419  19.564  0.00  0.00    +0.000 A 
ATOM     28  C   UNL     1      -0.245  14.760  19.260  0.00  0.00    +0.000 A 
ATOM     29  C   UNL     1       1.039  15.121  18.858  0.00  0.00    +0.000 A 
ATOM     30  C   UNL     1       2.005  14.139  18.731  0.00  0.00    +0.000 A 
ATOM     31 BR   UNL     1       3.752  14.606  18.166  0.00  0.00    +0.000 Br
ATOM     32  C   UNL     1       1.710  12.812  19.026  0.00  0.00    +0.000 A 
ATOM     33  C   UNL     1       0.432  12.427  19.469  0.00  0.00    +0.000 A 
ENDBRANCH  22  33
ENDBRANCH  21  23
ENDBRANCH  20  21
ENDBRANCH   1  20
TORSDOF 7
ENDMDL
MODEL 6
REMARK VINA RESULT:      -8.3      6.462     11.244
REMARK  Name = 
REMARK  8 active torsions:
REMARK  status: ('A' for Active; 'I' for Inactive)
REMARK    1  A    between atoms: C_1  and  C_2
REMARK    2  A    between atoms: C_8  and  N_9
REMARK    3  A    between atoms: C_10  and  C_12
REMARK    4  A    between atoms: C_12  and  C_13
REMARK    5  A    between atoms: C_13  and  N_14
REMARK    6  A    between atoms: C_15  and  C_17
REMARK    7  A    between atoms: C_20  and  N_21
REMARK    8  A    between atoms: C_24  and  C_25
REMARK                            x       y       z     vdW  Elec       q    Type
REMARK                         _______ _______ _______ _____ _____    ______ ____
ROOT
ATOM      1  N   UNL     1      -0.370  11.230  18.440  0.00  0.00    +0.000 N 
ATOM      2  C   UNL     1       0.904  11.060  18.952  0.00  0.00    +0.000 C 
ATOM      3  O   UNL     1       1.606  12.005  19.303  0.00  0.00    +0.000 OA
ATOM      4  H   UNL     1      -0.835  10.448  17.990  0.00  0.00    +0.000 HD
ENDROOT
BRANCH   2   5
ATOM      5  C   UNL     1       1.435   9.671  19.029  0.00  0.00    +0.000 A 
ATOM      6  C   UNL     1       2.113   9.161  17.910  0.00  0.00    +0.000 A 
ATOM      7  C   UNL     1       2.642   7.866  17.923  0.00  0.00    +0.000 A 
ATOM      8  C   UNL     1       2.497   7.063  19.061  0.00  0.00    +0.000 A 
ATOM      9  C   UNL     1       1.826   7.575  20.183  0.00  0.00    +0.000 A 
ATOM     10  C   UNL     1       1.305   8.874  20.170  0.00  0.00    +0.000 A 
BRANCH   8  11
ATOM     11  N   UNL     1       3.008   5.734  19.094  0.00  0.00    +0.000 N 
ATOM     12  C   UNL     1       4.293   5.327  19.382  0.00  0.00    +0.000 A 
ATOM     13  C   UNL     1       4.332   3.964  19.220  0.00  0.00    +0.000 A 
ATOM     14  C   UNL     1       3.021   3.595  18.835  0.00  0.00    +0.000 A 
ATOM     15  N   UNL     1       2.214   4.673  18.801  0.00  0.00    +0.000 NA
BRANCH  14  16
ATOM     16  C   UNL     1       2.547   2.209  18.492  0.00  0.00    +0.000 C 
ATOM     17  F   UNL     1       1.379   1.906  19.127  0.00  0.00    +0.000 F 
ATOM     18  F   UNL     1       2.312   2.048  17.163  0.00  0.00    +0.000 F 
ATOM     19  F   UNL     1       3.438   1.248  18.860  0.00  0.00    +0.000 F 
ENDBRANCH  14  16
ENDBRANCH   8  11
ENDBRANCH   2   5
BRANCH   1  20
ATOM     20  C   UNL     1      -0.881  12.568  18.220  0.00  0.00    +0.000 C 
BRANCH  20  21
ATOM     21  C   UNL     1      -1.305  13.288  19.490  0.00  0.00    +0.000 C 
BRANCH  21  23
ATOM     22  N   UNL     1      -3.736  12.959  19.551  0.00  0.00    +0.000 N 
ATOM     23  C   UNL     1      -2.511  12.614  20.106  0.00  0.00    +0.000 C 
ATOM     24  O   UNL     1      -2.314  11.778  20.989  0.00  0.00    +0.000 OA
ATOM     25  H   UNL     1      -3.733  13.530  18.717  0.00  0.00    +0.000 HD
BRANCH  22  33
ATOM     26  C   UNL     1      -5.342  11.186  17.756  0.00  0.00    +0.000 C 
ATOM     27  C   UNL     1      -5.764  11.603  19.140  0.00  0.00    +0.000 A 
ATOM     28  C   UNL     1      -6.995  11.095  19.610  0.00  0.00    +0.000 A 
ATOM     29  C   UNL     1      -7.480  11.424  20.875  0.00  0.00    +0.000 A 
ATOM     30  C   UNL     1      -6.749  12.287  21.671  0.00  0.00    +0.000 A 
ATOM     31 BR   UNL     1      -7.401  12.764  23.385  0.00  0.00    +0.000 Br
ATOM     32  C   UNL     1      -5.533  12.800  21.232  0.00  0.00    +0.000 A 
ATOM     33  C   UNL     1      -5.004  12.454  19.976  0.00  0.00    +0.000 A 
ENDBRANCH  22  33
ENDBRANCH  21  23
ENDBRANCH  20  21
ENDBRANCH   1  20
TORSDOF 7
ENDMDL
MODEL 7
REMARK VINA RESULT:      -8.2      5.265      9.911
REMARK  Name = 
REMARK  8 active torsions:
REMARK  status: ('A' for Active; 'I' for Inactive)
REMARK    1  A    between atoms: C_1  and  C_2
REMARK    2  A    between atoms: C_8  and  N_9
REMARK    3  A    between atoms: C_10  and  C_12
REMARK    4  A    between atoms: C_12  and  C_13
REMARK    5  A    between atoms: C_13  and  N_14
REMARK    6  A    between atoms: C_15  and  C_17
REMARK    7  A    between atoms: C_20  and  N_21
REMARK    8  A    between atoms: C_24  and  C_25
REMARK                            x       y       z     vdW  Elec       q    Type
REMARK                         _______ _______ _______ _____ _____    ______ ____
ROOT
ATOM      1  N   UNL     1       1.708   8.427  19.735  0.00  0.00    +0.000 N 
ATOM      2  C   UNL     1       2.037   7.088  19.835  0.00  0.00    +0.000 C 
ATOM      3  O   UNL     1       1.645   6.379  20.759  0.00  0.00    +0.000 OA
ATOM      4  H   UNL     1       2.202   9.015  19.070  0.00  0.00    +0.000 HD
ENDROOT
BRANCH   2   5
ATOM      5  C   UNL     1       2.936   6.521  18.793  0.00  0.00    +0.000 A 
ATOM      6  C   UNL     1       3.450   7.391  17.818  0.00  0.00    +0.000 A 
ATOM      7  C   UNL     1       4.306   6.920  16.817  0.00  0.00    +0.000 A 
ATOM      8  C   UNL     1       4.660   5.565  16.780  0.00  0.00    +0.000 A 
ATOM      9  C   UNL     1       4.154   4.696  17.759  0.00  0.00    +0.000 A 
ATOM     10  C   UNL     1       3.303   5.171  18.764  0.00  0.00    +0.000 A 
BRANCH   8  11
ATOM     11  N   UNL     1       5.514   5.055  15.761  0.00  0.00    +0.000 N 
ATOM     12  C   UNL     1       6.890   5.100  15.707  0.00  0.00    +0.000 A 
ATOM     13  C   UNL     1       7.267   4.550  14.507  0.00  0.00    +0.000 A 
ATOM     14  C   UNL     1       6.059   4.178  13.870  0.00  0.00    +0.000 A 
ATOM     15  N   UNL     1       5.001   4.452  14.658  0.00  0.00    +0.000 NA
BRANCH  14  16
ATOM     16  C   UNL     1       5.921   3.568  12.501  0.00  0.00    +0.000 C 
ATOM     17  F   UNL     1       6.141   2.223  12.528  0.00  0.00    +0.000 F 
ATOM     18  F   UNL     1       4.682   3.743  11.971  0.00  0.00    +0.000 F 
ATOM     19  F   UNL     1       6.814   4.080  11.611  0.00  0.00    +0.000 F 
ENDBRANCH  14  16
ENDBRANCH   8  11
ENDBRANCH   2   5
BRANCH   1  20
ATOM     20  C   UNL     1       0.947   9.060  20.794  0.00  0.00    +0.000 C 
BRANCH  20  21
ATOM     21  C   UNL     1       0.767  10.560  20.618  0.00  0.00    +0.000 C 
BRANCH  21  23
ATOM     22  N   UNL     1      -1.452  10.785  19.595  0.00  0.00    +0.000 N 
ATOM     23  C   UNL     1      -0.079  10.854  19.399  0.00  0.00    +0.000 C 
ATOM     24  O   UNL     1       0.500  11.189  18.364  0.00  0.00    +0.000 OA
ATOM     25  H   UNL     1      -1.789  10.665  20.540  0.00  0.00    +0.000 HD
BRANCH  22  33
ATOM     26  C   UNL     1      -3.857  12.462  20.185  0.00  0.00    +0.000 C 
ATOM     27  C   UNL     1      -3.573  11.819  18.853  0.00  0.00    +0.000 A 
ATOM     28  C   UNL     1      -4.509  12.054  17.820  0.00  0.00    +0.000 A 
ATOM     29  C   UNL     1      -4.343  11.501  16.552  0.00  0.00    +0.000 A 
ATOM     30  C   UNL     1      -3.252  10.686  16.312  0.00  0.00    +0.000 A 
ATOM     31 BR   UNL     1      -3.019   9.907  14.600  0.00  0.00    +0.000 Br
ATOM     32  C   UNL     1      -2.316  10.440  17.311  0.00  0.00    +0.000 A 
ATOM     33  C   UNL     1      -2.441  11.016  18.588  0.00  0.00    +0.000 A 
ENDBRANCH  22  33
ENDBRANCH  21  23
ENDBRANCH  20  21
ENDBRANCH   1  20
TORSDOF 7
ENDMDL
MODEL 8
REMARK VINA RESULT:      -8.2      1.135      1.554
REMARK  Name = 
REMARK  8 active torsions:
REMARK  status: ('A' for Active; 'I' for Inactive)
REMARK    1  A    between atoms: C_1  and  C_2
REMARK    2  A    between atoms: C_8  and  N_9
REMARK    3  A    between atoms: C_10  and  C_12
REMARK    4  A    between atoms: C_12  and  C_13
REMARK    5  A    between atoms: C_13  and  N_14
REMARK    6  A    between atoms: C_15  and  C_17
REMARK    7  A    between atoms: C_20  and  N_21
REMARK    8  A    between atoms: C_24  and  C_25
REMARK                            x       y       z     vdW  Elec       q    Type
REMARK                         _______ _______ _______ _____ _____    ______ ____
ROOT
ATOM      1  N   UNL     1       1.339   4.190  19.369  0.00  0.00    +0.000 N 
ATOM      2  C   UNL     1       1.909   5.064  20.276  0.00  0.00    +0.000 C 
ATOM      3  O   UNL     1       2.471   4.681  21.298  0.00  0.00    +0.000 OA
ATOM      4  H   UNL     1       0.726   4.552  18.644  0.00  0.00    +0.000 HD
ENDROOT
BRANCH   2   5
ATOM      5  C   UNL     1       1.784   6.522  19.999  0.00  0.00    +0.000 A 
ATOM      6  C   UNL     1       2.182   6.991  18.736  0.00  0.00    +0.000 A 
ATOM      7  C   UNL     1       2.081   8.348  18.413  0.00  0.00    +0.000 A 
ATOM      8  C   UNL     1       1.579   9.256  19.354  0.00  0.00    +0.000 A 
ATOM      9  C   UNL     1       1.174   8.787  20.613  0.00  0.00    +0.000 A 
ATOM     10  C   UNL     1       1.268   7.427  20.932  0.00  0.00    +0.000 A 
BRANCH   8  11
ATOM     11  N   UNL     1       1.485  10.646  19.058  0.00  0.00    +0.000 N 
ATOM     12  C   UNL     1       2.256  11.380  18.182  0.00  0.00    +0.000 A 
ATOM     13  C   UNL     1       1.849  12.688  18.283  0.00  0.00    +0.000 A 
ATOM     14  C   UNL     1       0.808  12.683  19.243  0.00  0.00    +0.000 A 
ATOM     15  N   UNL     1       0.567  11.431  19.677  0.00  0.00    +0.000 NA
BRANCH  14  16
ATOM     16  C   UNL     1       0.053  13.883  19.748  0.00  0.00    +0.000 C 
ATOM     17  F   UNL     1      -0.024  13.890  21.109  0.00  0.00    +0.000 F 
ATOM     18  F   UNL     1       0.635  15.058  19.392  0.00  0.00    +0.000 F 
ATOM     19  F   UNL     1      -1.230  13.918  19.296  0.00  0.00    +0.000 F 
ENDBRANCH  14  16
ENDBRANCH   8  11
ENDBRANCH   2   5
BRANCH   1  20
ATOM     20  C   UNL     1       1.315   2.770  19.658  0.00  0.00    +0.000 C 
BRANCH  20  21
ATOM     21  C   UNL     1       2.292   1.951  18.829  0.00  0.00    +0.000 C 
BRANCH  21  23
ATOM     22  N   UNL     1       4.321   2.980  17.913  0.00  0.00    +0.000 N 
ATOM     23  C   UNL     1       2.950   2.814  17.776  0.00  0.00    +0.000 C 
ATOM     24  O   UNL     1       2.246   3.240  16.859  0.00  0.00    +0.000 OA
ATOM     25  H   UNL     1       4.796   2.433  18.617  0.00  0.00    +0.000 HD
BRANCH  22  33
ATOM     26  C   UNL     1       5.834   5.338  18.961  0.00  0.00    +0.000 C 
ATOM     27  C   UNL     1       5.878   4.865  17.532  0.00  0.00    +0.000 A 
ATOM     28  C   UNL     1       6.712   5.586  16.649  0.00  0.00    +0.000 A 
ATOM     29  C   UNL     1       6.821   5.234  15.304  0.00  0.00    +0.000 A 
ATOM     30  C   UNL     1       6.075   4.173  14.825  0.00  0.00    +0.000 A 
ATOM     31 BR   UNL     1       6.191   3.692  12.997  0.00  0.00    +0.000 Br
ATOM     32  C   UNL     1       5.247   3.446  15.675  0.00  0.00    +0.000 A 
ATOM     33  C   UNL     1       5.148   3.758  17.042  0.00  0.00    +0.000 A 
ENDBRANCH  22  33
ENDBRANCH  21  23
ENDBRANCH  20  21
ENDBRANCH   1  20
TORSDOF 7
ENDMDL
MODEL 9
REMARK VINA RESULT:      -8.2      6.237     10.981
REMARK  Name = 
REMARK  8 active torsions:
REMARK  status: ('A' for Active; 'I' for Inactive)
REMARK    1  A    between atoms: C_1  and  C_2
REMARK    2  A    between atoms: C_8  and  N_9
REMARK    3  A    between atoms: C_10  and  C_12
REMARK    4  A    between atoms: C_12  and  C_13
REMARK    5  A    between atoms: C_13  and  N_14
REMARK    6  A    between atoms: C_15  and  C_17
REMARK    7  A    between atoms: C_20  and  N_21
REMARK    8  A    between atoms: C_24  and  C_25
REMARK                            x       y       z     vdW  Elec       q    Type
REMARK                         _______ _______ _______ _____ _____    ______ ____
ROOT
ATOM      1  N   UNL     1      -0.045  11.265  18.146  0.00  0.00    +0.000 N 
ATOM      2  C   UNL     1       0.033  10.294  19.127  0.00  0.00    +0.000 C 
ATOM      3  O   UNL     1      -0.679  10.309  20.129  0.00  0.00    +0.000 OA
ATOM      4  H   UNL     1       0.683  11.320  17.439  0.00  0.00    +0.000 HD
ENDROOT
BRANCH   2   5
ATOM      5  C   UNL     1       1.057   9.226  18.960  0.00  0.00    +0.000 A 
ATOM      6  C   UNL     1       1.283   8.353  20.037  0.00  0.00    +0.000 A 
ATOM      7  C   UNL     1       2.226   7.325  19.938  0.00  0.00    +0.000 A 
ATOM      8  C   UNL     1       2.957   7.157  18.755  0.00  0.00    +0.000 A 
ATOM      9  C   UNL     1       2.726   8.023  17.675  0.00  0.00    +0.000 A 
ATOM     10  C   UNL     1       1.775   9.047  17.773  0.00  0.00    +0.000 A 
BRANCH   8  11
ATOM     11  N   UNL     1       3.937   6.130  18.635  0.00  0.00    +0.000 N 
ATOM     12  C   UNL     1       4.112   5.027  19.442  0.00  0.00    +0.000 A 
ATOM     13  C   UNL     1       5.223   4.363  18.984  0.00  0.00    +0.000 A 
ATOM     14  C   UNL     1       5.681   5.117  17.877  0.00  0.00    +0.000 A 
ATOM     15  N   UNL     1       4.868   6.167  17.648  0.00  0.00    +0.000 NA
BRANCH  14  16
ATOM     16  C   UNL     1       6.903   4.833  17.046  0.00  0.00    +0.000 C 
ATOM     17  F   UNL     1       7.913   4.315  17.800  0.00  0.00    +0.000 F 
ATOM     18  F   UNL     1       6.667   3.935  16.054  0.00  0.00    +0.000 F 
ATOM     19  F   UNL     1       7.405   5.954  16.459  0.00  0.00    +0.000 F 
ENDBRANCH  14  16
ENDBRANCH   8  11
ENDBRANCH   2   5
BRANCH   1  20
ATOM     20  C   UNL     1      -0.930  12.398  18.326  0.00  0.00    +0.000 C 
BRANCH  20  21
ATOM     21  C   UNL     1      -0.331  13.529  19.149  0.00  0.00    +0.000 C 
BRANCH  21  23
ATOM     22  N   UNL     1      -2.155  12.856  20.644  0.00  0.00    +0.000 N 
ATOM     23  C   UNL     1      -1.179  13.804  20.370  0.00  0.00    +0.000 C 
ATOM     24  O   UNL     1      -0.901  14.791  21.053  0.00  0.00    +0.000 OA
ATOM     25  H   UNL     1      -2.158  12.008  20.095  0.00  0.00    +0.000 HD
BRANCH  22  33
ATOM     26  C   UNL     1      -1.572  11.403  23.193  0.00  0.00    +0.000 C 
ATOM     27  C   UNL     1      -2.800  12.241  22.952  0.00  0.00    +0.000 A 
ATOM     28  C   UNL     1      -3.715  12.351  24.023  0.00  0.00    +0.000 A 
ATOM     29  C   UNL     1      -4.886  13.097  23.903  0.00  0.00    +0.000 A 
ATOM     30  C   UNL     1      -5.165  13.720  22.700  0.00  0.00    +0.000 A 
ATOM     31 BR   UNL     1      -6.761  14.722  22.508  0.00  0.00    +0.000 Br
ATOM     32  C   UNL     1      -4.279  13.628  21.631  0.00  0.00    +0.000 A 
ATOM     33  C   UNL     1      -3.074  12.912  21.739  0.00  0.00    +0.000 A 
ENDBRANCH  22  33
ENDBRANCH  21  23
ENDBRANCH  20  21
ENDBRANCH   1  20
TORSDOF 7
ENDMDL
