MODEL 1
REMARK VINA RESULT:      -8.2      0.000      0.000
REMARK  Name = 
REMARK  4 active torsions:
REMARK  status: ('A' for Active; 'I' for Inactive)
REMARK    1  A    between atoms: C_1  and  C_2
REMARK    2  A    between atoms: C_2  and  N_3
REMARK    3  A    between atoms: C_9  and  C_10
REMARK    4  A    between atoms: C_16  and  C_17
REMARK                            x       y       z     vdW  Elec       q    Type
REMARK                         _______ _______ _______ _____ _____    ______ ____
ROOT
ATOM      1  N   UNL     1       7.070   4.147  12.815  0.00  0.00    +0.000 N 
ATOM      2  C   UNL     1       6.119   4.334  13.789  0.00  0.00    +0.000 C 
ATOM      3  O   UNL     1       4.962   3.941  13.674  0.00  0.00    +0.000 OA
ATOM      4  N   UNL     1       6.613   5.055  14.853  0.00  0.00    +0.000 N 
ATOM      5  C   UNL     1       5.772   5.445  15.904  0.00  0.00    +0.000 A 
ATOM      6  C   UNL     1       4.918   4.539  16.519  0.00  0.00    +0.000 A 
ATOM      7  C   UNL     1       4.002   4.948  17.517  0.00  0.00    +0.000 A 
ATOM      8  C   UNL     1       3.973   6.328  17.811  0.00  0.00    +0.000 A 
ATOM      9  C   UNL     1       4.932   7.143  17.192  0.00  0.00    +0.000 A 
ATOM     10  N   UNL     1       5.845   6.729  16.274  0.00  0.00    +0.000 NA
ATOM     11  H   UNL     1       8.032   4.100  13.121  0.00  0.00    +0.000 HD
ATOM     12  H   UNL     1       7.263   5.782  14.594  0.00  0.00    +0.000 HD
ENDROOT
BRANCH   8  13
ATOM     13  C   UNL     1       3.043   7.054  18.730  0.00  0.00    +0.000 C 
ATOM     14  O   UNL     1       2.846   6.572  19.836  0.00  0.00    +0.000 OA
ATOM     15  N   UNL     1       2.469   8.213  18.246  0.00  0.00    +0.000 N 
ATOM     16  C   UNL     1       1.501   8.886  18.952  0.00  0.00    +0.000 A 
ATOM     17  N   UNL     1       1.168   8.793  20.212  0.00  0.00    +0.000 NA
ATOM     18  C   UNL     1       0.106   9.641  20.472  0.00  0.00    +0.000 A 
ATOM     19  C   UNL     1      -0.378  10.331  19.381  0.00  0.00    +0.000 A 
ATOM     20  S   UNL     1       0.594   9.986  18.006  0.00  0.00    +0.000 S 
ATOM     21  H   UNL     1       2.621   8.541  17.309  0.00  0.00    +0.000 HD
ENDBRANCH   8  13
BRANCH   7  22
ATOM     22  C   UNL     1       3.203   3.888  18.182  0.00  0.00    +0.000 A 
ATOM     23  C   UNL     1       1.828   3.738  17.927  0.00  0.00    +0.000 A 
ATOM     24  C   UNL     1       1.095   2.708  18.516  0.00  0.00    +0.000 A 
ATOM     25  C   UNL     1       1.746   1.862  19.390  0.00  0.00    +0.000 A 
ATOM     26  N   UNL     1       3.059   1.961  19.676  0.00  0.00    +0.000 NA
ATOM     27  C   UNL     1       3.756   2.937  19.043  0.00  0.00    +0.000 A 
ENDBRANCH   7  22
BRANCH   1  29
ATOM     28  C   UNL     1       7.180   2.125  11.388  0.00  0.00    +0.000 C 
ATOM     29  C   UNL     1       6.728   3.567  11.531  0.00  0.00    +0.000 C 
ENDBRANCH   1  29
TORSDOF 3
ENDMDL
MODEL 2
REMARK VINA RESULT:      -7.3      2.447      7.623
REMARK  Name = 
REMARK  4 active torsions:
REMARK  status: ('A' for Active; 'I' for Inactive)
REMARK    1  A    between atoms: C_1  and  C_2
REMARK    2  A    between atoms: C_2  and  N_3
REMARK    3  A    between atoms: C_9  and  C_10
REMARK    4  A    between atoms: C_16  and  C_17
REMARK                            x       y       z     vdW  Elec       q    Type
REMARK                         _______ _______ _______ _____ _____    ______ ____
ROOT
ATOM      1  N   UNL     1      -0.016   9.557  21.348  0.00  0.00    +0.000 N 
ATOM      2  C   UNL     1       0.922   8.724  20.784  0.00  0.00    +0.000 C 
ATOM      3  O   UNL     1       1.666   8.012  21.451  0.00  0.00    +0.000 OA
ATOM      4  N   UNL     1       0.951   8.842  19.413  0.00  0.00    +0.000 N 
ATOM      5  C   UNL     1       1.911   8.157  18.656  0.00  0.00    +0.000 A 
ATOM      6  C   UNL     1       2.151   6.803  18.851  0.00  0.00    +0.000 A 
ATOM      7  C   UNL     1       3.182   6.128  18.156  0.00  0.00    +0.000 A 
ATOM      8  C   UNL     1       3.977   6.917  17.297  0.00  0.00    +0.000 A 
ATOM      9  C   UNL     1       3.599   8.255  17.111  0.00  0.00    +0.000 A 
ATOM     10  N   UNL     1       2.571   8.880  17.744  0.00  0.00    +0.000 NA
ATOM     11  H   UNL     1      -0.831   9.768  20.788  0.00  0.00    +0.000 HD
ATOM     12  H   UNL     1       0.797   9.781  19.074  0.00  0.00    +0.000 HD
ENDROOT
BRANCH   8  13
ATOM     13  C   UNL     1       5.190   6.503  16.527  0.00  0.00    +0.000 C 
ATOM     14  O   UNL     1       6.229   7.114  16.730  0.00  0.00    +0.000 OA
ATOM     15  N   UNL     1       5.035   5.461  15.634  0.00  0.00    +0.000 N 
ATOM     16  C   UNL     1       6.045   5.087  14.781  0.00  0.00    +0.000 A 
ATOM     17  N   UNL     1       7.320   5.366  14.822  0.00  0.00    +0.000 NA
ATOM     18  C   UNL     1       7.951   4.802  13.728  0.00  0.00    +0.000 A 
ATOM     19  C   UNL     1       7.123   4.140  12.846  0.00  0.00    +0.000 A 
ATOM     20  S   UNL     1       5.518   4.135  13.460  0.00  0.00    +0.000 S 
ATOM     21  H   UNL     1       4.146   5.024  15.463  0.00  0.00    +0.000 HD
ENDBRANCH   8  13
BRANCH   7  22
ATOM     22  C   UNL     1       3.294   4.662  18.361  0.00  0.00    +0.000 A 
ATOM     23  C   UNL     1       2.522   3.756  17.611  0.00  0.00    +0.000 A 
ATOM     24  C   UNL     1       2.669   2.378  17.773  0.00  0.00    +0.000 A 
ATOM     25  C   UNL     1       3.564   1.926  18.721  0.00  0.00    +0.000 A 
ATOM     26  N   UNL     1       4.325   2.746  19.472  0.00  0.00    +0.000 NA
ATOM     27  C   UNL     1       4.200   4.078  19.250  0.00  0.00    +0.000 A 
ENDBRANCH   7  22
BRANCH   1  29
ATOM     28  C   UNL     1      -1.043  10.845  23.196  0.00  0.00    +0.000 C 
ATOM     29  C   UNL     1      -0.103   9.728  22.784  0.00  0.00    +0.000 C 
ENDBRANCH   1  29
TORSDOF 3
ENDMDL
MODEL 3
REMARK VINA RESULT:      -7.2      2.723      7.878
REMARK  Name = 
REMARK  4 active torsions:
REMARK  status: ('A' for Active; 'I' for Inactive)
REMARK    1  A    between atoms: C_1  and  C_2
REMARK    2  A    between atoms: C_2  and  N_3
REMARK    3  A    between atoms: C_9  and  C_10
REMARK    4  A    between atoms: C_16  and  C_17
REMARK                            x       y       z     vdW  Elec       q    Type
REMARK                         _______ _______ _______ _____ _____    ______ ____
ROOT
ATOM      1  N   UNL     1      -0.537  11.275  21.296  0.00  0.00    +0.000 N 
ATOM      2  C   UNL     1       0.240  10.157  21.104  0.00  0.00    +0.000 C 
ATOM      3  O   UNL     1       0.766   9.547  22.030  0.00  0.00    +0.000 OA
ATOM      4  N   UNL     1       0.390   9.861  19.769  0.00  0.00    +0.000 N 
ATOM      5  C   UNL     1       1.233   8.821  19.357  0.00  0.00    +0.000 A 
ATOM      6  C   UNL     1       1.166   7.563  19.941  0.00  0.00    +0.000 A 
ATOM      7  C   UNL     1       2.077   6.537  19.594  0.00  0.00    +0.000 A 
ATOM      8  C   UNL     1       3.080   6.881  18.663  0.00  0.00    +0.000 A 
ATOM      9  C   UNL     1       3.008   8.152  18.073  0.00  0.00    +0.000 A 
ATOM     10  N   UNL     1       2.094   9.112  18.374  0.00  0.00    +0.000 NA
ATOM     11  H   UNL     1      -1.248  11.459  20.600  0.00  0.00    +0.000 HD
ATOM     12  H   UNL     1       0.463  10.671  19.171  0.00  0.00    +0.000 HD
ENDROOT
BRANCH   8  13
ATOM     13  C   UNL     1       4.228   6.045  18.197  0.00  0.00    +0.000 C 
ATOM     14  O   UNL     1       5.020   5.646  19.038  0.00  0.00    +0.000 OA
ATOM     15  N   UNL     1       4.309   5.798  16.840  0.00  0.00    +0.000 N 
ATOM     16  C   UNL     1       5.390   5.157  16.288  0.00  0.00    +0.000 A 
ATOM     17  N   UNL     1       6.319   4.439  16.861  0.00  0.00    +0.000 NA
ATOM     18  C   UNL     1       7.233   4.021  15.909  0.00  0.00    +0.000 A 
ATOM     19  C   UNL     1       7.000   4.476  14.629  0.00  0.00    +0.000 A 
ATOM     20  S   UNL     1       5.532   5.370  14.596  0.00  0.00    +0.000 S 
ATOM     21  H   UNL     1       3.662   6.193  16.180  0.00  0.00    +0.000 HD
ENDBRANCH   8  13
BRANCH   7  22
ATOM     22  C   UNL     1       1.860   5.201  20.203  0.00  0.00    +0.000 A 
ATOM     23  C   UNL     1       1.141   4.196  19.529  0.00  0.00    +0.000 A 
ATOM     24  C   UNL     1       0.984   2.927  20.085  0.00  0.00    +0.000 A 
ATOM     25  C   UNL     1       1.519   2.693  21.336  0.00  0.00    +0.000 A 
ATOM     26  N   UNL     1       2.212   3.618  22.030  0.00  0.00    +0.000 NA
ATOM     27  C   UNL     1       2.395   4.824  21.437  0.00  0.00    +0.000 A 
ENDBRANCH   7  22
BRANCH   1  29
ATOM     28  C   UNL     1      -2.062  11.649  23.211  0.00  0.00    +0.000 C 
ATOM     29  C   UNL     1      -0.687  11.871  22.608  0.00  0.00    +0.000 C 
ENDBRANCH   1  29
TORSDOF 3
ENDMDL
MODEL 4
REMARK VINA RESULT:      -7.1      1.749      1.943
REMARK  Name = 
REMARK  4 active torsions:
REMARK  status: ('A' for Active; 'I' for Inactive)
REMARK    1  A    between atoms: C_1  and  C_2
REMARK    2  A    between atoms: C_2  and  N_3
REMARK    3  A    between atoms: C_9  and  C_10
REMARK    4  A    between atoms: C_16  and  C_17
REMARK                            x       y       z     vdW  Elec       q    Type
REMARK                         _______ _______ _______ _____ _____    ______ ____
ROOT
ATOM      1  N   UNL     1       7.009   4.513  14.087  0.00  0.00    +0.000 N 
ATOM      2  C   UNL     1       5.904   4.804  14.853  0.00  0.00    +0.000 C 
ATOM      3  O   UNL     1       4.804   4.299  14.651  0.00  0.00    +0.000 OA
ATOM      4  N   UNL     1       6.181   5.755  15.808  0.00  0.00    +0.000 N 
ATOM      5  C   UNL     1       5.162   6.267  16.623  0.00  0.00    +0.000 A 
ATOM      6  C   UNL     1       4.270   5.427  17.277  0.00  0.00    +0.000 A 
ATOM      7  C   UNL     1       3.184   5.942  18.025  0.00  0.00    +0.000 A 
ATOM      8  C   UNL     1       3.034   7.345  18.025  0.00  0.00    +0.000 A 
ATOM      9  C   UNL     1       4.035   8.104  17.401  0.00  0.00    +0.000 A 
ATOM     10  N   UNL     1       5.106   7.600  16.731  0.00  0.00    +0.000 NA
ATOM     11  H   UNL     1       7.910   4.609  14.536  0.00  0.00    +0.000 HD
ATOM     12  H   UNL     1       6.824   6.471  15.506  0.00  0.00    +0.000 HD
ENDROOT
BRANCH   8  13
ATOM     13  C   UNL     1       1.931   8.152  18.630  0.00  0.00    +0.000 C 
ATOM     14  O   UNL     1       1.209   8.786  17.875  0.00  0.00    +0.000 OA
ATOM     15  N   UNL     1       1.824   8.126  20.008  0.00  0.00    +0.000 N 
ATOM     16  C   UNL     1       0.935   8.932  20.676  0.00  0.00    +0.000 A 
ATOM     17  N   UNL     1      -0.102   9.586  20.225  0.00  0.00    +0.000 NA
ATOM     18  C   UNL     1      -0.682  10.300  21.260  0.00  0.00    +0.000 A 
ATOM     19  C   UNL     1      -0.037  10.206  22.475  0.00  0.00    +0.000 A 
ATOM     20  S   UNL     1       1.278   9.107  22.343  0.00  0.00    +0.000 S 
ATOM     21  H   UNL     1       2.476   7.631  20.591  0.00  0.00    +0.000 HD
ENDBRANCH   8  13
BRANCH   7  22
ATOM     22  C   UNL     1       2.347   4.965  18.766  0.00  0.00    +0.000 A 
ATOM     23  C   UNL     1       1.525   4.043  18.092  0.00  0.00    +0.000 A 
ATOM     24  C   UNL     1       0.780   3.096  18.794  0.00  0.00    +0.000 A 
ATOM     25  C   UNL     1       0.839   3.112  20.172  0.00  0.00    +0.000 A 
ATOM     26  N   UNL     1       1.603   3.974  20.871  0.00  0.00    +0.000 NA
ATOM     27  C   UNL     1       2.359   4.845  20.158  0.00  0.00    +0.000 A 
ENDBRANCH   7  22
BRANCH   1  29
ATOM     28  C   UNL     1       7.240   4.402  11.624  0.00  0.00    +0.000 C 
ATOM     29  C   UNL     1       6.909   3.671  12.913  0.00  0.00    +0.000 C 
ENDBRANCH   1  29
TORSDOF 3
ENDMDL
MODEL 5
REMARK VINA RESULT:      -7.1      1.029      1.336
REMARK  Name = 
REMARK  4 active torsions:
REMARK  status: ('A' for Active; 'I' for Inactive)
REMARK    1  A    between atoms: C_1  and  C_2
REMARK    2  A    between atoms: C_2  and  N_3
REMARK    3  A    between atoms: C_9  and  C_10
REMARK    4  A    between atoms: C_16  and  C_17
REMARK                            x       y       z     vdW  Elec       q    Type
REMARK                         _______ _______ _______ _____ _____    ______ ____
ROOT
ATOM      1  N   UNL     1       6.535   3.961  13.395  0.00  0.00    +0.000 N 
ATOM      2  C   UNL     1       5.601   4.221  14.370  0.00  0.00    +0.000 C 
ATOM      3  O   UNL     1       4.469   3.750  14.348  0.00  0.00    +0.000 OA
ATOM      4  N   UNL     1       6.079   5.102  15.313  0.00  0.00    +0.000 N 
ATOM      5  C   UNL     1       5.246   5.578  16.334  0.00  0.00    +0.000 A 
ATOM      6  C   UNL     1       4.467   4.713  17.091  0.00  0.00    +0.000 A 
ATOM      7  C   UNL     1       3.555   5.196  18.060  0.00  0.00    +0.000 A 
ATOM      8  C   UNL     1       3.450   6.599  18.174  0.00  0.00    +0.000 A 
ATOM      9  C   UNL     1       4.339   7.379  17.421  0.00  0.00    +0.000 A 
ATOM     10  N   UNL     1       5.251   6.901  16.532  0.00  0.00    +0.000 NA
ATOM     11  H   UNL     1       7.507   4.011  13.671  0.00  0.00    +0.000 HD
ATOM     12  H   UNL     1       6.676   5.825  14.940  0.00  0.00    +0.000 HD
ENDROOT
BRANCH   8  13
ATOM     13  C   UNL     1       2.503   7.384  19.024  0.00  0.00    +0.000 C 
ATOM     14  O   UNL     1       2.229   6.941  20.129  0.00  0.00    +0.000 OA
ATOM     15  N   UNL     1       2.001   8.551  18.481  0.00  0.00    +0.000 N 
ATOM     16  C   UNL     1       1.025   9.279  19.117  0.00  0.00    +0.000 A 
ATOM     17  N   UNL     1       0.623   9.233  20.359  0.00  0.00    +0.000 NA
ATOM     18  C   UNL     1      -0.416  10.128  20.542  0.00  0.00    +0.000 A 
ATOM     19  C   UNL     1      -0.815  10.807  19.409  0.00  0.00    +0.000 A 
ATOM     20  S   UNL     1       0.212  10.387  18.097  0.00  0.00    +0.000 S 
ATOM     21  H   UNL     1       2.214   8.847  17.545  0.00  0.00    +0.000 HD
ENDBRANCH   8  13
BRANCH   7  22
ATOM     22  C   UNL     1       2.842   4.188  18.884  0.00  0.00    +0.000 A 
ATOM     23  C   UNL     1       3.423   3.648  20.046  0.00  0.00    +0.000 A 
ATOM     24  C   UNL     1       2.726   2.739  20.843  0.00  0.00    +0.000 A 
ATOM     25  C   UNL     1       1.465   2.352  20.440  0.00  0.00    +0.000 A 
ATOM     26  N   UNL     1       0.861   2.832  19.335  0.00  0.00    +0.000 NA
ATOM     27  C   UNL     1       1.541   3.756  18.612  0.00  0.00    +0.000 A 
ENDBRANCH   7  22
BRANCH   1  29
ATOM     28  C   UNL     1       4.802   3.504  11.685  0.00  0.00    +0.000 C 
ATOM     29  C   UNL     1       6.194   3.200  12.210  0.00  0.00    +0.000 C 
ENDBRANCH   1  29
TORSDOF 3
ENDMDL
MODEL 6
REMARK VINA RESULT:      -6.9      2.429      7.725
REMARK  Name = 
REMARK  4 active torsions:
REMARK  status: ('A' for Active; 'I' for Inactive)
REMARK    1  A    between atoms: C_1  and  C_2
REMARK    2  A    between atoms: C_2  and  N_3
REMARK    3  A    between atoms: C_9  and  C_10
REMARK    4  A    between atoms: C_16  and  C_17
REMARK                            x       y       z     vdW  Elec       q    Type
REMARK                         _______ _______ _______ _____ _____    ______ ____
ROOT
ATOM      1  N   UNL     1      -0.208   9.936  21.366  0.00  0.00    +0.000 N 
ATOM      2  C   UNL     1       0.736   9.080  20.850  0.00  0.00    +0.000 C 
ATOM      3  O   UNL     1       1.476   8.403  21.557  0.00  0.00    +0.000 OA
ATOM      4  N   UNL     1       0.776   9.130  19.476  0.00  0.00    +0.000 N 
ATOM      5  C   UNL     1       1.743   8.411  18.761  0.00  0.00    +0.000 A 
ATOM      6  C   UNL     1       1.984   7.069  19.024  0.00  0.00    +0.000 A 
ATOM      7  C   UNL     1       3.023   6.364  18.370  0.00  0.00    +0.000 A 
ATOM      8  C   UNL     1       3.823   7.112  17.480  0.00  0.00    +0.000 A 
ATOM      9  C   UNL     1       3.443   8.438  17.226  0.00  0.00    +0.000 A 
ATOM     10  N   UNL     1       2.409   9.091  17.819  0.00  0.00    +0.000 NA
ATOM     11  H   UNL     1      -1.019  10.117  20.791  0.00  0.00    +0.000 HD
ATOM     12  H   UNL     1       0.622  10.051  19.091  0.00  0.00    +0.000 HD
ENDROOT
BRANCH   8  13
ATOM     13  C   UNL     1       5.043   6.664  16.741  0.00  0.00    +0.000 C 
ATOM     14  O   UNL     1       6.082   7.277  16.934  0.00  0.00    +0.000 OA
ATOM     15  N   UNL     1       4.892   5.591  15.883  0.00  0.00    +0.000 N 
ATOM     16  C   UNL     1       5.910   5.181  15.058  0.00  0.00    +0.000 A 
ATOM     17  N   UNL     1       7.187   5.455  15.105  0.00  0.00    +0.000 NA
ATOM     18  C   UNL     1       7.828   4.848  14.039  0.00  0.00    +0.000 A 
ATOM     19  C   UNL     1       7.007   4.159  13.171  0.00  0.00    +0.000 A 
ATOM     20  S   UNL     1       5.394   4.185  13.766  0.00  0.00    +0.000 S 
ATOM     21  H   UNL     1       4.003   5.153  15.718  0.00  0.00    +0.000 HD
ENDBRANCH   8  13
BRANCH   7  22
ATOM     22  C   UNL     1       3.136   4.910  18.648  0.00  0.00    +0.000 A 
ATOM     23  C   UNL     1       4.263   4.373  19.296  0.00  0.00    +0.000 A 
ATOM     24  C   UNL     1       4.340   3.014  19.599  0.00  0.00    +0.000 A 
ATOM     25  C   UNL     1       3.296   2.199  19.209  0.00  0.00    +0.000 A 
ATOM     26  N   UNL     1       2.195   2.656  18.581  0.00  0.00    +0.000 NA
ATOM     27  C   UNL     1       2.126   3.991  18.352  0.00  0.00    +0.000 A 
ENDBRANCH   7  22
BRANCH   1  29
ATOM     28  C   UNL     1      -1.326  11.243  23.148  0.00  0.00    +0.000 C 
ATOM     29  C   UNL     1      -0.306  10.177  22.791  0.00  0.00    +0.000 C 
ENDBRANCH   1  29
TORSDOF 3
ENDMDL
MODEL 7
REMARK VINA RESULT:      -6.9      1.457      1.532
REMARK  Name = 
REMARK  4 active torsions:
REMARK  status: ('A' for Active; 'I' for Inactive)
REMARK    1  A    between atoms: C_1  and  C_2
REMARK    2  A    between atoms: C_2  and  N_3
REMARK    3  A    between atoms: C_9  and  C_10
REMARK    4  A    between atoms: C_16  and  C_17
REMARK                            x       y       z     vdW  Elec       q    Type
REMARK                         _______ _______ _______ _____ _____    ______ ____
ROOT
ATOM      1  N   UNL     1       6.701   3.448  13.124  0.00  0.00    +0.000 N 
ATOM      2  C   UNL     1       5.745   3.918  13.994  0.00  0.00    +0.000 C 
ATOM      3  O   UNL     1       4.576   3.547  13.961  0.00  0.00    +0.000 OA
ATOM      4  N   UNL     1       6.252   4.876  14.841  0.00  0.00    +0.000 N 
ATOM      5  C   UNL     1       5.414   5.558  15.734  0.00  0.00    +0.000 A 
ATOM      6  C   UNL     1       4.519   4.875  16.547  0.00  0.00    +0.000 A 
ATOM      7  C   UNL     1       3.606   5.563  17.381  0.00  0.00    +0.000 A 
ATOM      8  C   UNL     1       3.626   6.972  17.301  0.00  0.00    +0.000 A 
ATOM      9  C   UNL     1       4.623   7.562  16.511  0.00  0.00    +0.000 A 
ATOM     10  N   UNL     1       5.532   6.891  15.754  0.00  0.00    +0.000 NA
ATOM     11  H   UNL     1       7.656   3.452  13.453  0.00  0.00    +0.000 HD
ATOM     12  H   UNL     1       6.933   5.488  14.414  0.00  0.00    +0.000 HD
ENDROOT
BRANCH   8  13
ATOM     13  C   UNL     1       2.713   7.945  17.977  0.00  0.00    +0.000 C 
ATOM     14  O   UNL     1       2.426   8.968  17.374  0.00  0.00    +0.000 OA
ATOM     15  N   UNL     1       2.275   7.610  19.243  0.00  0.00    +0.000 N 
ATOM     16  C   UNL     1       1.543   8.487  20.006  0.00  0.00    +0.000 A 
ATOM     17  N   UNL     1       0.899   9.567  19.653  0.00  0.00    +0.000 NA
ATOM     18  C   UNL     1       0.335  10.155  20.771  0.00  0.00    +0.000 A 
ATOM     19  C   UNL     1       0.607   9.527  21.968  0.00  0.00    +0.000 A 
ATOM     20  S   UNL     1       1.511   8.095  21.672  0.00  0.00    +0.000 S 
ATOM     21  H   UNL     1       2.582   6.781  19.720  0.00  0.00    +0.000 HD
ENDBRANCH   8  13
BRANCH   7  22
ATOM     22  C   UNL     1       2.760   4.743  18.284  0.00  0.00    +0.000 A 
ATOM     23  C   UNL     1       1.572   4.141  17.828  0.00  0.00    +0.000 A 
ATOM     24  C   UNL     1       0.809   3.330  18.668  0.00  0.00    +0.000 A 
ATOM     25  C   UNL     1       1.227   3.165  19.972  0.00  0.00    +0.000 A 
ATOM     26  N   UNL     1       2.352   3.721  20.465  0.00  0.00    +0.000 NA
ATOM     27  C   UNL     1       3.102   4.457  19.608  0.00  0.00    +0.000 A 
ENDBRANCH   7  22
BRANCH   1  29
ATOM     28  C   UNL     1       7.533   2.222  11.140  0.00  0.00    +0.000 C 
ATOM     29  C   UNL     1       6.352   2.563  12.031  0.00  0.00    +0.000 C 
ENDBRANCH   1  29
TORSDOF 3
ENDMDL
MODEL 8
REMARK VINA RESULT:      -6.7      4.552      8.478
REMARK  Name = 
REMARK  4 active torsions:
REMARK  status: ('A' for Active; 'I' for Inactive)
REMARK    1  A    between atoms: C_1  and  C_2
REMARK    2  A    between atoms: C_2  and  N_3
REMARK    3  A    between atoms: C_9  and  C_10
REMARK    4  A    between atoms: C_16  and  C_17
REMARK                            x       y       z     vdW  Elec       q    Type
REMARK                         _______ _______ _______ _____ _____    ______ ____
ROOT
ATOM      1  N   UNL     1       2.747   6.541  20.142  0.00  0.00    +0.000 N 
ATOM      2  C   UNL     1       2.031   7.642  19.735  0.00  0.00    +0.000 C 
ATOM      3  O   UNL     1       1.988   8.012  18.566  0.00  0.00    +0.000 OA
ATOM      4  N   UNL     1       1.435   8.284  20.796  0.00  0.00    +0.000 N 
ATOM      5  C   UNL     1       0.746   9.490  20.606  0.00  0.00    +0.000 A 
ATOM      6  C   UNL     1      -0.197   9.631  19.596  0.00  0.00    +0.000 A 
ATOM      7  C   UNL     1      -0.827  10.873  19.342  0.00  0.00    +0.000 A 
ATOM      8  C   UNL     1      -0.407  11.960  20.137  0.00  0.00    +0.000 A 
ATOM      9  C   UNL     1       0.490  11.692  21.182  0.00  0.00    +0.000 A 
ATOM     10  N   UNL     1       1.048  10.482  21.452  0.00  0.00    +0.000 NA
ATOM     11  H   UNL     1       2.415   6.063  20.969  0.00  0.00    +0.000 HD
ATOM     12  H   UNL     1       1.988   8.289  21.640  0.00  0.00    +0.000 HD
ENDROOT
BRANCH   8  13
ATOM     13  C   UNL     1      -0.813  13.395  20.022  0.00  0.00    +0.000 C 
ATOM     14  O   UNL     1      -0.359  14.042  19.090  0.00  0.00    +0.000 OA
ATOM     15  N   UNL     1      -1.666  13.880  20.994  0.00  0.00    +0.000 N 
ATOM     16  C   UNL     1      -1.997  15.211  21.062  0.00  0.00    +0.000 A 
ATOM     17  N   UNL     1      -1.868  16.152  20.165  0.00  0.00    +0.000 NA
ATOM     18  C   UNL     1      -2.303  17.356  20.692  0.00  0.00    +0.000 A 
ATOM     19  C   UNL     1      -2.714  17.309  22.007  0.00  0.00    +0.000 A 
ATOM     20  S   UNL     1      -2.651  15.686  22.571  0.00  0.00    +0.000 S 
ATOM     21  H   UNL     1      -1.971  13.323  21.773  0.00  0.00    +0.000 HD
ENDBRANCH   8  13
BRANCH   7  22
ATOM     22  C   UNL     1      -1.890  10.896  18.307  0.00  0.00    +0.000 A 
ATOM     23  C   UNL     1      -1.785  10.129  17.131  0.00  0.00    +0.000 A 
ATOM     24  C   UNL     1      -2.810  10.116  16.186  0.00  0.00    +0.000 A 
ATOM     25  C   UNL     1      -3.917  10.909  16.415  0.00  0.00    +0.000 A 
ATOM     26  N   UNL     1      -4.069  11.667  17.518  0.00  0.00    +0.000 NA
ATOM     27  C   UNL     1      -3.080  11.614  18.444  0.00  0.00    +0.000 A 
ENDBRANCH   7  22
BRANCH   1  29
ATOM     28  C   UNL     1       3.004   4.487  18.782  0.00  0.00    +0.000 C 
ATOM     29  C   UNL     1       3.597   5.814  19.220  0.00  0.00    +0.000 C 
ENDBRANCH   1  29
TORSDOF 3
ENDMDL
MODEL 9
REMARK VINA RESULT:      -6.6      4.568      8.185
REMARK  Name = 
REMARK  4 active torsions:
REMARK  status: ('A' for Active; 'I' for Inactive)
REMARK    1  A    between atoms: C_1  and  C_2
REMARK    2  A    between atoms: C_2  and  N_3
REMARK    3  A    between atoms: C_9  and  C_10
REMARK    4  A    between atoms: C_16  and  C_17
REMARK                            x       y       z     vdW  Elec       q    Type
REMARK                         _______ _______ _______ _____ _____    ______ ____
ROOT
ATOM      1  N   UNL     1       2.760   6.078  20.436  0.00  0.00    +0.000 N 
ATOM      2  C   UNL     1       2.107   7.220  20.038  0.00  0.00    +0.000 C 
ATOM      3  O   UNL     1       2.160   7.651  18.891  0.00  0.00    +0.000 OA
ATOM      4  N   UNL     1       1.455   7.827  21.087  0.00  0.00    +0.000 N 
ATOM      5  C   UNL     1       0.816   9.062  20.914  0.00  0.00    +0.000 A 
ATOM      6  C   UNL     1      -0.046   9.286  19.849  0.00  0.00    +0.000 A 
ATOM      7  C   UNL     1      -0.620  10.558  19.617  0.00  0.00    +0.000 A 
ATOM      8  C   UNL     1      -0.228  11.590  20.496  0.00  0.00    +0.000 A 
ATOM      9  C   UNL     1       0.583  11.240  21.586  0.00  0.00    +0.000 A 
ATOM     10  N   UNL     1       1.085  10.000  21.830  0.00  0.00    +0.000 NA
ATOM     11  H   UNL     1       2.356   5.569  21.211  0.00  0.00    +0.000 HD
ATOM     12  H   UNL     1       1.945   7.771  21.967  0.00  0.00    +0.000 HD
ENDROOT
BRANCH   8  13
ATOM     13  C   UNL     1      -0.583  13.041  20.429  0.00  0.00    +0.000 C 
ATOM     14  O   UNL     1      -1.683  13.377  20.842  0.00  0.00    +0.000 OA
ATOM     15  N   UNL     1       0.365  13.889  19.890  0.00  0.00    +0.000 N 
ATOM     16  C   UNL     1       0.094  15.216  19.658  0.00  0.00    +0.000 A 
ATOM     17  N   UNL     1      -0.870  15.966  20.121  0.00  0.00    +0.000 NA
ATOM     18  C   UNL     1      -0.765  17.237  19.582  0.00  0.00    +0.000 A 
ATOM     19  C   UNL     1       0.260  17.410  18.676  0.00  0.00    +0.000 A 
ATOM     20  S   UNL     1       1.185  15.965  18.573  0.00  0.00    +0.000 S 
ATOM     21  H   UNL     1       1.236  13.557  19.514  0.00  0.00    +0.000 HD
ENDBRANCH   8  13
BRANCH   7  22
ATOM     22  C   UNL     1      -1.604  10.669  18.511  0.00  0.00    +0.000 A 
ATOM     23  C   UNL     1      -1.410  10.002  17.288  0.00  0.00    +0.000 A 
ATOM     24  C   UNL     1      -2.364  10.069  16.272  0.00  0.00    +0.000 A 
ATOM     25  C   UNL     1      -3.487  10.842  16.483  0.00  0.00    +0.000 A 
ATOM     26  N   UNL     1      -3.724  11.507  17.631  0.00  0.00    +0.000 NA
ATOM     27  C   UNL     1      -2.805  11.375  18.620  0.00  0.00    +0.000 A 
ENDBRANCH   7  22
BRANCH   1  29
ATOM     28  C   UNL     1       3.330   3.893  19.418  0.00  0.00    +0.000 C 
ATOM     29  C   UNL     1       3.653   5.371  19.539  0.00  0.00    +0.000 C 
ENDBRANCH   1  29
TORSDOF 3
ENDMDL
