MODEL 1
REMARK VINA RESULT:      -8.0      0.000      0.000
REMARK  Name = 
REMARK  3 active torsions:
REMARK  status: ('A' for Active; 'I' for Inactive)
REMARK    1  A    between atoms: C_1  and  C_2
REMARK    2  A    between atoms: C_7  and  C_8
REMARK    3  A    between atoms: C_16  and  C_18
REMARK                            x       y       z     vdW  Elec       q    Type
REMARK                         _______ _______ _______ _____ _____    ______ ____
ROOT
ATOM      1  C   UNL     1       2.599   7.171  18.635  0.00  0.00    +0.000 A 
ATOM      2  C   UNL     1       2.391   7.167  20.047  0.00  0.00    +0.000 A 
ATOM      3  C   UNL     1       1.593   8.259  20.321  0.00  0.00    +0.000 A 
ATOM      4  N   UNL     1       1.394   8.842  19.118  0.00  0.00    +0.000 N 
ATOM      5  N   UNL     1       1.964   8.221  18.088  0.00  0.00    +0.000 NA
ATOM      6  C   UNL     1       0.607  10.004  18.862  0.00  0.00    +0.000 C 
ATOM      7  C   UNL     1       0.053  10.640  20.114  0.00  0.00    +0.000 C 
ATOM      8  N   UNL     1       0.075   9.903  21.380  0.00  0.00    +0.000 N 
ATOM      9  C   UNL     1      -0.442  10.438  22.588  0.00  0.00    +0.000 C 
ATOM     10  O   UNL     1      -0.333   9.832  23.652  0.00  0.00    +0.000 OA
ATOM     11  C   UNL     1       1.030   8.803  21.576  0.00  0.00    +0.000 C 
ENDROOT
BRANCH   1  18
ATOM     12  C   UNL     1       1.738   4.268  18.368  0.00  0.00    +0.000 C 
ATOM     13  C   UNL     1       2.968   4.843  17.723  0.00  0.00    +0.000 A 
ATOM     14  C   UNL     1       3.804   3.997  16.982  0.00  0.00    +0.000 A 
ATOM     15  C   UNL     1       4.944   4.503  16.370  0.00  0.00    +0.000 A 
ATOM     16  C   UNL     1       5.216   5.850  16.507  0.00  0.00    +0.000 A 
ATOM     17  N   UNL     1       4.444   6.704  17.207  0.00  0.00    +0.000 NA
ATOM     18  C   UNL     1       3.340   6.194  17.825  0.00  0.00    +0.000 A 
ENDBRANCH   1  18
BRANCH   9  19
ATOM     19  C   UNL     1      -1.038  11.819  22.654  0.00  0.00    +0.000 A 
ATOM     20  C   UNL     1      -0.368  12.999  22.328  0.00  0.00    +0.000 A 
ATOM     21  C   UNL     1      -0.940  14.251  22.572  0.00  0.00    +0.000 A 
ATOM     22  C   UNL     1      -2.244  14.338  23.040  0.00  0.00    +0.000 A 
ATOM     23  C   UNL     1      -2.976  13.172  23.260  0.00  0.00    +0.000 A 
ATOM     24  C   UNL     1      -2.375  11.921  23.083  0.00  0.00    +0.000 A 
ENDBRANCH   9  19
TORSDOF 2
ENDMDL
MODEL 2
REMARK VINA RESULT:      -8.0      1.592      1.978
REMARK  Name = 
REMARK  3 active torsions:
REMARK  status: ('A' for Active; 'I' for Inactive)
REMARK    1  A    between atoms: C_1  and  C_2
REMARK    2  A    between atoms: C_7  and  C_8
REMARK    3  A    between atoms: C_16  and  C_18
REMARK                            x       y       z     vdW  Elec       q    Type
REMARK                         _______ _______ _______ _____ _____    ______ ____
ROOT
ATOM      1  C   UNL     1       2.726   7.088  18.431  0.00  0.00    +0.000 A 
ATOM      2  C   UNL     1       2.268   8.268  17.772  0.00  0.00    +0.000 A 
ATOM      3  C   UNL     1       1.627   9.022  18.734  0.00  0.00    +0.000 A 
ATOM      4  N   UNL     1       1.715   8.278  19.859  0.00  0.00    +0.000 N 
ATOM      5  N   UNL     1       2.370   7.126  19.726  0.00  0.00    +0.000 NA
ATOM      6  C   UNL     1       1.220   8.634  21.149  0.00  0.00    +0.000 C 
ATOM      7  C   UNL     1       0.459   9.938  21.160  0.00  0.00    +0.000 C 
ATOM      8  N   UNL     1       0.550  10.847  20.013  0.00  0.00    +0.000 N 
ATOM      9  C   UNL     1      -0.129  12.092  19.967  0.00  0.00    +0.000 C 
ATOM     10  O   UNL     1      -0.102  12.795  18.958  0.00  0.00    +0.000 OA
ATOM     11  C   UNL     1       0.944  10.333  18.695  0.00  0.00    +0.000 C 
ENDROOT
BRANCH   1  18
ATOM     12  C   UNL     1       1.501   4.385  17.774  0.00  0.00    +0.000 C 
ATOM     13  C   UNL     1       2.956   4.716  17.589  0.00  0.00    +0.000 A 
ATOM     14  C   UNL     1       3.825   3.720  17.125  0.00  0.00    +0.000 A 
ATOM     15  C   UNL     1       5.174   4.000  16.940  0.00  0.00    +0.000 A 
ATOM     16  C   UNL     1       5.619   5.278  17.216  0.00  0.00    +0.000 A 
ATOM     17  N   UNL     1       4.824   6.269  17.663  0.00  0.00    +0.000 NA
ATOM     18  C   UNL     1       3.507   5.979  17.866  0.00  0.00    +0.000 A 
ENDBRANCH   1  18
BRANCH   9  19
ATOM     19  C   UNL     1      -1.009  12.560  21.095  0.00  0.00    +0.000 A 
ATOM     20  C   UNL     1      -0.554  13.132  22.284  0.00  0.00    +0.000 A 
ATOM     21  C   UNL     1      -1.425  13.388  23.347  0.00  0.00    +0.000 A 
ATOM     22  C   UNL     1      -2.788  13.181  23.192  0.00  0.00    +0.000 A 
ATOM     23  C   UNL     1      -3.280  12.721  21.971  0.00  0.00    +0.000 A 
ATOM     24  C   UNL     1      -2.398  12.398  20.935  0.00  0.00    +0.000 A 
ENDBRANCH   9  19
TORSDOF 2
ENDMDL
MODEL 3
REMARK VINA RESULT:      -7.7      0.420      1.033
REMARK  Name = 
REMARK  3 active torsions:
REMARK  status: ('A' for Active; 'I' for Inactive)
REMARK    1  A    between atoms: C_1  and  C_2
REMARK    2  A    between atoms: C_7  and  C_8
REMARK    3  A    between atoms: C_16  and  C_18
REMARK                            x       y       z     vdW  Elec       q    Type
REMARK                         _______ _______ _______ _____ _____    ______ ____
ROOT
ATOM      1  C   UNL     1       2.513   7.253  18.650  0.00  0.00    +0.000 A 
ATOM      2  C   UNL     1       2.291   7.317  20.058  0.00  0.00    +0.000 A 
ATOM      3  C   UNL     1       1.469   8.406  20.268  0.00  0.00    +0.000 A 
ATOM      4  N   UNL     1       1.271   8.922  19.034  0.00  0.00    +0.000 N 
ATOM      5  N   UNL     1       1.864   8.260  18.043  0.00  0.00    +0.000 NA
ATOM      6  C   UNL     1       0.465  10.053  18.710  0.00  0.00    +0.000 C 
ATOM      7  C   UNL     1      -0.115  10.742  19.923  0.00  0.00    +0.000 C 
ATOM      8  N   UNL     1      -0.092  10.072  21.225  0.00  0.00    +0.000 N 
ATOM      9  C   UNL     1      -0.633  10.658  22.399  0.00  0.00    +0.000 C 
ATOM     10  O   UNL     1      -0.524  10.110  23.494  0.00  0.00    +0.000 OA
ATOM     11  C   UNL     1       0.881   9.003  21.487  0.00  0.00    +0.000 C 
ENDROOT
BRANCH   1  18
ATOM     12  C   UNL     1       1.566   4.386  18.293  0.00  0.00    +0.000 C 
ATOM     13  C   UNL     1       2.868   4.914  17.757  0.00  0.00    +0.000 A 
ATOM     14  C   UNL     1       3.730   4.039  17.084  0.00  0.00    +0.000 A 
ATOM     15  C   UNL     1       4.937   4.503  16.573  0.00  0.00    +0.000 A 
ATOM     16  C   UNL     1       5.247   5.838  16.741  0.00  0.00    +0.000 A 
ATOM     17  N   UNL     1       4.453   6.718  17.379  0.00  0.00    +0.000 NA
ATOM     18  C   UNL     1       3.282   6.250  17.899  0.00  0.00    +0.000 A 
ENDBRANCH   1  18
BRANCH   9  19
ATOM     19  C   UNL     1      -1.256  12.029  22.387  0.00  0.00    +0.000 A 
ATOM     20  C   UNL     1      -2.626  12.286  22.324  0.00  0.00    +0.000 A 
ATOM     21  C   UNL     1      -3.115  13.585  22.152  0.00  0.00    +0.000 A 
ATOM     22  C   UNL     1      -2.238  14.661  22.158  0.00  0.00    +0.000 A 
ATOM     23  C   UNL     1      -0.874  14.438  22.339  0.00  0.00    +0.000 A 
ATOM     24  C   UNL     1      -0.384  13.131  22.438  0.00  0.00    +0.000 A 
ENDBRANCH   9  19
TORSDOF 2
ENDMDL
MODEL 4
REMARK VINA RESULT:      -7.6      2.393      3.201
REMARK  Name = 
REMARK  3 active torsions:
REMARK  status: ('A' for Active; 'I' for Inactive)
REMARK    1  A    between atoms: C_1  and  C_2
REMARK    2  A    between atoms: C_7  and  C_8
REMARK    3  A    between atoms: C_16  and  C_18
REMARK                            x       y       z     vdW  Elec       q    Type
REMARK                         _______ _______ _______ _____ _____    ______ ____
ROOT
ATOM      1  C   UNL     1       2.362   5.874  19.165  0.00  0.00    +0.000 A 
ATOM      2  C   UNL     1       1.956   6.527  20.367  0.00  0.00    +0.000 A 
ATOM      3  C   UNL     1       1.720   7.844  20.027  0.00  0.00    +0.000 A 
ATOM      4  N   UNL     1       2.003   7.908  18.707  0.00  0.00    +0.000 N 
ATOM      5  N   UNL     1       2.378   6.756  18.153  0.00  0.00    +0.000 NA
ATOM      6  C   UNL     1       1.893   9.060  17.874  0.00  0.00    +0.000 C 
ATOM      7  C   UNL     1       1.505  10.310  18.627  0.00  0.00    +0.000 C 
ATOM      8  N   UNL     1       0.986  10.208  19.994  0.00  0.00    +0.000 N 
ATOM      9  C   UNL     1       0.590  11.341  20.750  0.00  0.00    +0.000 C 
ATOM     10  O   UNL     1       0.238  11.234  21.923  0.00  0.00    +0.000 OA
ATOM     11  C   UNL     1       1.281   9.021  20.808  0.00  0.00    +0.000 C 
ENDROOT
BRANCH   1  18
ATOM     12  C   UNL     1       5.214   4.822  19.196  0.00  0.00    +0.000 C 
ATOM     13  C   UNL     1       4.004   3.964  18.952  0.00  0.00    +0.000 A 
ATOM     14  C   UNL     1       4.183   2.601  18.681  0.00  0.00    +0.000 A 
ATOM     15  C   UNL     1       3.081   1.783  18.456  0.00  0.00    +0.000 A 
ATOM     16  C   UNL     1       1.824   2.350  18.520  0.00  0.00    +0.000 A 
ATOM     17  N   UNL     1       1.600   3.653  18.778  0.00  0.00    +0.000 NA
ATOM     18  C   UNL     1       2.686   4.454  18.972  0.00  0.00    +0.000 A 
ENDBRANCH   1  18
BRANCH   9  19
ATOM     19  C   UNL     1       0.696  12.739  20.200  0.00  0.00    +0.000 A 
ATOM     20  C   UNL     1      -0.294  13.387  19.459  0.00  0.00    +0.000 A 
ATOM     21  C   UNL     1      -0.053  14.620  18.847  0.00  0.00    +0.000 A 
ATOM     22  C   UNL     1       1.148  15.280  19.066  0.00  0.00    +0.000 A 
ATOM     23  C   UNL     1       2.106  14.707  19.901  0.00  0.00    +0.000 A 
ATOM     24  C   UNL     1       1.890  13.440  20.452  0.00  0.00    +0.000 A 
ENDBRANCH   9  19
TORSDOF 2
ENDMDL
MODEL 5
REMARK VINA RESULT:      -7.5      1.703      2.394
REMARK  Name = 
REMARK  3 active torsions:
REMARK  status: ('A' for Active; 'I' for Inactive)
REMARK    1  A    between atoms: C_1  and  C_2
REMARK    2  A    between atoms: C_7  and  C_8
REMARK    3  A    between atoms: C_16  and  C_18
REMARK                            x       y       z     vdW  Elec       q    Type
REMARK                         _______ _______ _______ _____ _____    ______ ____
ROOT
ATOM      1  C   UNL     1       2.595   6.937  18.477  0.00  0.00    +0.000 A 
ATOM      2  C   UNL     1       2.177   8.126  17.808  0.00  0.00    +0.000 A 
ATOM      3  C   UNL     1       1.603   8.928  18.773  0.00  0.00    +0.000 A 
ATOM      4  N   UNL     1       1.685   8.201  19.909  0.00  0.00    +0.000 N 
ATOM      5  N   UNL     1       2.278   7.016  19.780  0.00  0.00    +0.000 NA
ATOM      6  C   UNL     1       1.246   8.604  21.205  0.00  0.00    +0.000 C 
ATOM      7  C   UNL     1       0.550   9.945  21.212  0.00  0.00    +0.000 C 
ATOM      8  N   UNL     1       0.653  10.828  20.046  0.00  0.00    +0.000 N 
ATOM      9  C   UNL     1       0.037  12.104  19.994  0.00  0.00    +0.000 C 
ATOM     10  O   UNL     1       0.069  12.787  18.972  0.00  0.00    +0.000 OA
ATOM     11  C   UNL     1       0.984  10.271  18.727  0.00  0.00    +0.000 C 
ENDROOT
BRANCH   1  18
ATOM     12  C   UNL     1       5.402   7.133  17.328  0.00  0.00    +0.000 C 
ATOM     13  C   UNL     1       4.589   5.869  17.349  0.00  0.00    +0.000 A 
ATOM     14  C   UNL     1       5.123   4.709  16.772  0.00  0.00    +0.000 A 
ATOM     15  C   UNL     1       4.394   3.525  16.783  0.00  0.00    +0.000 A 
ATOM     16  C   UNL     1       3.150   3.530  17.380  0.00  0.00    +0.000 A 
ATOM     17  N   UNL     1       2.594   4.617  17.948  0.00  0.00    +0.000 NA
ATOM     18  C   UNL     1       3.304   5.781  17.912  0.00  0.00    +0.000 A 
ENDBRANCH   1  18
BRANCH   9  19
ATOM     19  C   UNL     1      -0.787  12.635  21.137  0.00  0.00    +0.000 A 
ATOM     20  C   UNL     1      -0.296  13.413  22.187  0.00  0.00    +0.000 A 
ATOM     21  C   UNL     1      -1.092  13.727  23.293  0.00  0.00    +0.000 A 
ATOM     22  C   UNL     1      -2.431  13.363  23.309  0.00  0.00    +0.000 A 
ATOM     23  C   UNL     1      -2.975  12.688  22.217  0.00  0.00    +0.000 A 
ATOM     24  C   UNL     1      -2.157  12.313  21.145  0.00  0.00    +0.000 A 
ENDBRANCH   9  19
TORSDOF 2
ENDMDL
MODEL 6
REMARK VINA RESULT:      -7.5      2.215      8.883
REMARK  Name = 
REMARK  3 active torsions:
REMARK  status: ('A' for Active; 'I' for Inactive)
REMARK    1  A    between atoms: C_1  and  C_2
REMARK    2  A    between atoms: C_7  and  C_8
REMARK    3  A    between atoms: C_16  and  C_18
REMARK                            x       y       z     vdW  Elec       q    Type
REMARK                         _______ _______ _______ _____ _____    ______ ____
ROOT
ATOM      1  C   UNL     1       0.450   9.569  20.486  0.00  0.00    +0.000 A 
ATOM      2  C   UNL     1       0.912   8.306  20.963  0.00  0.00    +0.000 A 
ATOM      3  C   UNL     1       1.794   7.836  20.011  0.00  0.00    +0.000 A 
ATOM      4  N   UNL     1       1.796   8.788  19.052  0.00  0.00    +0.000 N 
ATOM      5  N   UNL     1       1.019   9.841  19.300  0.00  0.00    +0.000 NA
ATOM      6  C   UNL     1       2.572   8.783  17.856  0.00  0.00    +0.000 C 
ATOM      7  C   UNL     1       3.375   7.517  17.668  0.00  0.00    +0.000 C 
ATOM      8  N   UNL     1       3.553   6.591  18.790  0.00  0.00    +0.000 N 
ATOM      9  C   UNL     1       4.306   5.394  18.684  0.00  0.00    +0.000 C 
ATOM     10  O   UNL     1       4.368   4.595  19.617  0.00  0.00    +0.000 OA
ATOM     11  C   UNL     1       2.603   6.601  19.911  0.00  0.00    +0.000 C 
ENDROOT
BRANCH   1  18
ATOM     12  C   UNL     1      -0.022   9.563  23.489  0.00  0.00    +0.000 C 
ATOM     13  C   UNL     1      -0.719  10.488  22.530  0.00  0.00    +0.000 A 
ATOM     14  C   UNL     1      -1.678  11.381  23.025  0.00  0.00    +0.000 A 
ATOM     15  C   UNL     1      -2.334  12.251  22.162  0.00  0.00    +0.000 A 
ATOM     16  C   UNL     1      -2.006  12.211  20.821  0.00  0.00    +0.000 A 
ATOM     17  N   UNL     1      -1.092  11.372  20.297  0.00  0.00    +0.000 NA
ATOM     18  C   UNL     1      -0.471  10.505  21.147  0.00  0.00    +0.000 A 
ENDBRANCH   1  18
BRANCH   9  19
ATOM     19  C   UNL     1       4.965   4.982  17.395  0.00  0.00    +0.000 A 
ATOM     20  C   UNL     1       4.379   4.180  16.414  0.00  0.00    +0.000 A 
ATOM     21  C   UNL     1       5.116   3.710  15.324  0.00  0.00    +0.000 A 
ATOM     22  C   UNL     1       6.425   4.133  15.138  0.00  0.00    +0.000 A 
ATOM     23  C   UNL     1       6.994   5.030  16.041  0.00  0.00    +0.000 A 
ATOM     24  C   UNL     1       6.276   5.440  17.169  0.00  0.00    +0.000 A 
ENDBRANCH   9  19
TORSDOF 2
ENDMDL
MODEL 7
REMARK VINA RESULT:      -7.5      2.310      2.997
REMARK  Name = 
REMARK  3 active torsions:
REMARK  status: ('A' for Active; 'I' for Inactive)
REMARK    1  A    between atoms: C_1  and  C_2
REMARK    2  A    between atoms: C_7  and  C_8
REMARK    3  A    between atoms: C_16  and  C_18
REMARK                            x       y       z     vdW  Elec       q    Type
REMARK                         _______ _______ _______ _____ _____    ______ ____
ROOT
ATOM      1  C   UNL     1       2.407   5.794  19.054  0.00  0.00    +0.000 A 
ATOM      2  C   UNL     1       2.058   6.433  20.281  0.00  0.00    +0.000 A 
ATOM      3  C   UNL     1       1.805   7.753  19.968  0.00  0.00    +0.000 A 
ATOM      4  N   UNL     1       2.026   7.833  18.637  0.00  0.00    +0.000 N 
ATOM      5  N   UNL     1       2.374   6.688  18.052  0.00  0.00    +0.000 NA
ATOM      6  C   UNL     1       1.875   8.994  17.823  0.00  0.00    +0.000 C 
ATOM      7  C   UNL     1       1.522  10.235  18.609  0.00  0.00    +0.000 C 
ATOM      8  N   UNL     1       1.068  10.116  19.997  0.00  0.00    +0.000 N 
ATOM      9  C   UNL     1       0.707  11.240  20.784  0.00  0.00    +0.000 C 
ATOM     10  O   UNL     1       0.411  11.118  21.971  0.00  0.00    +0.000 OA
ATOM     11  C   UNL     1       1.402   8.920  20.782  0.00  0.00    +0.000 C 
ENDROOT
BRANCH   1  18
ATOM     12  C   UNL     1       0.708   3.534  20.171  0.00  0.00    +0.000 C 
ATOM     13  C   UNL     1       1.962   3.325  19.368  0.00  0.00    +0.000 A 
ATOM     14  C   UNL     1       2.414   2.019  19.144  0.00  0.00    +0.000 A 
ATOM     15  C   UNL     1       3.568   1.797  18.401  0.00  0.00    +0.000 A 
ATOM     16  C   UNL     1       4.236   2.892  17.890  0.00  0.00    +0.000 A 
ATOM     17  N   UNL     1       3.842   4.166  18.077  0.00  0.00    +0.000 NA
ATOM     18  C   UNL     1       2.723   4.377  18.828  0.00  0.00    +0.000 A 
ENDBRANCH   1  18
BRANCH   9  19
ATOM     19  C   UNL     1       0.786  12.644  20.246  0.00  0.00    +0.000 A 
ATOM     20  C   UNL     1      -0.234  13.295  19.550  0.00  0.00    +0.000 A 
ATOM     21  C   UNL     1      -0.022  14.536  18.943  0.00  0.00    +0.000 A 
ATOM     22  C   UNL     1       1.184  15.200  19.125  0.00  0.00    +0.000 A 
ATOM     23  C   UNL     1       2.175  14.623  19.917  0.00  0.00    +0.000 A 
ATOM     24  C   UNL     1       1.985  13.348  20.462  0.00  0.00    +0.000 A 
ENDBRANCH   9  19
TORSDOF 2
ENDMDL
MODEL 8
REMARK VINA RESULT:      -7.4      3.030      8.381
REMARK  Name = 
REMARK  3 active torsions:
REMARK  status: ('A' for Active; 'I' for Inactive)
REMARK    1  A    between atoms: C_1  and  C_2
REMARK    2  A    between atoms: C_7  and  C_8
REMARK    3  A    between atoms: C_16  and  C_18
REMARK                            x       y       z     vdW  Elec       q    Type
REMARK                         _______ _______ _______ _____ _____    ______ ____
ROOT
ATOM      1  C   UNL     1       1.196  11.017  19.198  0.00  0.00    +0.000 A 
ATOM      2  C   UNL     1       0.924  10.073  20.233  0.00  0.00    +0.000 A 
ATOM      3  C   UNL     1       1.443   8.869  19.801  0.00  0.00    +0.000 A 
ATOM      4  N   UNL     1       1.954   9.141  18.579  0.00  0.00    +0.000 N 
ATOM      5  N   UNL     1       1.838  10.408  18.188  0.00  0.00    +0.000 NA
ATOM      6  C   UNL     1       2.628   8.223  17.721  0.00  0.00    +0.000 C 
ATOM      7  C   UNL     1       2.654   6.811  18.256  0.00  0.00    +0.000 C 
ATOM      8  N   UNL     1       2.308   6.554  19.657  0.00  0.00    +0.000 N 
ATOM      9  C   UNL     1       2.326   5.254  20.225  0.00  0.00    +0.000 C 
ATOM     10  O   UNL     1       1.949   5.057  21.379  0.00  0.00    +0.000 OA
ATOM     11  C   UNL     1       1.489   7.519  20.403  0.00  0.00    +0.000 C 
ENDROOT
BRANCH   1  18
ATOM     12  C   UNL     1      -1.425  12.128  18.132  0.00  0.00    +0.000 C 
ATOM     13  C   UNL     1      -0.304  12.979  18.660  0.00  0.00    +0.000 A 
ATOM     14  C   UNL     1      -0.438  14.374  18.630  0.00  0.00    +0.000 A 
ATOM     15  C   UNL     1       0.581  15.184  19.117  0.00  0.00    +0.000 A 
ATOM     16  C   UNL     1       1.709  14.576  19.632  0.00  0.00    +0.000 A 
ATOM     17  N   UNL     1       1.885  13.242  19.683  0.00  0.00    +0.000 NA
ATOM     18  C   UNL     1       0.892  12.454  19.181  0.00  0.00    +0.000 A 
ENDBRANCH   1  18
BRANCH   9  19
ATOM     19  C   UNL     1       2.689   4.038  19.414  0.00  0.00    +0.000 A 
ATOM     20  C   UNL     1       1.917   3.501  18.383  0.00  0.00    +0.000 A 
ATOM     21  C   UNL     1       2.245   2.278  17.791  0.00  0.00    +0.000 A 
ATOM     22  C   UNL     1       3.419   1.629  18.145  0.00  0.00    +0.000 A 
ATOM     23  C   UNL     1       4.268   2.207  19.088  0.00  0.00    +0.000 A 
ATOM     24  C   UNL     1       3.900   3.394  19.730  0.00  0.00    +0.000 A 
ENDBRANCH   9  19
TORSDOF 2
ENDMDL
MODEL 9
REMARK VINA RESULT:      -7.4      2.246      8.842
REMARK  Name = 
REMARK  3 active torsions:
REMARK  status: ('A' for Active; 'I' for Inactive)
REMARK    1  A    between atoms: C_1  and  C_2
REMARK    2  A    between atoms: C_7  and  C_8
REMARK    3  A    between atoms: C_16  and  C_18
REMARK                            x       y       z     vdW  Elec       q    Type
REMARK                         _______ _______ _______ _____ _____    ______ ____
ROOT
ATOM      1  C   UNL     1       0.585   9.443  20.432  0.00  0.00    +0.000 A 
ATOM      2  C   UNL     1       0.993   8.165  20.919  0.00  0.00    +0.000 A 
ATOM      3  C   UNL     1       1.898   7.675  19.998  0.00  0.00    +0.000 A 
ATOM      4  N   UNL     1       1.962   8.632  19.046  0.00  0.00    +0.000 N 
ATOM      5  N   UNL     1       1.206   9.705  19.271  0.00  0.00    +0.000 NA
ATOM      6  C   UNL     1       2.784   8.611  17.880  0.00  0.00    +0.000 C 
ATOM      7  C   UNL     1       3.557   7.324  17.715  0.00  0.00    +0.000 C 
ATOM      8  N   UNL     1       3.666   6.388  18.837  0.00  0.00    +0.000 N 
ATOM      9  C   UNL     1       4.389   5.170  18.753  0.00  0.00    +0.000 C 
ATOM     10  O   UNL     1       4.393   4.365  19.682  0.00  0.00    +0.000 OA
ATOM     11  C   UNL     1       2.674   6.419  19.921  0.00  0.00    +0.000 C 
ENDROOT
BRANCH   1  18
ATOM     12  C   UNL     1       0.075   9.499  23.428  0.00  0.00    +0.000 C 
ATOM     13  C   UNL     1      -0.600  10.413  22.444  0.00  0.00    +0.000 A 
ATOM     14  C   UNL     1      -1.555  11.326  22.909  0.00  0.00    +0.000 A 
ATOM     15  C   UNL     1      -2.190  12.186  22.021  0.00  0.00    +0.000 A 
ATOM     16  C   UNL     1      -1.845  12.117  20.686  0.00  0.00    +0.000 A 
ATOM     17  N   UNL     1      -0.934  11.258  20.189  0.00  0.00    +0.000 NA
ATOM     18  C   UNL     1      -0.333  10.401  21.063  0.00  0.00    +0.000 A 
ENDBRANCH   1  18
BRANCH   9  19
ATOM     19  C   UNL     1       5.085   4.747  17.487  0.00  0.00    +0.000 A 
ATOM     20  C   UNL     1       6.421   5.007  17.180  0.00  0.00    +0.000 A 
ATOM     21  C   UNL     1       6.945   4.723  15.915  0.00  0.00    +0.000 A 
ATOM     22  C   UNL     1       6.166   4.065  14.974  0.00  0.00    +0.000 A 
ATOM     23  C   UNL     1       4.865   3.688  15.300  0.00  0.00    +0.000 A 
ATOM     24  C   UNL     1       4.321   4.038  16.540  0.00  0.00    +0.000 A 
ENDBRANCH   9  19
TORSDOF 2
ENDMDL
