MODEL 1
REMARK VINA RESULT:      -8.3      0.000      0.000
REMARK  Name = 
REMARK  5 active torsions:
REMARK  status: ('A' for Active; 'I' for Inactive)
REMARK    1  A    between atoms: C_1  and  C_2
REMARK    2  A    between atoms: C_2  and  C_3
REMARK    3  A    between atoms: C_3  and  C_4
REMARK    4  A    between atoms: N_6  and  C_7
REMARK    5  A    between atoms: C_7  and  C_8
REMARK                            x       y       z     vdW  Elec       q    Type
REMARK                         _______ _______ _______ _____ _____    ______ ____
ROOT
ATOM      1  C   UNL     1       2.073   3.296  19.642  0.00  0.00    +0.000 C 
ENDROOT
BRANCH   1   3
ATOM      2  C   UNL     1       3.525   1.661  18.374  0.00  0.00    +0.000 C 
ATOM      3  C   UNL     1       3.398   3.100  18.869  0.00  0.00    +0.000 C 
ATOM      4  C   UNL     1       3.533   4.162  17.795  0.00  0.00    +0.000 C 
ATOM      5  C   UNL     1       5.029   4.444  17.712  0.00  0.00    +0.000 C 
ATOM      6  C   UNL     1       5.344   5.948  17.648  0.00  0.00    +0.000 C 
ATOM      7  C   UNL     1       4.931   6.549  16.307  0.00  0.00    +0.000 C 
ATOM      8  C   UNL     1       5.561   5.795  15.135  0.00  0.00    +0.000 C 
ATOM      9  C   UNL     1       5.326   4.289  15.205  0.00  0.00    +0.000 C 
ATOM     10  C   UNL     1       5.738   3.732  16.557  0.00  0.00    +0.000 C 
ATOM     11  O   UNL     1       5.601   3.914  18.906  0.00  0.00    +0.000 OA
ATOM     12  O   UNL     1       4.517   3.370  19.705  0.00  0.00    +0.000 OA
ENDBRANCH   1   3
BRANCH   1  13
ATOM     13  C   UNL     1       2.188   4.023  20.980  0.00  0.00    +0.000 C 
ATOM     14  O   UNL     1       2.223   3.402  22.039  0.00  0.00    +0.000 OA
ATOM     15  N   UNL     1       2.176   5.395  21.010  0.00  0.00    +0.000 N 
ATOM     16  H   UNL     1       2.374   5.763  21.933  0.00  0.00    +0.000 HD
BRANCH  15  17
ATOM     17  C   UNL     1       2.527   6.229  19.889  0.00  0.00    +0.000 C 
BRANCH  17  18
ATOM     18  C   UNL     1       1.985   7.613  19.875  0.00  0.00    +0.000 A 
ATOM     19  C   UNL     1       2.014   8.340  18.680  0.00  0.00    +0.000 A 
ATOM     20  C   UNL     1       1.367   9.554  18.630  0.00  0.00    +0.000 A 
ATOM     21  N   UNL     1       0.702  10.087  19.677  0.00  0.00    +0.000 NA
ATOM     22  C   UNL     1       0.674   9.359  20.817  0.00  0.00    +0.000 A 
ATOM     23  C   UNL     1       1.288   8.131  20.965  0.00  0.00    +0.000 A 
ENDBRANCH  17  18
ENDBRANCH  15  17
ENDBRANCH   1  13
TORSDOF 4
ENDMDL
MODEL 2
REMARK VINA RESULT:      -8.1      0.660      1.189
REMARK  Name = 
REMARK  5 active torsions:
REMARK  status: ('A' for Active; 'I' for Inactive)
REMARK    1  A    between atoms: C_1  and  C_2
REMARK    2  A    between atoms: C_2  and  C_3
REMARK    3  A    between atoms: C_3  and  C_4
REMARK    4  A    between atoms: N_6  and  C_7
REMARK    5  A    between atoms: C_7  and  C_8
REMARK                            x       y       z     vdW  Elec       q    Type
REMARK                         _______ _______ _______ _____ _____    ______ ____
ROOT
ATOM      1  C   UNL     1       1.547   3.843  19.016  0.00  0.00    +0.000 C 
ENDROOT
BRANCH   1   3
ATOM      2  C   UNL     1       2.821   1.971  17.893  0.00  0.00    +0.000 C 
ATOM      3  C   UNL     1       2.893   3.413  18.387  0.00  0.00    +0.000 C 
ATOM      4  C   UNL     1       3.324   4.427  17.345  0.00  0.00    +0.000 C 
ATOM      5  C   UNL     1       4.847   4.445  17.425  0.00  0.00    +0.000 C 
ATOM      6  C   UNL     1       5.422   5.871  17.412  0.00  0.00    +0.000 C 
ATOM      7  C   UNL     1       5.266   6.524  16.041  0.00  0.00    +0.000 C 
ATOM      8  C   UNL     1       5.878   5.663  14.934  0.00  0.00    +0.000 C 
ATOM      9  C   UNL     1       5.379   4.220  14.963  0.00  0.00    +0.000 C 
ATOM     10  C   UNL     1       5.541   3.612  16.346  0.00  0.00    +0.000 C 
ATOM     11  O   UNL     1       5.187   3.833  18.668  0.00  0.00    +0.000 OA
ATOM     12  O   UNL     1       3.946   3.492  19.340  0.00  0.00    +0.000 OA
ENDBRANCH   1   3
BRANCH   1  13
ATOM     13  C   UNL     1       1.593   4.198  20.500  0.00  0.00    +0.000 C 
ATOM     14  O   UNL     1       1.246   3.390  21.357  0.00  0.00    +0.000 OA
ATOM     15  N   UNL     1       1.955   5.464  20.884  0.00  0.00    +0.000 N 
ATOM     16  H   UNL     1       2.061   5.549  21.888  0.00  0.00    +0.000 HD
BRANCH  15  17
ATOM     17  C   UNL     1       2.735   6.361  20.070  0.00  0.00    +0.000 C 
BRANCH  17  18
ATOM     18  C   UNL     1       2.054   7.578  19.553  0.00  0.00    +0.000 A 
ATOM     19  C   UNL     1       1.343   8.386  20.447  0.00  0.00    +0.000 A 
ATOM     20  C   UNL     1       0.853   9.592  19.999  0.00  0.00    +0.000 A 
ATOM     21  N   UNL     1       1.022  10.041  18.737  0.00  0.00    +0.000 NA
ATOM     22  C   UNL     1       1.725   9.249  17.895  0.00  0.00    +0.000 A 
ATOM     23  C   UNL     1       2.259   8.027  18.250  0.00  0.00    +0.000 A 
ENDBRANCH  17  18
ENDBRANCH  15  17
ENDBRANCH   1  13
TORSDOF 4
ENDMDL
MODEL 3
REMARK VINA RESULT:      -7.9      3.275      6.757
REMARK  Name = 
REMARK  5 active torsions:
REMARK  status: ('A' for Active; 'I' for Inactive)
REMARK    1  A    between atoms: C_1  and  C_2
REMARK    2  A    between atoms: C_2  and  C_3
REMARK    3  A    between atoms: C_3  and  C_4
REMARK    4  A    between atoms: N_6  and  C_7
REMARK    5  A    between atoms: C_7  and  C_8
REMARK                            x       y       z     vdW  Elec       q    Type
REMARK                         _______ _______ _______ _____ _____    ______ ____
ROOT
ATOM      1  C   UNL     1       4.996   6.818  16.563  0.00  0.00    +0.000 C 
ENDROOT
BRANCH   1   3
ATOM      2  C   UNL     1       3.015   7.399  18.020  0.00  0.00    +0.000 C 
ATOM      3  C   UNL     1       4.082   6.350  17.719  0.00  0.00    +0.000 C 
ATOM      4  C   UNL     1       3.550   4.960  17.428  0.00  0.00    +0.000 C 
ATOM      5  C   UNL     1       3.441   4.291  18.794  0.00  0.00    +0.000 C 
ATOM      6  C   UNL     1       3.987   2.853  18.793  0.00  0.00    +0.000 C 
ATOM      7  C   UNL     1       3.076   1.910  18.012  0.00  0.00    +0.000 C 
ATOM      8  C   UNL     1       1.637   1.962  18.528  0.00  0.00    +0.000 C 
ATOM      9  C   UNL     1       1.088   3.383  18.608  0.00  0.00    +0.000 C 
ATOM     10  C   UNL     1       2.028   4.292  19.381  0.00  0.00    +0.000 C 
ATOM     11  O   UNL     1       4.234   5.074  19.685  0.00  0.00    +0.000 OA
ATOM     12  O   UNL     1       4.834   6.144  18.909  0.00  0.00    +0.000 OA
ENDBRANCH   1   3
BRANCH   1  13
ATOM     13  C   UNL     1       6.478   6.955  16.905  0.00  0.00    +0.000 C 
ATOM     14  O   UNL     1       6.891   7.902  17.570  0.00  0.00    +0.000 OA
ATOM     15  N   UNL     1       7.378   6.050  16.401  0.00  0.00    +0.000 N 
ATOM     16  H   UNL     1       8.307   6.173  16.786  0.00  0.00    +0.000 HD
BRANCH  15  17
ATOM     17  C   UNL     1       7.026   4.724  15.960  0.00  0.00    +0.000 C 
BRANCH  17  18
ATOM     18  C   UNL     1       6.802   4.529  14.503  0.00  0.00    +0.000 A 
ATOM     19  C   UNL     1       7.690   5.119  13.597  0.00  0.00    +0.000 A 
ATOM     20  C   UNL     1       7.577   4.803  12.262  0.00  0.00    +0.000 A 
ATOM     21  N   UNL     1       6.650   3.951  11.775  0.00  0.00    +0.000 NA
ATOM     22  C   UNL     1       5.812   3.382  12.672  0.00  0.00    +0.000 A 
ATOM     23  C   UNL     1       5.849   3.630  14.029  0.00  0.00    +0.000 A 
ENDBRANCH  17  18
ENDBRANCH  15  17
ENDBRANCH   1  13
TORSDOF 4
ENDMDL
MODEL 4
REMARK VINA RESULT:      -7.8      3.265      6.801
REMARK  Name = 
REMARK  5 active torsions:
REMARK  status: ('A' for Active; 'I' for Inactive)
REMARK    1  A    between atoms: C_1  and  C_2
REMARK    2  A    between atoms: C_2  and  C_3
REMARK    3  A    between atoms: C_3  and  C_4
REMARK    4  A    between atoms: N_6  and  C_7
REMARK    5  A    between atoms: C_7  and  C_8
REMARK                            x       y       z     vdW  Elec       q    Type
REMARK                         _______ _______ _______ _____ _____    ______ ____
ROOT
ATOM      1  C   UNL     1       4.934   6.781  16.481  0.00  0.00    +0.000 C 
ENDROOT
BRANCH   1   3
ATOM      2  C   UNL     1       3.055   7.399  18.054  0.00  0.00    +0.000 C 
ATOM      3  C   UNL     1       4.083   6.331  17.691  0.00  0.00    +0.000 C 
ATOM      4  C   UNL     1       3.511   4.950  17.435  0.00  0.00    +0.000 C 
ATOM      5  C   UNL     1       3.472   4.284  18.807  0.00  0.00    +0.000 C 
ATOM      6  C   UNL     1       3.992   2.838  18.776  0.00  0.00    +0.000 C 
ATOM      7  C   UNL     1       3.019   1.909  18.053  0.00  0.00    +0.000 C 
ATOM      8  C   UNL     1       1.615   1.987  18.655  0.00  0.00    +0.000 C 
ATOM      9  C   UNL     1       1.097   3.418  18.765  0.00  0.00    +0.000 C 
ATOM     10  C   UNL     1       2.097   4.311  19.478  0.00  0.00    +0.000 C 
ATOM     11  O   UNL     1       4.331   5.054  19.647  0.00  0.00    +0.000 OA
ATOM     12  O   UNL     1       4.902   6.113  18.834  0.00  0.00    +0.000 OA
ENDBRANCH   1   3
BRANCH   1  13
ATOM     13  C   UNL     1       6.421   6.992  16.759  0.00  0.00    +0.000 C 
ATOM     14  O   UNL     1       6.822   7.997  17.341  0.00  0.00    +0.000 OA
ATOM     15  N   UNL     1       7.335   6.084  16.288  0.00  0.00    +0.000 N 
ATOM     16  H   UNL     1       8.272   6.265  16.629  0.00  0.00    +0.000 HD
BRANCH  15  17
ATOM     17  C   UNL     1       7.017   4.720  15.953  0.00  0.00    +0.000 C 
BRANCH  17  18
ATOM     18  C   UNL     1       6.904   4.382  14.509  0.00  0.00    +0.000 A 
ATOM     19  C   UNL     1       5.838   3.582  14.082  0.00  0.00    +0.000 A 
ATOM     20  C   UNL     1       5.645   3.408  12.730  0.00  0.00    +0.000 A 
ATOM     21  N   UNL     1       6.433   3.967  11.787  0.00  0.00    +0.000 NA
ATOM     22  C   UNL     1       7.448   4.747  12.224  0.00  0.00    +0.000 A 
ATOM     23  C   UNL     1       7.721   4.987  13.555  0.00  0.00    +0.000 A 
ENDBRANCH  17  18
ENDBRANCH  15  17
ENDBRANCH   1  13
TORSDOF 4
ENDMDL
MODEL 5
REMARK VINA RESULT:      -7.7      4.178      6.073
REMARK  Name = 
REMARK  5 active torsions:
REMARK  status: ('A' for Active; 'I' for Inactive)
REMARK    1  A    between atoms: C_1  and  C_2
REMARK    2  A    between atoms: C_2  and  C_3
REMARK    3  A    between atoms: C_3  and  C_4
REMARK    4  A    between atoms: N_6  and  C_7
REMARK    5  A    between atoms: C_7  and  C_8
REMARK                            x       y       z     vdW  Elec       q    Type
REMARK                         _______ _______ _______ _____ _____    ______ ____
ROOT
ATOM      1  C   UNL     1       6.783   5.948  17.405  0.00  0.00    +0.000 C 
ENDROOT
BRANCH   1   3
ATOM      2  C   UNL     1       4.496   7.011  17.245  0.00  0.00    +0.000 C 
ATOM      3  C   UNL     1       5.315   5.896  17.890  0.00  0.00    +0.000 C 
ATOM      4  C   UNL     1       4.757   4.499  17.701  0.00  0.00    +0.000 C 
ATOM      5  C   UNL     1       3.791   4.305  18.865  0.00  0.00    +0.000 C 
ATOM      6  C   UNL     1       3.944   2.931  19.537  0.00  0.00    +0.000 C 
ATOM      7  C   UNL     1       3.434   1.808  18.637  0.00  0.00    +0.000 C 
ATOM      8  C   UNL     1       1.991   2.056  18.192  0.00  0.00    +0.000 C 
ATOM      9  C   UNL     1       1.789   3.441  17.583  0.00  0.00    +0.000 C 
ATOM     10  C   UNL     1       2.321   4.527  18.503  0.00  0.00    +0.000 C 
ATOM     11  O   UNL     1       4.113   5.313  19.821  0.00  0.00    +0.000 OA
ATOM     12  O   UNL     1       5.241   6.065  19.300  0.00  0.00    +0.000 OA
ENDBRANCH   1   3
BRANCH   1  13
ATOM     13  C   UNL     1       7.833   6.154  18.495  0.00  0.00    +0.000 C 
ATOM     14  O   UNL     1       8.241   5.212  19.169  0.00  0.00    +0.000 OA
ATOM     15  N   UNL     1       8.274   7.421  18.781  0.00  0.00    +0.000 N 
ATOM     16  H   UNL     1       9.048   7.423  19.435  0.00  0.00    +0.000 HD
BRANCH  15  17
ATOM     17  C   UNL     1       8.197   8.528  17.862  0.00  0.00    +0.000 C 
BRANCH  17  18
ATOM     18  C   UNL     1       8.588   9.868  18.377  0.00  0.00    +0.000 A 
ATOM     19  C   UNL     1       9.315   9.949  19.570  0.00  0.00    +0.000 A 
ATOM     20  C   UNL     1       9.813  11.172  19.956  0.00  0.00    +0.000 A 
ATOM     21  N   UNL     1       9.638  12.306  19.244  0.00  0.00    +0.000 NA
ATOM     22  C   UNL     1       8.944  12.200  18.088  0.00  0.00    +0.000 A 
ATOM     23  C   UNL     1       8.409  11.020  17.613  0.00  0.00    +0.000 A 
ENDBRANCH  17  18
ENDBRANCH  15  17
ENDBRANCH   1  13
TORSDOF 4
ENDMDL
MODEL 6
REMARK VINA RESULT:      -7.5      1.778      4.221
REMARK  Name = 
REMARK  5 active torsions:
REMARK  status: ('A' for Active; 'I' for Inactive)
REMARK    1  A    between atoms: C_1  and  C_2
REMARK    2  A    between atoms: C_2  and  C_3
REMARK    3  A    between atoms: C_3  and  C_4
REMARK    4  A    between atoms: N_6  and  C_7
REMARK    5  A    between atoms: C_7  and  C_8
REMARK                            x       y       z     vdW  Elec       q    Type
REMARK                         _______ _______ _______ _____ _____    ______ ____
ROOT
ATOM      1  C   UNL     1       4.512   5.257  16.526  0.00  0.00    +0.000 C 
ENDROOT
BRANCH   1   3
ATOM      2  C   UNL     1       5.832   4.403  18.505  0.00  0.00    +0.000 C 
ATOM      3  C   UNL     1       4.561   4.227  17.679  0.00  0.00    +0.000 C 
ATOM      4  C   UNL     1       3.269   4.276  18.471  0.00  0.00    +0.000 C 
ATOM      5  C   UNL     1       3.036   2.838  18.925  0.00  0.00    +0.000 C 
ATOM      6  C   UNL     1       1.579   2.387  18.733  0.00  0.00    +0.000 C 
ATOM      7  C   UNL     1       0.643   3.083  19.717  0.00  0.00    +0.000 C 
ATOM      8  C   UNL     1       1.103   2.889  21.163  0.00  0.00    +0.000 C 
ATOM      9  C   UNL     1       2.568   3.263  21.374  0.00  0.00    +0.000 C 
ATOM     10  C   UNL     1       3.463   2.560  20.368  0.00  0.00    +0.000 C 
ATOM     11  O   UNL     1       3.873   2.023  18.107  0.00  0.00    +0.000 OA
ATOM     12  O   UNL     1       4.556   2.898  17.171  0.00  0.00    +0.000 OA
ENDBRANCH   1   3
BRANCH   1  13
ATOM     13  C   UNL     1       5.095   6.632  16.842  0.00  0.00    +0.000 C 
ATOM     14  O   UNL     1       6.269   6.896  16.595  0.00  0.00    +0.000 OA
ATOM     15  N   UNL     1       4.322   7.567  17.482  0.00  0.00    +0.000 N 
ATOM     16  H   UNL     1       4.773   8.473  17.534  0.00  0.00    +0.000 HD
BRANCH  15  17
ATOM     17  C   UNL     1       2.881   7.558  17.481  0.00  0.00    +0.000 C 
BRANCH  17  18
ATOM     18  C   UNL     1       2.196   8.178  18.646  0.00  0.00    +0.000 A 
ATOM     19  C   UNL     1       1.451   9.346  18.451  0.00  0.00    +0.000 A 
ATOM     20  C   UNL     1       0.688   9.824  19.492  0.00  0.00    +0.000 A 
ATOM     21  N   UNL     1       0.618   9.224  20.700  0.00  0.00    +0.000 NA
ATOM     22  C   UNL     1       1.335   8.089  20.861  0.00  0.00    +0.000 A 
ATOM     23  C   UNL     1       2.126   7.528  19.877  0.00  0.00    +0.000 A 
ENDBRANCH  17  18
ENDBRANCH  15  17
ENDBRANCH   1  13
TORSDOF 4
ENDMDL
MODEL 7
REMARK VINA RESULT:      -7.4      1.807      4.254
REMARK  Name = 
REMARK  5 active torsions:
REMARK  status: ('A' for Active; 'I' for Inactive)
REMARK    1  A    between atoms: C_1  and  C_2
REMARK    2  A    between atoms: C_2  and  C_3
REMARK    3  A    between atoms: C_3  and  C_4
REMARK    4  A    between atoms: N_6  and  C_7
REMARK    5  A    between atoms: C_7  and  C_8
REMARK                            x       y       z     vdW  Elec       q    Type
REMARK                         _______ _______ _______ _____ _____    ______ ____
ROOT
ATOM      1  C   UNL     1       4.553   5.436  16.581  0.00  0.00    +0.000 C 
ENDROOT
BRANCH   1   3
ATOM      2  C   UNL     1       5.884   4.451  18.491  0.00  0.00    +0.000 C 
ATOM      3  C   UNL     1       4.598   4.344  17.676  0.00  0.00    +0.000 C 
ATOM      4  C   UNL     1       3.318   4.375  18.489  0.00  0.00    +0.000 C 
ATOM      5  C   UNL     1       3.063   2.920  18.869  0.00  0.00    +0.000 C 
ATOM      6  C   UNL     1       1.594   2.508  18.674  0.00  0.00    +0.000 C 
ATOM      7  C   UNL     1       0.686   3.169  19.709  0.00  0.00    +0.000 C 
ATOM      8  C   UNL     1       1.162   2.888  21.135  0.00  0.00    +0.000 C 
ATOM      9  C   UNL     1       2.637   3.221  21.343  0.00  0.00    +0.000 C 
ATOM     10  C   UNL     1       3.504   2.556  20.288  0.00  0.00    +0.000 C 
ATOM     11  O   UNL     1       3.871   2.134  17.995  0.00  0.00    +0.000 OA
ATOM     12  O   UNL     1       4.559   3.045  17.098  0.00  0.00    +0.000 OA
ENDBRANCH   1   3
BRANCH   1  13
ATOM     13  C   UNL     1       5.068   6.812  16.997  0.00  0.00    +0.000 C 
ATOM     14  O   UNL     1       6.247   7.120  16.846  0.00  0.00    +0.000 OA
ATOM     15  N   UNL     1       4.222   7.694  17.619  0.00  0.00    +0.000 N 
ATOM     16  H   UNL     1       4.638   8.609  17.743  0.00  0.00    +0.000 HD
BRANCH  15  17
ATOM     17  C   UNL     1       2.785   7.643  17.514  0.00  0.00    +0.000 C 
BRANCH  17  18
ATOM     18  C   UNL     1       2.000   8.224  18.636  0.00  0.00    +0.000 A 
ATOM     19  C   UNL     1       2.002   7.571  19.873  0.00  0.00    +0.000 A 
ATOM     20  C   UNL     1       1.411   8.194  20.949  0.00  0.00    +0.000 A 
ATOM     21  N   UNL     1       0.826   9.409  20.876  0.00  0.00    +0.000 NA
ATOM     22  C   UNL     1       0.849  10.027  19.673  0.00  0.00    +0.000 A 
ATOM     23  C   UNL     1       1.420   9.487  18.538  0.00  0.00    +0.000 A 
ENDBRANCH  17  18
ENDBRANCH  15  17
ENDBRANCH   1  13
TORSDOF 4
ENDMDL
MODEL 8
REMARK VINA RESULT:      -7.4      3.227      6.757
REMARK  Name = 
REMARK  5 active torsions:
REMARK  status: ('A' for Active; 'I' for Inactive)
REMARK    1  A    between atoms: C_1  and  C_2
REMARK    2  A    between atoms: C_2  and  C_3
REMARK    3  A    between atoms: C_3  and  C_4
REMARK    4  A    between atoms: N_6  and  C_7
REMARK    5  A    between atoms: C_7  and  C_8
REMARK                            x       y       z     vdW  Elec       q    Type
REMARK                         _______ _______ _______ _____ _____    ______ ____
ROOT
ATOM      1  C   UNL     1       5.607   6.112  17.448  0.00  0.00    +0.000 C 
ENDROOT
BRANCH   1   3
ATOM      2  C   UNL     1       3.325   7.088  17.920  0.00  0.00    +0.000 C 
ATOM      3  C   UNL     1       4.283   5.941  18.228  0.00  0.00    +0.000 C 
ATOM      4  C   UNL     1       3.719   4.553  17.990  0.00  0.00    +0.000 C 
ATOM      5  C   UNL     1       3.035   4.181  19.301  0.00  0.00    +0.000 C 
ATOM      6  C   UNL     1       3.354   2.744  19.747  0.00  0.00    +0.000 C 
ATOM      7  C   UNL     1       2.676   1.716  18.845  0.00  0.00    +0.000 C 
ATOM      8  C   UNL     1       1.167   1.953  18.756  0.00  0.00    +0.000 C 
ATOM      9  C   UNL     1       0.815   3.391  18.384  0.00  0.00    +0.000 C 
ATOM     10  C   UNL     1       1.518   4.381  19.296  0.00  0.00    +0.000 C 
ATOM     11  O   UNL     1       3.544   5.081  20.284  0.00  0.00    +0.000 OA
ATOM     12  O   UNL     1       4.518   5.937  19.630  0.00  0.00    +0.000 OA
ENDBRANCH   1   3
BRANCH   1  13
ATOM     13  C   UNL     1       6.655   5.025  17.675  0.00  0.00    +0.000 C 
ATOM     14  O   UNL     1       7.327   4.996  18.703  0.00  0.00    +0.000 OA
ATOM     15  N   UNL     1       6.908   4.108  16.687  0.00  0.00    +0.000 N 
ATOM     16  H   UNL     1       7.534   3.372  16.993  0.00  0.00    +0.000 HD
BRANCH  15  17
ATOM     17  C   UNL     1       5.977   3.776  15.639  0.00  0.00    +0.000 C 
BRANCH  17  18
ATOM     18  C   UNL     1       6.382   4.095  14.244  0.00  0.00    +0.000 A 
ATOM     19  C   UNL     1       7.350   5.082  14.029  0.00  0.00    +0.000 A 
ATOM     20  C   UNL     1       7.839   5.259  12.754  0.00  0.00    +0.000 A 
ATOM     21  N   UNL     1       7.433   4.530  11.693  0.00  0.00    +0.000 NA
ATOM     22  C   UNL     1       6.507   3.573  11.928  0.00  0.00    +0.000 A 
ATOM     23  C   UNL     1       5.960   3.315  13.169  0.00  0.00    +0.000 A 
ENDBRANCH  17  18
ENDBRANCH  15  17
ENDBRANCH   1  13
TORSDOF 4
ENDMDL
MODEL 9
REMARK VINA RESULT:      -7.4      1.437      1.946
REMARK  Name = 
REMARK  5 active torsions:
REMARK  status: ('A' for Active; 'I' for Inactive)
REMARK    1  A    between atoms: C_1  and  C_2
REMARK    2  A    between atoms: C_2  and  C_3
REMARK    3  A    between atoms: C_3  and  C_4
REMARK    4  A    between atoms: N_6  and  C_7
REMARK    5  A    between atoms: C_7  and  C_8
REMARK                            x       y       z     vdW  Elec       q    Type
REMARK                         _______ _______ _______ _____ _____    ______ ____
ROOT
ATOM      1  C   UNL     1       3.037   3.334  19.705  0.00  0.00    +0.000 C 
ENDROOT
BRANCH   1   3
ATOM      2  C   UNL     1       2.439   4.482  17.534  0.00  0.00    +0.000 C 
ATOM      3  C   UNL     1       3.580   3.929  18.385  0.00  0.00    +0.000 C 
ATOM      4  C   UNL     1       4.694   4.913  18.681  0.00  0.00    +0.000 C 
ATOM      5  C   UNL     1       5.657   4.776  17.507  0.00  0.00    +0.000 C 
ATOM      6  C   UNL     1       7.127   4.712  17.952  0.00  0.00    +0.000 C 
ATOM      7  C   UNL     1       7.611   6.061  18.478  0.00  0.00    +0.000 C 
ATOM      8  C   UNL     1       7.384   7.177  17.457  0.00  0.00    +0.000 C 
ATOM      9  C   UNL     1       5.949   7.224  16.941  0.00  0.00    +0.000 C 
ATOM     10  C   UNL     1       5.502   5.861  16.439  0.00  0.00    +0.000 C 
ATOM     11  O   UNL     1       5.327   3.547  16.863  0.00  0.00    +0.000 OA
ATOM     12  O   UNL     1       4.249   2.935  17.618  0.00  0.00    +0.000 OA
ENDBRANCH   1   3
BRANCH   1  13
ATOM     13  C   UNL     1       1.555   3.579  19.982  0.00  0.00    +0.000 C 
ATOM     14  O   UNL     1       0.726   2.684  19.840  0.00  0.00    +0.000 OA
ATOM     15  N   UNL     1       1.127   4.838  20.320  0.00  0.00    +0.000 N 
ATOM     16  H   UNL     1       0.151   4.855  20.591  0.00  0.00    +0.000 HD
BRANCH  15  17
ATOM     17  C   UNL     1       1.978   5.852  20.889  0.00  0.00    +0.000 C 
BRANCH  17  18
ATOM     18  C   UNL     1       1.780   7.249  20.417  0.00  0.00    +0.000 A 
ATOM     19  C   UNL     1       2.186   7.590  19.122  0.00  0.00    +0.000 A 
ATOM     20  C   UNL     1       1.854   8.833  18.633  0.00  0.00    +0.000 A 
ATOM     21  N   UNL     1       1.155   9.748  19.338  0.00  0.00    +0.000 NA
ATOM     22  C   UNL     1       0.762   9.390  20.582  0.00  0.00    +0.000 A 
ATOM     23  C   UNL     1       1.040   8.168  21.159  0.00  0.00    +0.000 A 
ENDBRANCH  17  18
ENDBRANCH  15  17
ENDBRANCH   1  13
TORSDOF 4
ENDMDL
