MODEL 1
REMARK VINA RESULT:      -8.6      0.000      0.000
REMARK  Name = 
REMARK  5 active torsions:
REMARK  status: ('A' for Active; 'I' for Inactive)
REMARK    1  A    between atoms: C_4  and  C_5
REMARK    2  A    between atoms: C_15  and  N_16
REMARK    3  A    between atoms: N_16  and  C_17
REMARK    4  A    between atoms: C_17  and  C_18
REMARK    5  A    between atoms: C_18  and  N_19
REMARK                            x       y       z     vdW  Elec       q    Type
REMARK                         _______ _______ _______ _____ _____    ______ ____
ROOT
ATOM      1  O   UNL     1       7.384   6.099  15.752  0.00  0.00    +0.000 OA
ATOM      2  C   UNL     1       6.850   5.896  16.839  0.00  0.00    +0.000 C 
ATOM      3  C   UNL     1       5.438   5.401  16.965  0.00  0.00    +0.000 C 
ATOM      4  C   UNL     1       5.294   4.388  18.109  0.00  0.00    +0.000 C 
ATOM      5  C   UNL     1       5.840   4.889  19.455  0.00  0.00    +0.000 C 
ATOM      6  C   UNL     1       7.236   5.456  19.334  0.00  0.00    +0.000 C 
ATOM      7  O   UNL     1       8.058   5.369  20.241  0.00  0.00    +0.000 OA
ATOM      8  C   UNL     1       7.495   6.257  18.118  0.00  0.00    +0.000 C 
ATOM      9  C   UNL     1       7.947   7.509  18.294  0.00  0.00    +0.000 C 
ENDROOT
BRANCH   4  10
ATOM     10  C   UNL     1       3.835   3.979  18.228  0.00  0.00    +0.000 A 
ATOM     11  C   UNL     1       3.494   2.785  18.878  0.00  0.00    +0.000 A 
ATOM     12  C   UNL     1       2.167   2.355  18.912  0.00  0.00    +0.000 A 
ATOM     13  C   UNL     1       1.168   3.108  18.299  0.00  0.00    +0.000 A 
ATOM     14  C   UNL     1       1.487   4.308  17.672  0.00  0.00    +0.000 A 
ATOM     15  C   UNL     1       2.810   4.748  17.647  0.00  0.00    +0.000 A 
ENDBRANCH   4  10
BRANCH   9  16
ATOM     16  N   UNL     1       7.985   8.533  17.377  0.00  0.00    +0.000 N 
ATOM     17  H   UNL     1       8.240   8.270  16.422  0.00  0.00    +0.000 HD
BRANCH  16  18
ATOM     18  C   UNL     1       8.107   9.936  17.762  0.00  0.00    +0.000 C 
BRANCH  18  19
ATOM     19  C   UNL     1       9.224  10.167  18.798  0.00  0.00    +0.000 C 
BRANCH  19  20
ATOM     20  N   UNL     1       9.405  11.593  19.142  0.00  0.00    +0.000 NA
ATOM     21  C   UNL     1      10.443  11.826  20.170  0.00  0.00    +0.000 C 
ATOM     22  C   UNL     1      11.897  11.619  19.689  0.00  0.00    +0.000 C 
ATOM     23  N   UNL     1      12.225  12.350  18.459  0.00  0.00    +0.000 NA
ATOM     24  C   UNL     1      11.195  12.159  17.429  0.00  0.00    +0.000 C 
ATOM     25  C   UNL     1       9.759  12.396  17.951  0.00  0.00    +0.000 C 
ATOM     26  H   UNL     1      13.125  12.030  18.103  0.00  0.00    +0.000 HD
ENDBRANCH  19  20
ENDBRANCH  18  19
ENDBRANCH  16  18
ENDBRANCH   9  16
TORSDOF 5
ENDMDL
MODEL 2
REMARK VINA RESULT:      -8.5      0.715      1.684
REMARK  Name = 
REMARK  5 active torsions:
REMARK  status: ('A' for Active; 'I' for Inactive)
REMARK    1  A    between atoms: C_4  and  C_5
REMARK    2  A    between atoms: C_15  and  N_16
REMARK    3  A    between atoms: N_16  and  C_17
REMARK    4  A    between atoms: C_17  and  C_18
REMARK    5  A    between atoms: C_18  and  N_19
REMARK                            x       y       z     vdW  Elec       q    Type
REMARK                         _______ _______ _______ _____ _____    ______ ____
ROOT
ATOM      1  O   UNL     1       7.551   6.066  15.726  0.00  0.00    +0.000 OA
ATOM      2  C   UNL     1       6.951   5.855  16.776  0.00  0.00    +0.000 C 
ATOM      3  C   UNL     1       5.546   5.325  16.810  0.00  0.00    +0.000 C 
ATOM      4  C   UNL     1       5.352   4.314  17.948  0.00  0.00    +0.000 C 
ATOM      5  C   UNL     1       5.793   4.833  19.324  0.00  0.00    +0.000 C 
ATOM      6  C   UNL     1       7.180   5.435  19.294  0.00  0.00    +0.000 C 
ATOM      7  O   UNL     1       7.941   5.373  20.254  0.00  0.00    +0.000 OA
ATOM      8  C   UNL     1       7.500   6.238  18.093  0.00  0.00    +0.000 C 
ATOM      9  C   UNL     1       7.907   7.501  18.291  0.00  0.00    +0.000 C 
ENDROOT
BRANCH   4  10
ATOM     10  C   UNL     1       3.899   3.868  17.972  0.00  0.00    +0.000 A 
ATOM     11  C   UNL     1       2.880   4.787  17.687  0.00  0.00    +0.000 A 
ATOM     12  C   UNL     1       1.540   4.411  17.796  0.00  0.00    +0.000 A 
ATOM     13  C   UNL     1       1.203   3.118  18.190  0.00  0.00    +0.000 A 
ATOM     14  C   UNL     1       2.203   2.187  18.451  0.00  0.00    +0.000 A 
ATOM     15  C   UNL     1       3.542   2.555  18.331  0.00  0.00    +0.000 A 
ENDBRANCH   4  10
BRANCH   9  16
ATOM     16  N   UNL     1       7.981   8.522  17.373  0.00  0.00    +0.000 N 
ATOM     17  H   UNL     1       8.279   8.257  16.431  0.00  0.00    +0.000 HD
BRANCH  16  18
ATOM     18  C   UNL     1       8.080   9.927  17.758  0.00  0.00    +0.000 C 
BRANCH  18  19
ATOM     19  C   UNL     1       9.203  10.179  18.781  0.00  0.00    +0.000 C 
BRANCH  19  20
ATOM     20  N   UNL     1      10.152  11.227  18.349  0.00  0.00    +0.000 NA
ATOM     21  C   UNL     1       9.499  12.505  17.989  0.00  0.00    +0.000 C 
ATOM     22  C   UNL     1       8.940  13.313  19.183  0.00  0.00    +0.000 C 
ATOM     23  N   UNL     1       9.912  13.525  20.262  0.00  0.00    +0.000 NA
ATOM     24  C   UNL     1      10.597  12.277  20.621  0.00  0.00    +0.000 C 
ATOM     25  C   UNL     1      11.155  11.513  19.398  0.00  0.00    +0.000 C 
ATOM     26  H   UNL     1       9.434  13.898  21.081  0.00  0.00    +0.000 HD
ENDBRANCH  19  20
ENDBRANCH  18  19
ENDBRANCH  16  18
ENDBRANCH   9  16
TORSDOF 5
ENDMDL
MODEL 3
REMARK VINA RESULT:      -8.4      0.260      1.016
REMARK  Name = 
REMARK  5 active torsions:
REMARK  status: ('A' for Active; 'I' for Inactive)
REMARK    1  A    between atoms: C_4  and  C_5
REMARK    2  A    between atoms: C_15  and  N_16
REMARK    3  A    between atoms: N_16  and  C_17
REMARK    4  A    between atoms: C_17  and  C_18
REMARK    5  A    between atoms: C_18  and  N_19
REMARK                            x       y       z     vdW  Elec       q    Type
REMARK                         _______ _______ _______ _____ _____    ______ ____
ROOT
ATOM      1  O   UNL     1       7.458   6.059  15.745  0.00  0.00    +0.000 OA
ATOM      2  C   UNL     1       6.877   5.857  16.807  0.00  0.00    +0.000 C 
ATOM      3  C   UNL     1       5.486   5.295  16.874  0.00  0.00    +0.000 C 
ATOM      4  C   UNL     1       5.331   4.306  18.037  0.00  0.00    +0.000 C 
ATOM      5  C   UNL     1       5.779   4.867  19.394  0.00  0.00    +0.000 C 
ATOM      6  C   UNL     1       7.150   5.500  19.331  0.00  0.00    +0.000 C 
ATOM      7  O   UNL     1       7.926   5.478  20.281  0.00  0.00    +0.000 OA
ATOM      8  C   UNL     1       7.434   6.283  18.108  0.00  0.00    +0.000 C 
ATOM      9  C   UNL     1       7.814   7.560  18.272  0.00  0.00    +0.000 C 
ENDROOT
BRANCH   4  10
ATOM     10  C   UNL     1       3.890   3.826  18.091  0.00  0.00    +0.000 A 
ATOM     11  C   UNL     1       2.858   4.659  17.637  0.00  0.00    +0.000 A 
ATOM     12  C   UNL     1       1.526   4.265  17.767  0.00  0.00    +0.000 A 
ATOM     13  C   UNL     1       1.208   3.040  18.351  0.00  0.00    +0.000 A 
ATOM     14  C   UNL     1       2.223   2.192  18.782  0.00  0.00    +0.000 A 
ATOM     15  C   UNL     1       3.555   2.576  18.643  0.00  0.00    +0.000 A 
ENDBRANCH   4  10
BRANCH   9  16
ATOM     16  N   UNL     1       7.851   8.561  17.331  0.00  0.00    +0.000 N 
ATOM     17  H   UNL     1       7.719   8.268  16.360  0.00  0.00    +0.000 HD
BRANCH  16  18
ATOM     18  C   UNL     1       8.466   9.861  17.582  0.00  0.00    +0.000 C 
BRANCH  18  19
ATOM     19  C   UNL     1       9.111   9.947  18.978  0.00  0.00    +0.000 C 
BRANCH  19  20
ATOM     20  N   UNL     1       9.329  11.338  19.427  0.00  0.00    +0.000 NA
ATOM     21  C   UNL     1      10.556  11.514  20.235  0.00  0.00    +0.000 C 
ATOM     22  C   UNL     1      11.880  11.419  19.442  0.00  0.00    +0.000 C 
ATOM     23  N   UNL     1      11.924  12.282  18.256  0.00  0.00    +0.000 NA
ATOM     24  C   UNL     1      10.704  12.150  17.449  0.00  0.00    +0.000 C 
ATOM     25  C   UNL     1       9.406  12.271  18.280  0.00  0.00    +0.000 C 
ATOM     26  H   UNL     1      12.734  12.039  17.688  0.00  0.00    +0.000 HD
ENDBRANCH  19  20
ENDBRANCH  18  19
ENDBRANCH  16  18
ENDBRANCH   9  16
TORSDOF 5
ENDMDL
MODEL 4
REMARK VINA RESULT:      -8.4      1.370      1.474
REMARK  Name = 
REMARK  5 active torsions:
REMARK  status: ('A' for Active; 'I' for Inactive)
REMARK    1  A    between atoms: C_4  and  C_5
REMARK    2  A    between atoms: C_15  and  N_16
REMARK    3  A    between atoms: N_16  and  C_17
REMARK    4  A    between atoms: C_17  and  C_18
REMARK    5  A    between atoms: C_18  and  N_19
REMARK                            x       y       z     vdW  Elec       q    Type
REMARK                         _______ _______ _______ _____ _____    ______ ____
ROOT
ATOM      1  O   UNL     1       5.687   7.498  15.928  0.00  0.00    +0.000 OA
ATOM      2  C   UNL     1       5.673   6.735  16.890  0.00  0.00    +0.000 C 
ATOM      3  C   UNL     1       4.403   6.335  17.585  0.00  0.00    +0.000 C 
ATOM      4  C   UNL     1       4.427   4.857  17.999  0.00  0.00    +0.000 C 
ATOM      5  C   UNL     1       5.666   4.461  18.815  0.00  0.00    +0.000 C 
ATOM      6  C   UNL     1       6.953   4.917  18.165  0.00  0.00    +0.000 C 
ATOM      7  O   UNL     1       7.997   4.279  18.262  0.00  0.00    +0.000 OA
ATOM      8  C   UNL     1       6.910   6.258  17.541  0.00  0.00    +0.000 C 
ATOM      9  C   UNL     1       7.823   7.153  17.949  0.00  0.00    +0.000 C 
ENDROOT
BRANCH   4  10
ATOM     10  C   UNL     1       3.148   4.534  18.754  0.00  0.00    +0.000 A 
ATOM     11  C   UNL     1       2.824   5.243  19.919  0.00  0.00    +0.000 A 
ATOM     12  C   UNL     1       1.701   4.891  20.669  0.00  0.00    +0.000 A 
ATOM     13  C   UNL     1       0.890   3.831  20.266  0.00  0.00    +0.000 A 
ATOM     14  C   UNL     1       1.185   3.135  19.099  0.00  0.00    +0.000 A 
ATOM     15  C   UNL     1       2.299   3.491  18.341  0.00  0.00    +0.000 A 
ENDBRANCH   4  10
BRANCH   9  16
ATOM     16  N   UNL     1       7.822   8.514  17.756  0.00  0.00    +0.000 N 
ATOM     17  H   UNL     1       7.533   8.834  16.828  0.00  0.00    +0.000 HD
BRANCH  16  18
ATOM     18  C   UNL     1       8.580   9.434  18.598  0.00  0.00    +0.000 C 
BRANCH  18  19
ATOM     19  C   UNL     1       9.164  10.616  17.801  0.00  0.00    +0.000 C 
BRANCH  19  20
ATOM     20  N   UNL     1       9.454  11.794  18.645  0.00  0.00    +0.000 NA
ATOM     21  C   UNL     1      10.543  11.570  19.621  0.00  0.00    +0.000 C 
ATOM     22  C   UNL     1      11.961  11.489  19.011  0.00  0.00    +0.000 C 
ATOM     23  N   UNL     1      12.293  12.614  18.129  0.00  0.00    +0.000 NA
ATOM     24  C   UNL     1      11.215  12.879  17.167  0.00  0.00    +0.000 C 
ATOM     25  C   UNL     1       9.819  12.970  17.824  0.00  0.00    +0.000 C 
ATOM     26  H   UNL     1      13.154  12.409  17.626  0.00  0.00    +0.000 HD
ENDBRANCH  19  20
ENDBRANCH  18  19
ENDBRANCH  16  18
ENDBRANCH   9  16
TORSDOF 5
ENDMDL
MODEL 5
REMARK VINA RESULT:      -8.2      4.959      7.915
REMARK  Name = 
REMARK  5 active torsions:
REMARK  status: ('A' for Active; 'I' for Inactive)
REMARK    1  A    between atoms: C_4  and  C_5
REMARK    2  A    between atoms: C_15  and  N_16
REMARK    3  A    between atoms: N_16  and  C_17
REMARK    4  A    between atoms: C_17  and  C_18
REMARK    5  A    between atoms: C_18  and  N_19
REMARK                            x       y       z     vdW  Elec       q    Type
REMARK                         _______ _______ _______ _____ _____    ______ ____
ROOT
ATOM      1  O   UNL     1       4.027   7.481  17.676  0.00  0.00    +0.000 OA
ATOM      2  C   UNL     1       4.771   6.526  17.476  0.00  0.00    +0.000 C 
ATOM      3  C   UNL     1       4.954   5.915  16.117  0.00  0.00    +0.000 C 
ATOM      4  C   UNL     1       6.413   5.506  15.873  0.00  0.00    +0.000 C 
ATOM      5  C   UNL     1       7.001   4.614  16.976  0.00  0.00    +0.000 C 
ATOM      6  C   UNL     1       6.765   5.179  18.359  0.00  0.00    +0.000 C 
ATOM      7  O   UNL     1       7.564   5.018  19.276  0.00  0.00    +0.000 OA
ATOM      8  C   UNL     1       5.439   5.799  18.575  0.00  0.00    +0.000 C 
ATOM      9  C   UNL     1       4.703   5.330  19.595  0.00  0.00    +0.000 C 
ENDROOT
BRANCH   4  10
ATOM     10  C   UNL     1       6.519   4.836  14.513  0.00  0.00    +0.000 A 
ATOM     11  C   UNL     1       7.564   5.177  13.644  0.00  0.00    +0.000 A 
ATOM     12  C   UNL     1       7.618   4.636  12.359  0.00  0.00    +0.000 A 
ATOM     13  C   UNL     1       6.632   3.752  11.926  0.00  0.00    +0.000 A 
ATOM     14  C   UNL     1       5.602   3.384  12.786  0.00  0.00    +0.000 A 
ATOM     15  C   UNL     1       5.552   3.913  14.075  0.00  0.00    +0.000 A 
ENDBRANCH   4  10
BRANCH   9  16
ATOM     16  N   UNL     1       3.361   5.517  19.828  0.00  0.00    +0.000 N 
ATOM     17  H   UNL     1       3.026   6.482  19.765  0.00  0.00    +0.000 HD
BRANCH  16  18
ATOM     18  C   UNL     1       2.538   4.547  20.544  0.00  0.00    +0.000 C 
BRANCH  18  19
ATOM     19  C   UNL     1       3.124   3.123  20.485  0.00  0.00    +0.000 C 
BRANCH  19  20
ATOM     20  N   UNL     1       2.346   2.216  19.615  0.00  0.00    +0.000 NA
ATOM     21  C   UNL     1       1.176   2.861  18.982  0.00  0.00    +0.000 C 
ATOM     22  C   UNL     1       1.513   3.868  17.859  0.00  0.00    +0.000 C 
ATOM     23  N   UNL     1       2.415   3.333  16.832  0.00  0.00    +0.000 NA
ATOM     24  C   UNL     1       3.574   2.660  17.434  0.00  0.00    +0.000 C 
ATOM     25  C   UNL     1       3.187   1.649  18.537  0.00  0.00    +0.000 C 
ATOM     26  H   UNL     1       2.737   4.091  16.233  0.00  0.00    +0.000 HD
ENDBRANCH  19  20
ENDBRANCH  18  19
ENDBRANCH  16  18
ENDBRANCH   9  16
TORSDOF 5
ENDMDL
MODEL 6
REMARK VINA RESULT:      -8.1      4.931      7.892
REMARK  Name = 
REMARK  5 active torsions:
REMARK  status: ('A' for Active; 'I' for Inactive)
REMARK    1  A    between atoms: C_4  and  C_5
REMARK    2  A    between atoms: C_15  and  N_16
REMARK    3  A    between atoms: N_16  and  C_17
REMARK    4  A    between atoms: C_17  and  C_18
REMARK    5  A    between atoms: C_18  and  N_19
REMARK                            x       y       z     vdW  Elec       q    Type
REMARK                         _______ _______ _______ _____ _____    ______ ____
ROOT
ATOM      1  O   UNL     1       4.249   7.514  17.602  0.00  0.00    +0.000 OA
ATOM      2  C   UNL     1       4.930   6.525  17.350  0.00  0.00    +0.000 C 
ATOM      3  C   UNL     1       5.024   5.938  15.971  0.00  0.00    +0.000 C 
ATOM      4  C   UNL     1       6.447   5.457  15.657  0.00  0.00    +0.000 C 
ATOM      5  C   UNL     1       7.030   4.509  16.715  0.00  0.00    +0.000 C 
ATOM      6  C   UNL     1       6.882   5.052  18.118  0.00  0.00    +0.000 C 
ATOM      7  O   UNL     1       7.708   4.827  18.997  0.00  0.00    +0.000 OA
ATOM      8  C   UNL     1       5.602   5.737  18.403  0.00  0.00    +0.000 C 
ATOM      9  C   UNL     1       4.884   5.284  19.443  0.00  0.00    +0.000 C 
ENDROOT
BRANCH   4  10
ATOM     10  C   UNL     1       6.460   4.815  14.279  0.00  0.00    +0.000 A 
ATOM     11  C   UNL     1       5.414   3.966  13.892  0.00  0.00    +0.000 A 
ATOM     12  C   UNL     1       5.463   3.300  12.667  0.00  0.00    +0.000 A 
ATOM     13  C   UNL     1       6.553   3.472  11.816  0.00  0.00    +0.000 A 
ATOM     14  C   UNL     1       7.587   4.330  12.175  0.00  0.00    +0.000 A 
ATOM     15  C   UNL     1       7.536   5.007  13.393  0.00  0.00    +0.000 A 
ENDBRANCH   4  10
BRANCH   9  16
ATOM     16  N   UNL     1       3.564   5.538  19.736  0.00  0.00    +0.000 N 
ATOM     17  H   UNL     1       3.288   6.523  19.742  0.00  0.00    +0.000 HD
BRANCH  16  18
ATOM     18  C   UNL     1       2.707   4.578  20.425  0.00  0.00    +0.000 C 
BRANCH  18  19
ATOM     19  C   UNL     1       3.314   3.162  20.451  0.00  0.00    +0.000 C 
BRANCH  19  20
ATOM     20  N   UNL     1       2.543   2.190  19.648  0.00  0.00    +0.000 NA
ATOM     21  C   UNL     1       1.285   2.741  19.098  0.00  0.00    +0.000 C 
ATOM     22  C   UNL     1       1.464   3.757  17.947  0.00  0.00    +0.000 C 
ATOM     23  N   UNL     1       2.325   3.276  16.860  0.00  0.00    +0.000 NA
ATOM     24  C   UNL     1       3.571   2.696  17.378  0.00  0.00    +0.000 C 
ATOM     25  C   UNL     1       3.342   1.673  18.514  0.00  0.00    +0.000 C 
ATOM     26  H   UNL     1       2.545   4.048  16.233  0.00  0.00    +0.000 HD
ENDBRANCH  19  20
ENDBRANCH  18  19
ENDBRANCH  16  18
ENDBRANCH   9  16
TORSDOF 5
ENDMDL
MODEL 7
REMARK VINA RESULT:      -8.1      1.386      2.029
REMARK  Name = 
REMARK  5 active torsions:
REMARK  status: ('A' for Active; 'I' for Inactive)
REMARK    1  A    between atoms: C_4  and  C_5
REMARK    2  A    between atoms: C_15  and  N_16
REMARK    3  A    between atoms: N_16  and  C_17
REMARK    4  A    between atoms: C_17  and  C_18
REMARK    5  A    between atoms: C_18  and  N_19
REMARK                            x       y       z     vdW  Elec       q    Type
REMARK                         _______ _______ _______ _____ _____    ______ ____
ROOT
ATOM      1  O   UNL     1       5.393   7.197  15.664  0.00  0.00    +0.000 OA
ATOM      2  C   UNL     1       5.412   6.494  16.671  0.00  0.00    +0.000 C 
ATOM      3  C   UNL     1       4.160   6.035  17.360  0.00  0.00    +0.000 C 
ATOM      4  C   UNL     1       4.289   4.591  17.865  0.00  0.00    +0.000 C 
ATOM      5  C   UNL     1       5.533   4.344  18.731  0.00  0.00    +0.000 C 
ATOM      6  C   UNL     1       6.796   4.864  18.083  0.00  0.00    +0.000 C 
ATOM      7  O   UNL     1       7.884   4.318  18.242  0.00  0.00    +0.000 OA
ATOM      8  C   UNL     1       6.665   6.157  17.377  0.00  0.00    +0.000 C 
ATOM      9  C   UNL     1       7.494   7.145  17.749  0.00  0.00    +0.000 C 
ENDROOT
BRANCH   4  10
ATOM     10  C   UNL     1       3.019   4.211  18.609  0.00  0.00    +0.000 A 
ATOM     11  C   UNL     1       2.690   4.859  19.807  0.00  0.00    +0.000 A 
ATOM     12  C   UNL     1       1.577   4.454  20.545  0.00  0.00    +0.000 A 
ATOM     13  C   UNL     1       0.781   3.401  20.097  0.00  0.00    +0.000 A 
ATOM     14  C   UNL     1       1.081   2.766  18.896  0.00  0.00    +0.000 A 
ATOM     15  C   UNL     1       2.185   3.175  18.151  0.00  0.00    +0.000 A 
ENDBRANCH   4  10
BRANCH   9  16
ATOM     16  N   UNL     1       7.391   8.488  17.473  0.00  0.00    +0.000 N 
ATOM     17  H   UNL     1       6.567   8.773  16.937  0.00  0.00    +0.000 HD
BRANCH  16  18
ATOM     18  C   UNL     1       8.533   9.395  17.517  0.00  0.00    +0.000 C 
BRANCH  18  19
ATOM     19  C   UNL     1       8.819   9.912  18.940  0.00  0.00    +0.000 C 
BRANCH  19  20
ATOM     20  N   UNL     1      10.014  10.780  19.008  0.00  0.00    +0.000 NA
ATOM     21  C   UNL     1      10.052  11.819  17.956  0.00  0.00    +0.000 C 
ATOM     22  C   UNL     1       9.038  12.971  18.137  0.00  0.00    +0.000 C 
ATOM     23  N   UNL     1       9.077  13.593  19.466  0.00  0.00    +0.000 NA
ATOM     24  C   UNL     1       9.069  12.582  20.532  0.00  0.00    +0.000 C 
ATOM     25  C   UNL     1      10.112  11.461  20.318  0.00  0.00    +0.000 C 
ATOM     26  H   UNL     1       8.274  14.209  19.576  0.00  0.00    +0.000 HD
ENDBRANCH  19  20
ENDBRANCH  18  19
ENDBRANCH  16  18
ENDBRANCH   9  16
TORSDOF 5
ENDMDL
MODEL 8
REMARK VINA RESULT:      -8.1      1.567      1.956
REMARK  Name = 
REMARK  5 active torsions:
REMARK  status: ('A' for Active; 'I' for Inactive)
REMARK    1  A    between atoms: C_4  and  C_5
REMARK    2  A    between atoms: C_15  and  N_16
REMARK    3  A    between atoms: N_16  and  C_17
REMARK    4  A    between atoms: C_17  and  C_18
REMARK    5  A    between atoms: C_18  and  N_19
REMARK                            x       y       z     vdW  Elec       q    Type
REMARK                         _______ _______ _______ _____ _____    ______ ____
ROOT
ATOM      1  O   UNL     1       5.626   7.524  16.049  0.00  0.00    +0.000 OA
ATOM      2  C   UNL     1       5.658   6.732  16.987  0.00  0.00    +0.000 C 
ATOM      3  C   UNL     1       4.424   6.309  17.730  0.00  0.00    +0.000 C 
ATOM      4  C   UNL     1       4.469   4.820  18.098  0.00  0.00    +0.000 C 
ATOM      5  C   UNL     1       5.746   4.400  18.840  0.00  0.00    +0.000 C 
ATOM      6  C   UNL     1       6.999   4.879  18.142  0.00  0.00    +0.000 C 
ATOM      7  O   UNL     1       8.047   4.240  18.169  0.00  0.00    +0.000 OA
ATOM      8  C   UNL     1       6.926   6.238  17.562  0.00  0.00    +0.000 C 
ATOM      9  C   UNL     1       7.858   7.121  17.952  0.00  0.00    +0.000 C 
ENDROOT
BRANCH   4  10
ATOM     10  C   UNL     1       3.228   4.471  18.904  0.00  0.00    +0.000 A 
ATOM     11  C   UNL     1       2.668   5.418  19.772  0.00  0.00    +0.000 A 
ATOM     12  C   UNL     1       1.586   5.078  20.584  0.00  0.00    +0.000 A 
ATOM     13  C   UNL     1       1.050   3.792  20.539  0.00  0.00    +0.000 A 
ATOM     14  C   UNL     1       1.579   2.849  19.664  0.00  0.00    +0.000 A 
ATOM     15  C   UNL     1       2.652   3.189  18.843  0.00  0.00    +0.000 A 
ENDBRANCH   4  10
BRANCH   9  16
ATOM     16  N   UNL     1       7.847   8.488  17.800  0.00  0.00    +0.000 N 
ATOM     17  H   UNL     1       7.555   8.834  16.883  0.00  0.00    +0.000 HD
BRANCH  16  18
ATOM     18  C   UNL     1       8.599   9.387  18.670  0.00  0.00    +0.000 C 
BRANCH  18  19
ATOM     19  C   UNL     1       8.952  10.717  17.977  0.00  0.00    +0.000 C 
BRANCH  19  20
ATOM     20  N   UNL     1       9.888  11.546  18.764  0.00  0.00    +0.000 NA
ATOM     21  C   UNL     1      11.129  11.891  18.037  0.00  0.00    +0.000 C 
ATOM     22  C   UNL     1      10.956  12.924  16.901  0.00  0.00    +0.000 C 
ATOM     23  N   UNL     1      10.253  14.145  17.312  0.00  0.00    +0.000 NA
ATOM     24  C   UNL     1       9.029  13.834  18.063  0.00  0.00    +0.000 C 
ATOM     25  C   UNL     1       9.255  12.811  19.200  0.00  0.00    +0.000 C 
ATOM     26  H   UNL     1      10.014  14.694  16.488  0.00  0.00    +0.000 HD
ENDBRANCH  19  20
ENDBRANCH  18  19
ENDBRANCH  16  18
ENDBRANCH   9  16
TORSDOF 5
ENDMDL
MODEL 9
REMARK VINA RESULT:      -8.0      4.829      8.009
REMARK  Name = 
REMARK  5 active torsions:
REMARK  status: ('A' for Active; 'I' for Inactive)
REMARK    1  A    between atoms: C_4  and  C_5
REMARK    2  A    between atoms: C_15  and  N_16
REMARK    3  A    between atoms: N_16  and  C_17
REMARK    4  A    between atoms: C_17  and  C_18
REMARK    5  A    between atoms: C_18  and  N_19
REMARK                            x       y       z     vdW  Elec       q    Type
REMARK                         _______ _______ _______ _____ _____    ______ ____
ROOT
ATOM      1  O   UNL     1       4.512   7.677  17.421  0.00  0.00    +0.000 OA
ATOM      2  C   UNL     1       5.155   6.650  17.226  0.00  0.00    +0.000 C 
ATOM      3  C   UNL     1       5.238   5.991  15.879  0.00  0.00    +0.000 C 
ATOM      4  C   UNL     1       6.643   5.439  15.605  0.00  0.00    +0.000 C 
ATOM      5  C   UNL     1       7.178   4.523  16.715  0.00  0.00    +0.000 C 
ATOM      6  C   UNL     1       7.039   5.141  18.088  0.00  0.00    +0.000 C 
ATOM      7  O   UNL     1       7.848   4.928  18.986  0.00  0.00    +0.000 OA
ATOM      8  C   UNL     1       5.786   5.890  18.325  0.00  0.00    +0.000 C 
ATOM      9  C   UNL     1       5.041   5.519  19.378  0.00  0.00    +0.000 C 
ENDROOT
BRANCH   4  10
ATOM     10  C   UNL     1       6.643   4.728  14.261  0.00  0.00    +0.000 A 
ATOM     11  C   UNL     1       7.601   5.059  13.294  0.00  0.00    +0.000 A 
ATOM     12  C   UNL     1       7.553   4.479  12.026  0.00  0.00    +0.000 A 
ATOM     13  C   UNL     1       6.550   3.565  11.708  0.00  0.00    +0.000 A 
ATOM     14  C   UNL     1       5.607   3.207  12.666  0.00  0.00    +0.000 A 
ATOM     15  C   UNL     1       5.659   3.775  13.938  0.00  0.00    +0.000 A 
ENDBRANCH   4  10
BRANCH   9  16
ATOM     16  N   UNL     1       3.730   5.839  19.644  0.00  0.00    +0.000 N 
ATOM     17  H   UNL     1       3.481   6.827  19.543  0.00  0.00    +0.000 HD
BRANCH  16  18
ATOM     18  C   UNL     1       2.850   4.983  20.433  0.00  0.00    +0.000 C 
BRANCH  18  19
ATOM     19  C   UNL     1       1.708   4.380  19.594  0.00  0.00    +0.000 C 
BRANCH  19  20
ATOM     20  N   UNL     1       1.526   2.932  19.825  0.00  0.00    +0.000 NA
ATOM     21  C   UNL     1       1.309   2.157  18.584  0.00  0.00    +0.000 C 
ATOM     22  C   UNL     1       2.557   1.994  17.688  0.00  0.00    +0.000 C 
ATOM     23  N   UNL     1       3.738   1.491  18.401  0.00  0.00    +0.000 NA
ATOM     24  C   UNL     1       3.961   2.224  19.654  0.00  0.00    +0.000 C 
ATOM     25  C   UNL     1       2.690   2.346  20.525  0.00  0.00    +0.000 C 
ATOM     26  H   UNL     1       4.559   1.580  17.805  0.00  0.00    +0.000 HD
ENDBRANCH  19  20
ENDBRANCH  18  19
ENDBRANCH  16  18
ENDBRANCH   9  16
TORSDOF 5
ENDMDL
