MODEL 1
REMARK VINA RESULT:      -8.4      0.000      0.000
REMARK  Name = 
REMARK  4 active torsions:
REMARK  status: ('A' for Active; 'I' for Inactive)
REMARK    1  A    between atoms: N_3  and  C_4
REMARK    2  A    between atoms: C_11  and  O_12
REMARK    3  A    between atoms: N_14  and  C_15
REMARK    4  A    between atoms: C_18  and  C_19
REMARK                            x       y       z     vdW  Elec       q    Type
REMARK                         _______ _______ _______ _____ _____    ______ ____
ROOT
ATOM      1  O   UNL     1       1.764   7.514  18.115  0.00  0.00    +0.000 OA
ATOM      2  C   UNL     1       1.954   7.666  19.318  0.00  0.00    +0.000 C 
ATOM      3  N   UNL     1       2.665   6.822  20.144  0.00  0.00    +0.000 N 
ATOM      4  N   UNL     1       1.416   8.743  19.998  0.00  0.00    +0.000 N 
ATOM      5  H   UNL     1       2.512   6.947  21.133  0.00  0.00    +0.000 HD
ATOM      6  H   UNL     1       1.943   9.078  20.790  0.00  0.00    +0.000 HD
ENDROOT
BRANCH   3   7
ATOM      7  C   UNL     1       3.359   5.655  19.739  0.00  0.00    +0.000 A 
ATOM      8  C   UNL     1       4.686   5.681  19.292  0.00  0.00    +0.000 A 
ATOM      9  C   UNL     1       5.359   4.512  18.893  0.00  0.00    +0.000 A 
ATOM     10  C   UNL     1       4.727   3.276  18.952  0.00  0.00    +0.000 A 
ATOM     11  C   UNL     1       3.417   3.241  19.392  0.00  0.00    +0.000 A 
ATOM     12  C   UNL     1       2.730   4.413  19.777  0.00  0.00    +0.000 A 
ATOM     13  C   UNL     1       1.325   4.059  20.183  0.00  0.00    +0.000 C 
ATOM     14  C   UNL     1       1.158   2.659  19.554  0.00  0.00    +0.000 C 
ATOM     15  C   UNL     1       2.554   2.020  19.532  0.00  0.00    +0.000 C 
BRANCH  14  16
ATOM     16  O   UNL     1       0.652   2.781  18.217  0.00  0.00    +0.000 OA
ATOM     17  H   UNL     1      -0.310   2.930  18.280  0.00  0.00    +0.000 HD
ENDBRANCH  14  16
ENDBRANCH   3   7
BRANCH   4  18
ATOM     18  C   UNL     1       0.613   9.704  19.259  0.00  0.00    +0.000 C 
ATOM     19  C   UNL     1       1.353  11.004  18.939  0.00  0.00    +0.000 C 
ATOM     20  C   UNL     1       0.265  12.069  18.766  0.00  0.00    +0.000 C 
ATOM     21  C   UNL     1      -1.058  11.431  19.237  0.00  0.00    +0.000 C 
ATOM     22  C   UNL     1      -0.619  10.182  20.016  0.00  0.00    +0.000 C 
BRANCH  21  23
ATOM     23  C   UNL     1      -2.053  11.119  18.131  0.00  0.00    +0.000 A 
ATOM     24  C   UNL     1      -1.746  10.320  17.018  0.00  0.00    +0.000 A 
ATOM     25  C   UNL     1      -2.683  10.113  16.000  0.00  0.00    +0.000 A 
ATOM     26  C   UNL     1      -3.950  10.685  16.084  0.00  0.00    +0.000 A 
ATOM     27  C   UNL     1      -4.288  11.448  17.197  0.00  0.00    +0.000 A 
ATOM     28  C   UNL     1      -3.348  11.653  18.206  0.00  0.00    +0.000 A 
ATOM     29  F   UNL     1      -3.703  12.392  19.268  0.00  0.00    +0.000 F 
ENDBRANCH  21  23
ENDBRANCH   4  18
TORSDOF 4
ENDMDL
MODEL 2
REMARK VINA RESULT:      -8.1      2.144      3.018
REMARK  Name = 
REMARK  4 active torsions:
REMARK  status: ('A' for Active; 'I' for Inactive)
REMARK    1  A    between atoms: N_3  and  C_4
REMARK    2  A    between atoms: C_11  and  O_12
REMARK    3  A    between atoms: N_14  and  C_15
REMARK    4  A    between atoms: C_18  and  C_19
REMARK                            x       y       z     vdW  Elec       q    Type
REMARK                         _______ _______ _______ _____ _____    ______ ____
ROOT
ATOM      1  O   UNL     1       1.999   8.222  19.158  0.00  0.00    +0.000 OA
ATOM      2  C   UNL     1       2.005   7.498  20.148  0.00  0.00    +0.000 C 
ATOM      3  N   UNL     1       2.447   6.193  20.202  0.00  0.00    +0.000 N 
ATOM      4  N   UNL     1       1.513   7.940  21.362  0.00  0.00    +0.000 N 
ATOM      5  H   UNL     1       2.149   5.664  21.007  0.00  0.00    +0.000 HD
ATOM      6  H   UNL     1       1.942   7.547  22.187  0.00  0.00    +0.000 HD
ENDROOT
BRANCH   3   7
ATOM      7  C   UNL     1       3.032   5.470  19.133  0.00  0.00    +0.000 A 
ATOM      8  C   UNL     1       3.776   6.089  18.120  0.00  0.00    +0.000 A 
ATOM      9  C   UNL     1       4.350   5.356  17.065  0.00  0.00    +0.000 A 
ATOM     10  C   UNL     1       4.212   3.975  17.006  0.00  0.00    +0.000 A 
ATOM     11  C   UNL     1       3.480   3.356  18.003  0.00  0.00    +0.000 A 
ATOM     12  C   UNL     1       2.887   4.088  19.053  0.00  0.00    +0.000 A 
ATOM     13  C   UNL     1       2.141   3.146  19.961  0.00  0.00    +0.000 C 
ATOM     14  C   UNL     1       1.995   1.897  19.066  0.00  0.00    +0.000 C 
ATOM     15  C   UNL     1       3.210   1.884  18.129  0.00  0.00    +0.000 C 
BRANCH  14  16
ATOM     16  O   UNL     1       0.785   1.984  18.299  0.00  0.00    +0.000 OA
ATOM     17  H   UNL     1       0.276   2.744  18.639  0.00  0.00    +0.000 HD
ENDBRANCH  14  16
ENDBRANCH   3   7
BRANCH   4  18
ATOM     18  C   UNL     1       0.983   9.292  21.450  0.00  0.00    +0.000 C 
ATOM     19  C   UNL     1       0.483   9.663  22.847  0.00  0.00    +0.000 C 
ATOM     20  C   UNL     1      -0.557  10.769  22.634  0.00  0.00    +0.000 C 
ATOM     21  C   UNL     1      -0.827  10.837  21.116  0.00  0.00    +0.000 C 
ATOM     22  C   UNL     1      -0.236   9.529  20.568  0.00  0.00    +0.000 C 
BRANCH  21  23
ATOM     23  C   UNL     1      -0.277  12.071  20.419  0.00  0.00    +0.000 A 
ATOM     24  C   UNL     1       0.690  12.914  20.989  0.00  0.00    +0.000 A 
ATOM     25  C   UNL     1       1.117  14.070  20.326  0.00  0.00    +0.000 A 
ATOM     26  C   UNL     1       0.599  14.396  19.074  0.00  0.00    +0.000 A 
ATOM     27  C   UNL     1      -0.332  13.553  18.475  0.00  0.00    +0.000 A 
ATOM     28  C   UNL     1      -0.756  12.405  19.143  0.00  0.00    +0.000 A 
ATOM     29  F   UNL     1      -1.653  11.611  18.540  0.00  0.00    +0.000 F 
ENDBRANCH  21  23
ENDBRANCH   4  18
TORSDOF 4
ENDMDL
MODEL 3
REMARK VINA RESULT:      -8.0      1.019      1.068
REMARK  Name = 
REMARK  4 active torsions:
REMARK  status: ('A' for Active; 'I' for Inactive)
REMARK    1  A    between atoms: N_3  and  C_4
REMARK    2  A    between atoms: C_11  and  O_12
REMARK    3  A    between atoms: N_14  and  C_15
REMARK    4  A    between atoms: C_18  and  C_19
REMARK                            x       y       z     vdW  Elec       q    Type
REMARK                         _______ _______ _______ _____ _____    ______ ____
ROOT
ATOM      1  O   UNL     1       1.587   8.222  17.426  0.00  0.00    +0.000 OA
ATOM      2  C   UNL     1       1.864   8.176  18.620  0.00  0.00    +0.000 C 
ATOM      3  N   UNL     1       2.669   7.240  19.235  0.00  0.00    +0.000 N 
ATOM      4  N   UNL     1       1.340   9.091  19.513  0.00  0.00    +0.000 N 
ATOM      5  H   UNL     1       2.588   7.186  20.238  0.00  0.00    +0.000 HD
ATOM      6  H   UNL     1       1.913   9.312  20.313  0.00  0.00    +0.000 HD
ENDROOT
BRANCH   3   7
ATOM      7  C   UNL     1       3.373   6.197  18.585  0.00  0.00    +0.000 A 
ATOM      8  C   UNL     1       4.410   6.436  17.674  0.00  0.00    +0.000 A 
ATOM      9  C   UNL     1       5.098   5.388  17.037  0.00  0.00    +0.000 A 
ATOM     10  C   UNL     1       4.781   4.063  17.312  0.00  0.00    +0.000 A 
ATOM     11  C   UNL     1       3.758   3.817  18.210  0.00  0.00    +0.000 A 
ATOM     12  C   UNL     1       3.052   4.865  18.839  0.00  0.00    +0.000 A 
ATOM     13  C   UNL     1       1.992   4.287  19.737  0.00  0.00    +0.000 C 
ATOM     14  C   UNL     1       1.876   2.845  19.198  0.00  0.00    +0.000 C 
ATOM     15  C   UNL     1       3.259   2.470  18.647  0.00  0.00    +0.000 C 
BRANCH  14  16
ATOM     16  O   UNL     1       0.898   2.793  18.148  0.00  0.00    +0.000 OA
ATOM     17  H   UNL     1       0.965   3.625  17.644  0.00  0.00    +0.000 HD
ENDBRANCH  14  16
ENDBRANCH   3   7
BRANCH   4  18
ATOM     18  C   UNL     1       0.445  10.123  19.012  0.00  0.00    +0.000 C 
ATOM     19  C   UNL     1       1.147  11.448  18.711  0.00  0.00    +0.000 C 
ATOM     20  C   UNL     1       0.062  12.525  18.821  0.00  0.00    +0.000 C 
ATOM     21  C   UNL     1      -1.181  11.842  19.429  0.00  0.00    +0.000 C 
ATOM     22  C   UNL     1      -0.645  10.520  19.999  0.00  0.00    +0.000 C 
BRANCH  21  23
ATOM     23  C   UNL     1      -2.342  11.643  18.468  0.00  0.00    +0.000 A 
ATOM     24  C   UNL     1      -2.181  11.231  17.136  0.00  0.00    +0.000 A 
ATOM     25  C   UNL     1      -3.282  11.121  16.280  0.00  0.00    +0.000 A 
ATOM     26  C   UNL     1      -4.566  11.403  16.743  0.00  0.00    +0.000 A 
ATOM     27  C   UNL     1      -4.750  11.774  18.070  0.00  0.00    +0.000 A 
ATOM     28  C   UNL     1      -3.649  11.886  18.918  0.00  0.00    +0.000 A 
ATOM     29  F   UNL     1      -3.859  12.245  20.193  0.00  0.00    +0.000 F 
ENDBRANCH  21  23
ENDBRANCH   4  18
TORSDOF 4
ENDMDL
MODEL 4
REMARK VINA RESULT:      -7.9      2.569      3.125
REMARK  Name = 
REMARK  4 active torsions:
REMARK  status: ('A' for Active; 'I' for Inactive)
REMARK    1  A    between atoms: N_3  and  C_4
REMARK    2  A    between atoms: C_11  and  O_12
REMARK    3  A    between atoms: N_14  and  C_15
REMARK    4  A    between atoms: C_18  and  C_19
REMARK                            x       y       z     vdW  Elec       q    Type
REMARK                         _______ _______ _______ _____ _____    ______ ____
ROOT
ATOM      1  O   UNL     1       0.794   9.126  19.353  0.00  0.00    +0.000 OA
ATOM      2  C   UNL     1       1.145   8.715  20.454  0.00  0.00    +0.000 C 
ATOM      3  N   UNL     1       1.874   7.572  20.704  0.00  0.00    +0.000 N 
ATOM      4  N   UNL     1       0.794   9.382  21.613  0.00  0.00    +0.000 N 
ATOM      5  H   UNL     1       1.857   7.242  21.656  0.00  0.00    +0.000 HD
ATOM      6  H   UNL     1       1.443   9.311  22.383  0.00  0.00    +0.000 HD
ENDROOT
BRANCH   3   7
ATOM      7  C   UNL     1       2.405   6.696  19.725  0.00  0.00    +0.000 A 
ATOM      8  C   UNL     1       2.976   7.154  18.530  0.00  0.00    +0.000 A 
ATOM      9  C   UNL     1       3.497   6.270  17.568  0.00  0.00    +0.000 A 
ATOM     10  C   UNL     1       3.481   4.898  17.786  0.00  0.00    +0.000 A 
ATOM     11  C   UNL     1       2.920   4.437  18.963  0.00  0.00    +0.000 A 
ATOM     12  C   UNL     1       2.380   5.318  19.923  0.00  0.00    +0.000 A 
ATOM     13  C   UNL     1       1.826   4.524  21.076  0.00  0.00    +0.000 C 
ATOM     14  C   UNL     1       1.699   3.116  20.456  0.00  0.00    +0.000 C 
ATOM     15  C   UNL     1       2.803   3.004  19.394  0.00  0.00    +0.000 C 
BRANCH  14  16
ATOM     16  O   UNL     1       0.411   2.967  19.842  0.00  0.00    +0.000 OA
ATOM     17  H   UNL     1       0.522   3.124  18.885  0.00  0.00    +0.000 HD
ENDBRANCH  14  16
ENDBRANCH   3   7
BRANCH   4  18
ATOM     18  C   UNL     1      -0.005  10.593  21.508  0.00  0.00    +0.000 C 
ATOM     19  C   UNL     1       0.810  11.836  21.148  0.00  0.00    +0.000 C 
ATOM     20  C   UNL     1       0.007  13.026  21.684  0.00  0.00    +0.000 C 
ATOM     21  C   UNL     1      -1.120  12.443  22.561  0.00  0.00    +0.000 C 
ATOM     22  C   UNL     1      -0.691  10.989  22.808  0.00  0.00    +0.000 C 
BRANCH  21  23
ATOM     23  C   UNL     1      -2.517  12.555  21.973  0.00  0.00    +0.000 A 
ATOM     24  C   UNL     1      -2.771  12.653  20.596  0.00  0.00    +0.000 A 
ATOM     25  C   UNL     1      -4.075  12.813  20.115  0.00  0.00    +0.000 A 
ATOM     26  C   UNL     1      -5.151  12.860  20.999  0.00  0.00    +0.000 A 
ATOM     27  C   UNL     1      -4.924  12.726  22.365  0.00  0.00    +0.000 A 
ATOM     28  C   UNL     1      -3.622  12.570  22.838  0.00  0.00    +0.000 A 
ATOM     29  F   UNL     1      -3.435  12.442  24.160  0.00  0.00    +0.000 F 
ENDBRANCH  21  23
ENDBRANCH   4  18
TORSDOF 4
ENDMDL
MODEL 5
REMARK VINA RESULT:      -7.9      1.961      2.888
REMARK  Name = 
REMARK  4 active torsions:
REMARK  status: ('A' for Active; 'I' for Inactive)
REMARK    1  A    between atoms: N_3  and  C_4
REMARK    2  A    between atoms: C_11  and  O_12
REMARK    3  A    between atoms: N_14  and  C_15
REMARK    4  A    between atoms: C_18  and  C_19
REMARK                            x       y       z     vdW  Elec       q    Type
REMARK                         _______ _______ _______ _____ _____    ______ ____
ROOT
ATOM      1  O   UNL     1       1.291   7.382  17.490  0.00  0.00    +0.000 OA
ATOM      2  C   UNL     1       2.189   7.721  18.256  0.00  0.00    +0.000 C 
ATOM      3  N   UNL     1       3.255   6.945  18.656  0.00  0.00    +0.000 N 
ATOM      4  N   UNL     1       2.195   8.972  18.843  0.00  0.00    +0.000 N 
ATOM      5  H   UNL     1       3.750   7.270  19.472  0.00  0.00    +0.000 HD
ATOM      6  H   UNL     1       3.102   9.363  19.050  0.00  0.00    +0.000 HD
ENDROOT
BRANCH   3   7
ATOM      7  C   UNL     1       3.541   5.632  18.206  0.00  0.00    +0.000 A 
ATOM      8  C   UNL     1       3.002   4.490  18.811  0.00  0.00    +0.000 A 
ATOM      9  C   UNL     1       3.298   3.194  18.351  0.00  0.00    +0.000 A 
ATOM     10  C   UNL     1       4.129   3.005  17.253  0.00  0.00    +0.000 A 
ATOM     11  C   UNL     1       4.665   4.128  16.649  0.00  0.00    +0.000 A 
ATOM     12  C   UNL     1       4.387   5.429  17.118  0.00  0.00    +0.000 A 
ATOM     13  C   UNL     1       5.129   6.433  16.277  0.00  0.00    +0.000 C 
ATOM     14  C   UNL     1       6.196   5.548  15.598  0.00  0.00    +0.000 C 
ATOM     15  C   UNL     1       5.580   4.149  15.459  0.00  0.00    +0.000 C 
BRANCH  14  16
ATOM     16  O   UNL     1       7.373   5.487  16.417  0.00  0.00    +0.000 OA
ATOM     17  H   UNL     1       8.073   5.992  15.961  0.00  0.00    +0.000 HD
ENDBRANCH  14  16
ENDBRANCH   3   7
BRANCH   4  18
ATOM     18  C   UNL     1       1.111   9.893  18.538  0.00  0.00    +0.000 C 
ATOM     19  C   UNL     1       1.528  11.364  18.575  0.00  0.00    +0.000 C 
ATOM     20  C   UNL     1       0.246  12.151  18.864  0.00  0.00    +0.000 C 
ATOM     21  C   UNL     1      -0.834  11.116  19.242  0.00  0.00    +0.000 C 
ATOM     22  C   UNL     1      -0.042   9.832  19.531  0.00  0.00    +0.000 C 
BRANCH  21  23
ATOM     23  C   UNL     1      -1.926  10.915  18.203  0.00  0.00    +0.000 A 
ATOM     24  C   UNL     1      -1.793  10.058  17.099  0.00  0.00    +0.000 A 
ATOM     25  C   UNL     1      -2.809   9.957  16.141  0.00  0.00    +0.000 A 
ATOM     26  C   UNL     1      -3.982  10.695  16.279  0.00  0.00    +0.000 A 
ATOM     27  C   UNL     1      -4.149  11.520  17.387  0.00  0.00    +0.000 A 
ATOM     28  C   UNL     1      -3.132  11.620  18.335  0.00  0.00    +0.000 A 
ATOM     29  F   UNL     1      -3.322  12.422  19.393  0.00  0.00    +0.000 F 
ENDBRANCH  21  23
ENDBRANCH   4  18
TORSDOF 4
ENDMDL
MODEL 6
REMARK VINA RESULT:      -7.8      6.612      8.375
REMARK  Name = 
REMARK  4 active torsions:
REMARK  status: ('A' for Active; 'I' for Inactive)
REMARK    1  A    between atoms: N_3  and  C_4
REMARK    2  A    between atoms: C_11  and  O_12
REMARK    3  A    between atoms: N_14  and  C_15
REMARK    4  A    between atoms: C_18  and  C_19
REMARK                            x       y       z     vdW  Elec       q    Type
REMARK                         _______ _______ _______ _____ _____    ______ ____
ROOT
ATOM      1  O   UNL     1       7.308   8.802  17.241  0.00  0.00    +0.000 OA
ATOM      2  C   UNL     1       7.936   8.110  18.037  0.00  0.00    +0.000 C 
ATOM      3  N   UNL     1       7.838   6.743  18.183  0.00  0.00    +0.000 N 
ATOM      4  N   UNL     1       8.825   8.676  18.931  0.00  0.00    +0.000 N 
ATOM      5  H   UNL     1       8.218   6.367  19.038  0.00  0.00    +0.000 HD
ATOM      6  H   UNL     1       9.611   8.103  19.201  0.00  0.00    +0.000 HD
ENDROOT
BRANCH   3   7
ATOM      7  C   UNL     1       7.038   5.879  17.396  0.00  0.00    +0.000 A 
ATOM      8  C   UNL     1       7.306   5.621  16.045  0.00  0.00    +0.000 A 
ATOM      9  C   UNL     1       6.500   4.761  15.278  0.00  0.00    +0.000 A 
ATOM     10  C   UNL     1       5.411   4.115  15.849  0.00  0.00    +0.000 A 
ATOM     11  C   UNL     1       5.139   4.364  17.182  0.00  0.00    +0.000 A 
ATOM     12  C   UNL     1       5.933   5.240  17.952  0.00  0.00    +0.000 A 
ATOM     13  C   UNL     1       5.377   5.323  19.348  0.00  0.00    +0.000 C 
ATOM     14  C   UNL     1       3.947   4.775  19.151  0.00  0.00    +0.000 C 
ATOM     15  C   UNL     1       4.018   3.774  17.989  0.00  0.00    +0.000 C 
BRANCH  14  16
ATOM     16  O   UNL     1       3.054   5.849  18.820  0.00  0.00    +0.000 OA
ATOM     17  H   UNL     1       2.830   6.310  19.650  0.00  0.00    +0.000 HD
ENDBRANCH  14  16
ENDBRANCH   3   7
BRANCH   4  18
ATOM     18  C   UNL     1       9.010  10.119  18.914  0.00  0.00    +0.000 C 
ATOM     19  C   UNL     1      10.000  10.597  17.852  0.00  0.00    +0.000 C 
ATOM     20  C   UNL     1      10.538  11.939  18.361  0.00  0.00    +0.000 C 
ATOM     21  C   UNL     1      10.048  12.089  19.816  0.00  0.00    +0.000 C 
ATOM     22  C   UNL     1       9.588  10.677  20.208  0.00  0.00    +0.000 C 
BRANCH  21  23
ATOM     23  C   UNL     1       8.971  13.141  20.029  0.00  0.00    +0.000 A 
ATOM     24  C   UNL     1       8.293  13.776  18.977  0.00  0.00    +0.000 A 
ATOM     25  C   UNL     1       7.352  14.780  19.230  0.00  0.00    +0.000 A 
ATOM     26  C   UNL     1       7.057  15.155  20.539  0.00  0.00    +0.000 A 
ATOM     27  C   UNL     1       7.690  14.510  21.597  0.00  0.00    +0.000 A 
ATOM     28  C   UNL     1       8.629  13.513  21.338  0.00  0.00    +0.000 A 
ATOM     29  F   UNL     1       9.222  12.909  22.379  0.00  0.00    +0.000 F 
ENDBRANCH  21  23
ENDBRANCH   4  18
TORSDOF 4
ENDMDL
MODEL 7
REMARK VINA RESULT:      -7.8      3.556      8.821
REMARK  Name = 
REMARK  4 active torsions:
REMARK  status: ('A' for Active; 'I' for Inactive)
REMARK    1  A    between atoms: N_3  and  C_4
REMARK    2  A    between atoms: C_11  and  O_12
REMARK    3  A    between atoms: N_14  and  C_15
REMARK    4  A    between atoms: C_18  and  C_19
REMARK                            x       y       z     vdW  Elec       q    Type
REMARK                         _______ _______ _______ _____ _____    ______ ____
ROOT
ATOM      1  O   UNL     1       2.218   7.955  18.075  0.00  0.00    +0.000 OA
ATOM      2  C   UNL     1       2.093   7.777  19.282  0.00  0.00    +0.000 C 
ATOM      3  N   UNL     1       1.515   8.648  20.180  0.00  0.00    +0.000 N 
ATOM      4  N   UNL     1       2.578   6.634  19.891  0.00  0.00    +0.000 N 
ATOM      5  H   UNL     1       1.720   8.475  21.152  0.00  0.00    +0.000 HD
ATOM      6  H   UNL     1       2.076   6.316  20.707  0.00  0.00    +0.000 HD
ENDROOT
BRANCH   3   7
ATOM      7  C   UNL     1       0.901   9.884  19.859  0.00  0.00    +0.000 A 
ATOM      8  C   UNL     1       1.252  10.631  18.727  0.00  0.00    +0.000 A 
ATOM      9  C   UNL     1       0.634  11.857  18.424  0.00  0.00    +0.000 A 
ATOM     10  C   UNL     1      -0.373  12.362  19.237  0.00  0.00    +0.000 A 
ATOM     11  C   UNL     1      -0.727  11.631  20.356  0.00  0.00    +0.000 A 
ATOM     12  C   UNL     1      -0.097  10.409  20.676  0.00  0.00    +0.000 A 
ATOM     13  C   UNL     1      -0.676   9.866  21.955  0.00  0.00    +0.000 C 
ATOM     14  C   UNL     1      -1.353  11.119  22.550  0.00  0.00    +0.000 C 
ATOM     15  C   UNL     1      -1.782  11.992  21.362  0.00  0.00    +0.000 C 
BRANCH  14  16
ATOM     16  O   UNL     1      -0.421  11.835  23.373  0.00  0.00    +0.000 OA
ATOM     17  H   UNL     1       0.477  11.608  23.064  0.00  0.00    +0.000 HD
ENDBRANCH  14  16
ENDBRANCH   3   7
BRANCH   4  18
ATOM     18  C   UNL     1       3.244   5.634  19.071  0.00  0.00    +0.000 C 
ATOM     19  C   UNL     1       2.655   4.231  19.217  0.00  0.00    +0.000 C 
ATOM     20  C   UNL     1       3.784   3.266  18.839  0.00  0.00    +0.000 C 
ATOM     21  C   UNL     1       5.071   4.110  18.731  0.00  0.00    +0.000 C 
ATOM     22  C   UNL     1       4.713   5.435  19.422  0.00  0.00    +0.000 C 
BRANCH  21  23
ATOM     23  C   UNL     1       5.597   4.304  17.318  0.00  0.00    +0.000 A 
ATOM     24  C   UNL     1       4.802   4.162  16.171  0.00  0.00    +0.000 A 
ATOM     25  C   UNL     1       5.353   4.295  14.892  0.00  0.00    +0.000 A 
ATOM     26  C   UNL     1       6.706   4.591  14.736  0.00  0.00    +0.000 A 
ATOM     27  C   UNL     1       7.503   4.774  15.861  0.00  0.00    +0.000 A 
ATOM     28  C   UNL     1       6.948   4.637  17.132  0.00  0.00    +0.000 A 
ATOM     29  F   UNL     1       7.741   4.821  18.198  0.00  0.00    +0.000 F 
ENDBRANCH  21  23
ENDBRANCH   4  18
TORSDOF 4
ENDMDL
MODEL 8
REMARK VINA RESULT:      -7.8      1.122      1.201
REMARK  Name = 
REMARK  4 active torsions:
REMARK  status: ('A' for Active; 'I' for Inactive)
REMARK    1  A    between atoms: N_3  and  C_4
REMARK    2  A    between atoms: C_11  and  O_12
REMARK    3  A    between atoms: N_14  and  C_15
REMARK    4  A    between atoms: C_18  and  C_19
REMARK                            x       y       z     vdW  Elec       q    Type
REMARK                         _______ _______ _______ _____ _____    ______ ____
ROOT
ATOM      1  O   UNL     1       1.211   7.331  17.774  0.00  0.00    +0.000 OA
ATOM      2  C   UNL     1       2.260   7.763  18.243  0.00  0.00    +0.000 C 
ATOM      3  N   UNL     1       3.390   7.026  18.528  0.00  0.00    +0.000 N 
ATOM      4  N   UNL     1       2.400   9.097  18.577  0.00  0.00    +0.000 N 
ATOM      5  H   UNL     1       4.058   7.470  19.139  0.00  0.00    +0.000 HD
ATOM      6  H   UNL     1       3.330   9.481  18.499  0.00  0.00    +0.000 HD
ENDROOT
BRANCH   3   7
ATOM      7  C   UNL     1       3.565   5.644  18.272  0.00  0.00    +0.000 A 
ATOM      8  C   UNL     1       4.190   5.162  17.114  0.00  0.00    +0.000 A 
ATOM      9  C   UNL     1       4.355   3.786  16.876  0.00  0.00    +0.000 A 
ATOM     10  C   UNL     1       3.917   2.850  17.803  0.00  0.00    +0.000 A 
ATOM     11  C   UNL     1       3.300   3.316  18.949  0.00  0.00    +0.000 A 
ATOM     12  C   UNL     1       3.115   4.695  19.186  0.00  0.00    +0.000 A 
ATOM     13  C   UNL     1       2.397   4.886  20.496  0.00  0.00    +0.000 C 
ATOM     14  C   UNL     1       1.800   3.483  20.735  0.00  0.00    +0.000 C 
ATOM     15  C   UNL     1       2.756   2.481  20.073  0.00  0.00    +0.000 C 
BRANCH  14  16
ATOM     16  O   UNL     1       0.501   3.395  20.132  0.00  0.00    +0.000 OA
ATOM     17  H   UNL     1      -0.087   2.946  20.767  0.00  0.00    +0.000 HD
ENDBRANCH  14  16
ENDBRANCH   3   7
BRANCH   4  18
ATOM     18  C   UNL     1       1.275   9.993  18.360  0.00  0.00    +0.000 C 
ATOM     19  C   UNL     1       1.653  11.474  18.412  0.00  0.00    +0.000 C 
ATOM     20  C   UNL     1       0.369  12.216  18.797  0.00  0.00    +0.000 C 
ATOM     21  C   UNL     1      -0.658  11.141  19.209  0.00  0.00    +0.000 C 
ATOM     22  C   UNL     1       0.185   9.874  19.417  0.00  0.00    +0.000 C 
BRANCH  21  23
ATOM     23  C   UNL     1      -1.803  10.935  18.231  0.00  0.00    +0.000 A 
ATOM     24  C   UNL     1      -1.741  10.048  17.144  0.00  0.00    +0.000 A 
ATOM     25  C   UNL     1      -2.804   9.942  16.241  0.00  0.00    +0.000 A 
ATOM     26  C   UNL     1      -3.956  10.706  16.417  0.00  0.00    +0.000 A 
ATOM     27  C   UNL     1      -4.053  11.561  17.510  0.00  0.00    +0.000 A 
ATOM     28  C   UNL     1      -2.989  11.665  18.404  0.00  0.00    +0.000 A 
ATOM     29  F   UNL     1      -3.112  12.497  19.449  0.00  0.00    +0.000 F 
ENDBRANCH  21  23
ENDBRANCH   4  18
TORSDOF 4
ENDMDL
MODEL 9
REMARK VINA RESULT:      -7.8      3.386      9.051
REMARK  Name = 
REMARK  4 active torsions:
REMARK  status: ('A' for Active; 'I' for Inactive)
REMARK    1  A    between atoms: N_3  and  C_4
REMARK    2  A    between atoms: C_11  and  O_12
REMARK    3  A    between atoms: N_14  and  C_15
REMARK    4  A    between atoms: C_18  and  C_19
REMARK                            x       y       z     vdW  Elec       q    Type
REMARK                         _______ _______ _______ _____ _____    ______ ____
ROOT
ATOM      1  O   UNL     1       1.478   8.236  17.501  0.00  0.00    +0.000 OA
ATOM      2  C   UNL     1       1.587   8.308  18.721  0.00  0.00    +0.000 C 
ATOM      3  N   UNL     1       1.085   9.307  19.528  0.00  0.00    +0.000 N 
ATOM      4  N   UNL     1       2.290   7.355  19.435  0.00  0.00    +0.000 N 
ATOM      5  H   UNL     1       1.475   9.356  20.456  0.00  0.00    +0.000 HD
ATOM      6  H   UNL     1       1.976   7.183  20.378  0.00  0.00    +0.000 HD
ENDROOT
BRANCH   3   7
ATOM      7  C   UNL     1       0.296  10.402  19.097  0.00  0.00    +0.000 A 
ATOM      8  C   UNL     1      -1.030  10.258  18.670  0.00  0.00    +0.000 A 
ATOM      9  C   UNL     1      -1.798  11.357  18.245  0.00  0.00    +0.000 A 
ATOM     10  C   UNL     1      -1.265  12.640  18.257  0.00  0.00    +0.000 A 
ATOM     11  C   UNL     1       0.043  12.792  18.678  0.00  0.00    +0.000 A 
ATOM     12  C   UNL     1       0.825  11.690  19.088  0.00  0.00    +0.000 A 
ATOM     13  C   UNL     1       2.203  12.167  19.463  0.00  0.00    +0.000 C 
ATOM     14  C   UNL     1       2.250  13.555  18.790  0.00  0.00    +0.000 C 
ATOM     15  C   UNL     1       0.808  14.081  18.768  0.00  0.00    +0.000 C 
BRANCH  14  16
ATOM     16  O   UNL     1       2.748  13.431  17.450  0.00  0.00    +0.000 OA
ATOM     17  H   UNL     1       3.490  12.797  17.470  0.00  0.00    +0.000 HD
ENDBRANCH  14  16
ENDBRANCH   3   7
BRANCH   4  18
ATOM     18  C   UNL     1       2.905   6.253  18.711  0.00  0.00    +0.000 C 
ATOM     19  C   UNL     1       2.047   4.988  18.677  0.00  0.00    +0.000 C 
ATOM     20  C   UNL     1       3.028   3.827  18.477  0.00  0.00    +0.000 C 
ATOM     21  C   UNL     1       4.445   4.409  18.655  0.00  0.00    +0.000 C 
ATOM     22  C   UNL     1       4.213   5.772  19.326  0.00  0.00    +0.000 C 
BRANCH  21  23
ATOM     23  C   UNL     1       5.265   4.511  17.379  0.00  0.00    +0.000 A 
ATOM     24  C   UNL     1       4.715   4.379  16.094  0.00  0.00    +0.000 A 
ATOM     25  C   UNL     1       5.527   4.423  14.956  0.00  0.00    +0.000 A 
ATOM     26  C   UNL     1       6.901   4.619  15.079  0.00  0.00    +0.000 A 
ATOM     27  C   UNL     1       7.460   4.792  16.341  0.00  0.00    +0.000 A 
ATOM     28  C   UNL     1       6.646   4.743  17.471  0.00  0.00    +0.000 A 
ATOM     29  F   UNL     1       7.214   4.914  18.675  0.00  0.00    +0.000 F 
ENDBRANCH  21  23
ENDBRANCH   4  18
TORSDOF 4
ENDMDL
