MODEL 1
REMARK VINA RESULT:      -6.8      0.000      0.000
REMARK  Name = 
REMARK  8 active torsions:
REMARK  status: ('A' for Active; 'I' for Inactive)
REMARK    1  A    between atoms: C_1  and  C_2
REMARK    2  A    between atoms: C_2  and  C_3
REMARK    3  A    between atoms: C_2  and  C_4
REMARK    4  A    between atoms: C_2  and  C_5
REMARK    5  A    between atoms: C_11  and  O_12
REMARK    6  A    between atoms: O_12  and  C_13
REMARK    7  A    between atoms: C_13  and  C_14
REMARK    8  A    between atoms: C_14  and  N_15
REMARK                            x       y       z     vdW  Elec       q    Type
REMARK                         _______ _______ _______ _____ _____    ______ ____
ROOT
ATOM      1  C   UNL     1       2.227   4.621  19.353  0.00  0.00    +0.000 A 
ATOM      2  C   UNL     1       1.832   5.620  20.290  0.00  0.00    +0.000 A 
ATOM      3  C   UNL     1       1.983   6.986  20.056  0.00  0.00    +0.000 A 
ATOM      4 CL   UNL     1       1.571   8.122  21.279  0.00  0.00    +0.000 Cl
ATOM      5  C   UNL     1       2.451   7.424  18.841  0.00  0.00    +0.000 A 
ATOM      6  C   UNL     1       2.823   6.484  17.888  0.00  0.00    +0.000 A 
ATOM      7  C   UNL     1       2.801   5.087  18.140  0.00  0.00    +0.000 A 
ENDROOT
BRANCH   1   9
ATOM      8  C   UNL     1       1.320   3.173  21.195  0.00  0.00    +0.000 C 
ATOM      9  C   UNL     1       1.910   3.155  19.764  0.00  0.00    +0.000 C 
ATOM     10  C   UNL     1       3.196   2.273  19.811  0.00  0.00    +0.000 C 
ATOM     11  C   UNL     1       0.928   2.397  18.857  0.00  0.00    +0.000 C 
ENDBRANCH   1   9
BRANCH   7  12
ATOM     12  O   UNL     1       3.354   4.219  17.206  0.00  0.00    +0.000 OA
BRANCH  12  13
ATOM     13  C   UNL     1       4.712   4.565  16.828  0.00  0.00    +0.000 C 
BRANCH  13  14
ATOM     14  C   UNL     1       5.753   4.518  17.944  0.00  0.00    +0.000 C 
BRANCH  14  15
ATOM     15  N   UNL     1       6.599   5.687  17.986  0.00  0.00    +0.000 N 
ATOM     16  C   UNL     1       6.606   6.745  17.125  0.00  0.00    +0.000 A 
ATOM     17  C   UNL     1       7.584   7.577  17.597  0.00  0.00    +0.000 A 
ATOM     18  N   UNL     1       8.198   7.037  18.697  0.00  0.00    +0.000 NA
ATOM     19  C   UNL     1       7.596   5.890  18.894  0.00  0.00    +0.000 A 
ENDBRANCH  14  15
ENDBRANCH  13  14
ENDBRANCH  12  13
ENDBRANCH   7  12
TORSDOF 5
ENDMDL
MODEL 2
REMARK VINA RESULT:      -6.7      1.815      2.388
REMARK  Name = 
REMARK  8 active torsions:
REMARK  status: ('A' for Active; 'I' for Inactive)
REMARK    1  A    between atoms: C_1  and  C_2
REMARK    2  A    between atoms: C_2  and  C_3
REMARK    3  A    between atoms: C_2  and  C_4
REMARK    4  A    between atoms: C_2  and  C_5
REMARK    5  A    between atoms: C_11  and  O_12
REMARK    6  A    between atoms: O_12  and  C_13
REMARK    7  A    between atoms: C_13  and  C_14
REMARK    8  A    between atoms: C_14  and  N_15
REMARK                            x       y       z     vdW  Elec       q    Type
REMARK                         _______ _______ _______ _____ _____    ______ ____
ROOT
ATOM      1  C   UNL     1       2.124   4.950  19.604  0.00  0.00    +0.000 A 
ATOM      2  C   UNL     1       1.732   5.903  20.589  0.00  0.00    +0.000 A 
ATOM      3  C   UNL     1       1.775   7.280  20.377  0.00  0.00    +0.000 A 
ATOM      4 CL   UNL     1       1.377   8.363  21.651  0.00  0.00    +0.000 Cl
ATOM      5  C   UNL     1       2.124   7.770  19.142  0.00  0.00    +0.000 A 
ATOM      6  C   UNL     1       2.488   6.875  18.144  0.00  0.00    +0.000 A 
ATOM      7  C   UNL     1       2.577   5.476  18.365  0.00  0.00    +0.000 A 
ENDROOT
BRANCH   1   9
ATOM      8  C   UNL     1       0.843   2.850  19.089  0.00  0.00    +0.000 C 
ATOM      9  C   UNL     1       1.935   3.459  20.002  0.00  0.00    +0.000 C 
ATOM     10  C   UNL     1       1.436   3.309  21.473  0.00  0.00    +0.000 C 
ATOM     11  C   UNL     1       3.185   2.570  19.903  0.00  0.00    +0.000 C 
ENDBRANCH   1   9
BRANCH   7  12
ATOM     12  O   UNL     1       3.119   4.664  17.374  0.00  0.00    +0.000 OA
BRANCH  12  13
ATOM     13  C   UNL     1       4.555   4.810  17.228  0.00  0.00    +0.000 C 
BRANCH  13  14
ATOM     14  C   UNL     1       5.264   3.717  16.433  0.00  0.00    +0.000 C 
BRANCH  14  15
ATOM     15  N   UNL     1       6.116   4.232  15.387  0.00  0.00    +0.000 N 
ATOM     16  C   UNL     1       6.075   3.936  14.056  0.00  0.00    +0.000 A 
ATOM     17  C   UNL     1       7.083   4.676  13.500  0.00  0.00    +0.000 A 
ATOM     18  N   UNL     1       7.759   5.382  14.460  0.00  0.00    +0.000 NA
ATOM     19  C   UNL     1       7.166   5.079  15.588  0.00  0.00    +0.000 A 
ENDBRANCH  14  15
ENDBRANCH  13  14
ENDBRANCH  12  13
ENDBRANCH   7  12
TORSDOF 5
ENDMDL
MODEL 3
REMARK VINA RESULT:      -6.7      0.880      1.274
REMARK  Name = 
REMARK  8 active torsions:
REMARK  status: ('A' for Active; 'I' for Inactive)
REMARK    1  A    between atoms: C_1  and  C_2
REMARK    2  A    between atoms: C_2  and  C_3
REMARK    3  A    between atoms: C_2  and  C_4
REMARK    4  A    between atoms: C_2  and  C_5
REMARK    5  A    between atoms: C_11  and  O_12
REMARK    6  A    between atoms: O_12  and  C_13
REMARK    7  A    between atoms: C_13  and  C_14
REMARK    8  A    between atoms: C_14  and  N_15
REMARK                            x       y       z     vdW  Elec       q    Type
REMARK                         _______ _______ _______ _____ _____    ______ ____
ROOT
ATOM      1  C   UNL     1       2.790   4.473  19.491  0.00  0.00    +0.000 A 
ATOM      2  C   UNL     1       2.161   5.547  20.186  0.00  0.00    +0.000 A 
ATOM      3  C   UNL     1       2.215   6.870  19.753  0.00  0.00    +0.000 A 
ATOM      4 CL   UNL     1       1.511   8.119  20.702  0.00  0.00    +0.000 Cl
ATOM      5  C   UNL     1       2.822   7.174  18.559  0.00  0.00    +0.000 A 
ATOM      6  C   UNL     1       3.426   6.154  17.835  0.00  0.00    +0.000 A 
ATOM      7  C   UNL     1       3.498   4.817  18.309  0.00  0.00    +0.000 A 
ENDROOT
BRANCH   1   9
ATOM      8  C   UNL     1       3.935   2.410  20.357  0.00  0.00    +0.000 C 
ATOM      9  C   UNL     1       2.554   3.058  20.091  0.00  0.00    +0.000 C 
ATOM     10  C   UNL     1       1.797   2.124  19.095  0.00  0.00    +0.000 C 
ATOM     11  C   UNL     1       1.745   3.003  21.396  0.00  0.00    +0.000 C 
ENDBRANCH   1   9
BRANCH   7  12
ATOM     12  O   UNL     1       4.270   3.892  17.617  0.00  0.00    +0.000 OA
BRANCH  12  13
ATOM     13  C   UNL     1       4.756   4.383  16.341  0.00  0.00    +0.000 C 
BRANCH  13  14
ATOM     14  C   UNL     1       6.272   4.441  16.176  0.00  0.00    +0.000 C 
BRANCH  14  15
ATOM     15  N   UNL     1       6.922   5.288  17.147  0.00  0.00    +0.000 N 
ATOM     16  C   UNL     1       7.104   6.639  17.089  0.00  0.00    +0.000 A 
ATOM     17  C   UNL     1       7.769   6.954  18.243  0.00  0.00    +0.000 A 
ATOM     18  N   UNL     1       8.031   5.830  18.981  0.00  0.00    +0.000 NA
ATOM     19  C   UNL     1       7.526   4.841  18.286  0.00  0.00    +0.000 A 
ENDBRANCH  14  15
ENDBRANCH  13  14
ENDBRANCH  12  13
ENDBRANCH   7  12
TORSDOF 5
ENDMDL
MODEL 4
REMARK VINA RESULT:      -6.7      2.958      5.174
REMARK  Name = 
REMARK  8 active torsions:
REMARK  status: ('A' for Active; 'I' for Inactive)
REMARK    1  A    between atoms: C_1  and  C_2
REMARK    2  A    between atoms: C_2  and  C_3
REMARK    3  A    between atoms: C_2  and  C_4
REMARK    4  A    between atoms: C_2  and  C_5
REMARK    5  A    between atoms: C_11  and  O_12
REMARK    6  A    between atoms: O_12  and  C_13
REMARK    7  A    between atoms: C_13  and  C_14
REMARK    8  A    between atoms: C_14  and  N_15
REMARK                            x       y       z     vdW  Elec       q    Type
REMARK                         _______ _______ _______ _____ _____    ______ ____
ROOT
ATOM      1  C   UNL     1       4.236   5.819  17.610  0.00  0.00    +0.000 A 
ATOM      2  C   UNL     1       5.270   6.793  17.728  0.00  0.00    +0.000 A 
ATOM      3  C   UNL     1       6.529   6.640  17.150  0.00  0.00    +0.000 A 
ATOM      4 CL   UNL     1       7.752   7.817  17.422  0.00  0.00    +0.000 Cl
ATOM      5  C   UNL     1       6.787   5.553  16.352  0.00  0.00    +0.000 A 
ATOM      6  C   UNL     1       5.798   4.592  16.187  0.00  0.00    +0.000 A 
ATOM      7  C   UNL     1       4.550   4.653  16.863  0.00  0.00    +0.000 A 
ENDROOT
BRANCH   1   9
ATOM      8  C   UNL     1       2.617   7.704  17.987  0.00  0.00    +0.000 C 
ATOM      9  C   UNL     1       2.877   6.203  18.262  0.00  0.00    +0.000 C 
ATOM     10  C   UNL     1       2.904   6.022  19.812  0.00  0.00    +0.000 C 
ATOM     11  C   UNL     1       1.649   5.414  17.781  0.00  0.00    +0.000 C 
ENDBRANCH   1   9
BRANCH   7  12
ATOM     12  O   UNL     1       3.684   3.569  16.789  0.00  0.00    +0.000 OA
BRANCH  12  13
ATOM     13  C   UNL     1       3.908   2.577  17.825  0.00  0.00    +0.000 C 
BRANCH  13  14
ATOM     14  C   UNL     1       2.662   1.900  18.389  0.00  0.00    +0.000 C 
BRANCH  14  15
ATOM     15  N   UNL     1       2.353   2.302  19.740  0.00  0.00    +0.000 N 
ATOM     16  C   UNL     1       1.142   2.678  20.244  0.00  0.00    +0.000 A 
ATOM     17  C   UNL     1       1.381   2.960  21.561  0.00  0.00    +0.000 A 
ATOM     18  N   UNL     1       2.708   2.804  21.863  0.00  0.00    +0.000 NA
ATOM     19  C   UNL     1       3.271   2.427  20.742  0.00  0.00    +0.000 A 
ENDBRANCH  14  15
ENDBRANCH  13  14
ENDBRANCH  12  13
ENDBRANCH   7  12
TORSDOF 5
ENDMDL
MODEL 5
REMARK VINA RESULT:      -6.6      1.095      1.565
REMARK  Name = 
REMARK  8 active torsions:
REMARK  status: ('A' for Active; 'I' for Inactive)
REMARK    1  A    between atoms: C_1  and  C_2
REMARK    2  A    between atoms: C_2  and  C_3
REMARK    3  A    between atoms: C_2  and  C_4
REMARK    4  A    between atoms: C_2  and  C_5
REMARK    5  A    between atoms: C_11  and  O_12
REMARK    6  A    between atoms: O_12  and  C_13
REMARK    7  A    between atoms: C_13  and  C_14
REMARK    8  A    between atoms: C_14  and  N_15
REMARK                            x       y       z     vdW  Elec       q    Type
REMARK                         _______ _______ _______ _____ _____    ______ ____
ROOT
ATOM      1  C   UNL     1       2.889   4.620  18.927  0.00  0.00    +0.000 A 
ATOM      2  C   UNL     1       2.228   5.587  19.740  0.00  0.00    +0.000 A 
ATOM      3  C   UNL     1       2.294   6.958  19.499  0.00  0.00    +0.000 A 
ATOM      4 CL   UNL     1       1.548   8.063  20.584  0.00  0.00    +0.000 Cl
ATOM      5  C   UNL     1       2.946   7.425  18.384  0.00  0.00    +0.000 A 
ATOM      6  C   UNL     1       3.582   6.515  17.549  0.00  0.00    +0.000 A 
ATOM      7  C   UNL     1       3.642   5.125  17.834  0.00  0.00    +0.000 A 
ENDROOT
BRANCH   1   9
ATOM      8  C   UNL     1       2.102   2.396  18.062  0.00  0.00    +0.000 C 
ATOM      9  C   UNL     1       2.635   3.135  19.313  0.00  0.00    +0.000 C 
ATOM     10  C   UNL     1       1.545   3.001  20.422  0.00  0.00    +0.000 C 
ATOM     11  C   UNL     1       3.851   2.357  19.840  0.00  0.00    +0.000 C 
ENDBRANCH   1   9
BRANCH   7  12
ATOM     12  O   UNL     1       4.445   4.305  17.051  0.00  0.00    +0.000 OA
BRANCH  12  13
ATOM     13  C   UNL     1       4.980   4.969  15.877  0.00  0.00    +0.000 C 
BRANCH  13  14
ATOM     14  C   UNL     1       6.501   5.068  15.795  0.00  0.00    +0.000 C 
BRANCH  14  15
ATOM     15  N   UNL     1       7.116   5.477  17.034  0.00  0.00    +0.000 N 
ATOM     16  C   UNL     1       7.313   6.748  17.490  0.00  0.00    +0.000 A 
ATOM     17  C   UNL     1       7.930   6.596  18.701  0.00  0.00    +0.000 A 
ATOM     18  N   UNL     1       8.150   5.272  18.977  0.00  0.00    +0.000 NA
ATOM     19  C   UNL     1       7.667   4.624  17.946  0.00  0.00    +0.000 A 
ENDBRANCH  14  15
ENDBRANCH  13  14
ENDBRANCH  12  13
ENDBRANCH   7  12
TORSDOF 5
ENDMDL
MODEL 6
REMARK VINA RESULT:      -6.6      2.600      5.200
REMARK  Name = 
REMARK  8 active torsions:
REMARK  status: ('A' for Active; 'I' for Inactive)
REMARK    1  A    between atoms: C_1  and  C_2
REMARK    2  A    between atoms: C_2  and  C_3
REMARK    3  A    between atoms: C_2  and  C_4
REMARK    4  A    between atoms: C_2  and  C_5
REMARK    5  A    between atoms: C_11  and  O_12
REMARK    6  A    between atoms: O_12  and  C_13
REMARK    7  A    between atoms: C_13  and  C_14
REMARK    8  A    between atoms: C_14  and  N_15
REMARK                            x       y       z     vdW  Elec       q    Type
REMARK                         _______ _______ _______ _____ _____    ______ ____
ROOT
ATOM      1  C   UNL     1       4.669   5.971  17.348  0.00  0.00    +0.000 A 
ATOM      2  C   UNL     1       4.172   7.299  17.499  0.00  0.00    +0.000 A 
ATOM      3  C   UNL     1       2.845   7.584  17.813  0.00  0.00    +0.000 A 
ATOM      4 CL   UNL     1       2.304   9.215  17.882  0.00  0.00    +0.000 Cl
ATOM      5  C   UNL     1       1.970   6.559  18.080  0.00  0.00    +0.000 A 
ATOM      6  C   UNL     1       2.419   5.249  17.970  0.00  0.00    +0.000 A 
ATOM      7  C   UNL     1       3.729   4.922  17.530  0.00  0.00    +0.000 A 
ENDROOT
BRANCH   1   9
ATOM      8  C   UNL     1       6.385   5.414  15.598  0.00  0.00    +0.000 C 
ATOM      9  C   UNL     1       6.195   5.855  17.070  0.00  0.00    +0.000 C 
ATOM     10  C   UNL     1       6.867   4.766  17.963  0.00  0.00    +0.000 C 
ATOM     11  C   UNL     1       7.021   7.132  17.292  0.00  0.00    +0.000 C 
ENDBRANCH   1   9
BRANCH   7  12
ATOM     12  O   UNL     1       4.049   3.594  17.274  0.00  0.00    +0.000 OA
BRANCH  12  13
ATOM     13  C   UNL     1       2.937   2.683  17.470  0.00  0.00    +0.000 C 
BRANCH  13  14
ATOM     14  C   UNL     1       3.075   1.691  18.622  0.00  0.00    +0.000 C 
BRANCH  14  15
ATOM     15  N   UNL     1       2.549   2.187  19.871  0.00  0.00    +0.000 N 
ATOM     16  C   UNL     1       1.259   2.524  20.160  0.00  0.00    +0.000 A 
ATOM     17  C   UNL     1       1.285   2.933  21.465  0.00  0.00    +0.000 A 
ATOM     18  N   UNL     1       2.560   2.893  21.966  0.00  0.00    +0.000 NA
ATOM     19  C   UNL     1       3.301   2.458  20.976  0.00  0.00    +0.000 A 
ENDBRANCH  14  15
ENDBRANCH  13  14
ENDBRANCH  12  13
ENDBRANCH   7  12
TORSDOF 5
ENDMDL
MODEL 7
REMARK VINA RESULT:      -6.5      2.570      5.272
REMARK  Name = 
REMARK  8 active torsions:
REMARK  status: ('A' for Active; 'I' for Inactive)
REMARK    1  A    between atoms: C_1  and  C_2
REMARK    2  A    between atoms: C_2  and  C_3
REMARK    3  A    between atoms: C_2  and  C_4
REMARK    4  A    between atoms: C_2  and  C_5
REMARK    5  A    between atoms: C_11  and  O_12
REMARK    6  A    between atoms: O_12  and  C_13
REMARK    7  A    between atoms: C_13  and  C_14
REMARK    8  A    between atoms: C_14  and  N_15
REMARK                            x       y       z     vdW  Elec       q    Type
REMARK                         _______ _______ _______ _____ _____    ______ ____
ROOT
ATOM      1  C   UNL     1       4.940   5.806  17.307  0.00  0.00    +0.000 A 
ATOM      2  C   UNL     1       4.427   7.122  17.502  0.00  0.00    +0.000 A 
ATOM      3  C   UNL     1       3.090   7.381  17.798  0.00  0.00    +0.000 A 
ATOM      4 CL   UNL     1       2.532   9.002  17.923  0.00  0.00    +0.000 Cl
ATOM      5  C   UNL     1       2.220   6.338  18.002  0.00  0.00    +0.000 A 
ATOM      6  C   UNL     1       2.685   5.038  17.847  0.00  0.00    +0.000 A 
ATOM      7  C   UNL     1       4.007   4.742  17.423  0.00  0.00    +0.000 A 
ENDROOT
BRANCH   1   9
ATOM      8  C   UNL     1       7.082   7.120  17.290  0.00  0.00    +0.000 C 
ATOM      9  C   UNL     1       6.473   5.716  17.059  0.00  0.00    +0.000 C 
ATOM     10  C   UNL     1       6.801   5.313  15.587  0.00  0.00    +0.000 C 
ATOM     11  C   UNL     1       7.242   4.716  17.937  0.00  0.00    +0.000 C 
ENDBRANCH   1   9
BRANCH   7  12
ATOM     12  O   UNL     1       4.346   3.429  17.119  0.00  0.00    +0.000 OA
BRANCH  12  13
ATOM     13  C   UNL     1       3.291   2.477  17.412  0.00  0.00    +0.000 C 
BRANCH  13  14
ATOM     14  C   UNL     1       3.449   1.672  18.700  0.00  0.00    +0.000 C 
BRANCH  14  15
ATOM     15  N   UNL     1       2.733   2.237  19.819  0.00  0.00    +0.000 N 
ATOM     16  C   UNL     1       3.247   2.672  21.006  0.00  0.00    +0.000 A 
ATOM     17  C   UNL     1       2.165   3.110  21.719  0.00  0.00    +0.000 A 
ATOM     18  N   UNL     1       1.004   2.918  21.016  0.00  0.00    +0.000 NA
ATOM     19  C   UNL     1       1.377   2.372  19.885  0.00  0.00    +0.000 A 
ENDBRANCH  14  15
ENDBRANCH  13  14
ENDBRANCH  12  13
ENDBRANCH   7  12
TORSDOF 5
ENDMDL
MODEL 8
REMARK VINA RESULT:      -6.5      0.655      1.418
REMARK  Name = 
REMARK  8 active torsions:
REMARK  status: ('A' for Active; 'I' for Inactive)
REMARK    1  A    between atoms: C_1  and  C_2
REMARK    2  A    between atoms: C_2  and  C_3
REMARK    3  A    between atoms: C_2  and  C_4
REMARK    4  A    between atoms: C_2  and  C_5
REMARK    5  A    between atoms: C_11  and  O_12
REMARK    6  A    between atoms: O_12  and  C_13
REMARK    7  A    between atoms: C_13  and  C_14
REMARK    8  A    between atoms: C_14  and  N_15
REMARK                            x       y       z     vdW  Elec       q    Type
REMARK                         _______ _______ _______ _____ _____    ______ ____
ROOT
ATOM      1  C   UNL     1       2.369   4.642  19.556  0.00  0.00    +0.000 A 
ATOM      2  C   UNL     1       1.869   5.649  20.433  0.00  0.00    +0.000 A 
ATOM      3  C   UNL     1       1.939   7.010  20.147  0.00  0.00    +0.000 A 
ATOM      4 CL   UNL     1       1.400   8.164  21.303  0.00  0.00    +0.000 Cl
ATOM      5  C   UNL     1       2.427   7.430  18.934  0.00  0.00    +0.000 A 
ATOM      6  C   UNL     1       2.901   6.481  18.038  0.00  0.00    +0.000 A 
ATOM      7  C   UNL     1       2.962   5.097  18.348  0.00  0.00    +0.000 A 
ENDROOT
BRANCH   1   9
ATOM      8  C   UNL     1       1.324   2.449  18.915  0.00  0.00    +0.000 C 
ATOM      9  C   UNL     1       2.133   3.175  20.016  0.00  0.00    +0.000 C 
ATOM     10  C   UNL     1       1.286   3.106  21.325  0.00  0.00    +0.000 C 
ATOM     11  C   UNL     1       3.395   2.346  20.302  0.00  0.00    +0.000 C 
ENDBRANCH   1   9
BRANCH   7  12
ATOM     12  O   UNL     1       3.611   4.232  17.475  0.00  0.00    +0.000 OA
BRANCH  12  13
ATOM     13  C   UNL     1       5.016   4.044  17.785  0.00  0.00    +0.000 C 
BRANCH  13  14
ATOM     14  C   UNL     1       6.010   4.614  16.777  0.00  0.00    +0.000 C 
BRANCH  14  15
ATOM     15  N   UNL     1       6.748   5.749  17.279  0.00  0.00    +0.000 N 
ATOM     16  C   UNL     1       7.559   5.800  18.375  0.00  0.00    +0.000 A 
ATOM     17  C   UNL     1       8.013   7.089  18.418  0.00  0.00    +0.000 A 
ATOM     18  N   UNL     1       7.471   7.834  17.403  0.00  0.00    +0.000 NA
ATOM     19  C   UNL     1       6.699   7.004  16.746  0.00  0.00    +0.000 A 
ENDBRANCH  14  15
ENDBRANCH  13  14
ENDBRANCH  12  13
ENDBRANCH   7  12
TORSDOF 5
ENDMDL
MODEL 9
REMARK VINA RESULT:      -6.4      0.685      1.334
REMARK  Name = 
REMARK  8 active torsions:
REMARK  status: ('A' for Active; 'I' for Inactive)
REMARK    1  A    between atoms: C_1  and  C_2
REMARK    2  A    between atoms: C_2  and  C_3
REMARK    3  A    between atoms: C_2  and  C_4
REMARK    4  A    between atoms: C_2  and  C_5
REMARK    5  A    between atoms: C_11  and  O_12
REMARK    6  A    between atoms: O_12  and  C_13
REMARK    7  A    between atoms: C_13  and  C_14
REMARK    8  A    between atoms: C_14  and  N_15
REMARK                            x       y       z     vdW  Elec       q    Type
REMARK                         _______ _______ _______ _____ _____    ______ ____
ROOT
ATOM      1  C   UNL     1       2.334   4.569  19.547  0.00  0.00    +0.000 A 
ATOM      2  C   UNL     1       1.863   5.598  20.415  0.00  0.00    +0.000 A 
ATOM      3  C   UNL     1       1.954   6.954  20.107  0.00  0.00    +0.000 A 
ATOM      4 CL   UNL     1       1.451   8.135  21.250  0.00  0.00    +0.000 Cl
ATOM      5  C   UNL     1       2.436   7.346  18.882  0.00  0.00    +0.000 A 
ATOM      6  C   UNL     1       2.882   6.374  17.994  0.00  0.00    +0.000 A 
ATOM      7  C   UNL     1       2.920   4.994  18.326  0.00  0.00    +0.000 A 
ENDROOT
BRANCH   1   9
ATOM      8  C   UNL     1       3.443   2.468  20.366  0.00  0.00    +0.000 C 
ATOM      9  C   UNL     1       2.076   3.114  20.033  0.00  0.00    +0.000 C 
ATOM     10  C   UNL     1       1.415   2.239  18.922  0.00  0.00    +0.000 C 
ATOM     11  C   UNL     1       1.169   2.964  21.264  0.00  0.00    +0.000 C 
ENDBRANCH   1   9
BRANCH   7  12
ATOM     12  O   UNL     1       3.542   4.104  17.458  0.00  0.00    +0.000 OA
BRANCH  12  13
ATOM     13  C   UNL     1       4.964   3.953  17.707  0.00  0.00    +0.000 C 
BRANCH  13  14
ATOM     14  C   UNL     1       5.898   4.584  16.678  0.00  0.00    +0.000 C 
BRANCH  14  15
ATOM     15  N   UNL     1       6.643   5.708  17.194  0.00  0.00    +0.000 N 
ATOM     16  C   UNL     1       7.532   5.717  18.230  0.00  0.00    +0.000 A 
ATOM     17  C   UNL     1       7.955   7.015  18.319  0.00  0.00    +0.000 A 
ATOM     18  N   UNL     1       7.321   7.802  17.394  0.00  0.00    +0.000 NA
ATOM     19  C   UNL     1       6.522   6.990  16.745  0.00  0.00    +0.000 A 
ENDBRANCH  14  15
ENDBRANCH  13  14
ENDBRANCH  12  13
ENDBRANCH   7  12
TORSDOF 5
ENDMDL
