MODEL 1
REMARK VINA RESULT:      -8.2      0.000      0.000
REMARK  Name = 
REMARK  8 active torsions:
REMARK  status: ('A' for Active; 'I' for Inactive)
REMARK    1  A    between atoms: C_1  and  O_2
REMARK    2  A    between atoms: O_2  and  C_3
REMARK    3  A    between atoms: N_13  and  C_14
REMARK    4  A    between atoms: C_17  and  C_18
REMARK    5  A    between atoms: N_20  and  C_21
REMARK    6  A    between atoms: C_21  and  C_22
REMARK    7  A    between atoms: C_22  and  C_23
REMARK    8  A    between atoms: C_23  and  C_24
REMARK                            x       y       z     vdW  Elec       q    Type
REMARK                         _______ _______ _______ _____ _____    ______ ____
ROOT
ATOM      1  C   UNL     1       1.175   9.080  19.601  0.00  0.00    +0.000 A 
ATOM      2  C   UNL     1       1.478   8.007  20.446  0.00  0.00    +0.000 A 
ATOM      3  C   UNL     1       2.393   7.021  20.078  0.00  0.00    +0.000 A 
ATOM      4  C   UNL     1       3.028   7.081  18.840  0.00  0.00    +0.000 A 
ATOM      5  C   UNL     1       2.708   8.126  17.962  0.00  0.00    +0.000 A 
ATOM      6  C   UNL     1       1.782   9.119  18.341  0.00  0.00    +0.000 A 
ENDROOT
BRANCH   1  17
ATOM      7  C   UNL     1      -4.255  14.659  22.052  0.00  0.00    +0.000 A 
ATOM      8  C   UNL     1      -3.770  14.605  23.371  0.00  0.00    +0.000 A 
ATOM      9  C   UNL     1      -2.712  13.763  23.707  0.00  0.00    +0.000 A 
ATOM     10  C   UNL     1      -2.157  12.983  22.709  0.00  0.00    +0.000 A 
ATOM     11  C   UNL     1      -2.632  13.020  21.395  0.00  0.00    +0.000 A 
ATOM     12  C   UNL     1      -3.681  13.857  21.055  0.00  0.00    +0.000 A 
ATOM     13  C   UNL     1      -1.849  12.068  20.542  0.00  0.00    +0.000 C 
ATOM     14  N   UNL     1      -0.863  11.511  21.470  0.00  0.00    +0.000 N 
ATOM     15  C   UNL     1       0.129  10.587  21.264  0.00  0.00    +0.000 C 
ATOM     16  O   UNL     1       0.835  10.249  22.215  0.00  0.00    +0.000 OA
ATOM     17  N   UNL     1       0.267  10.104  19.981  0.00  0.00    +0.000 N 
ATOM     18  C   UNL     1      -1.027  12.024  22.826  0.00  0.00    +0.000 C 
ATOM     19  H   UNL     1      -0.168  10.630  19.239  0.00  0.00    +0.000 HD
BRANCH   7  21
ATOM     20  C   UNL     1      -6.366  15.626  22.541  0.00  0.00    +0.000 C 
ATOM     21  O   UNL     1      -5.283  15.463  21.631  0.00  0.00    +0.000 OA
ENDBRANCH   7  21
ENDBRANCH   1  17
BRANCH   4  22
ATOM     22  C   UNL     1       3.991   6.014  18.438  0.00  0.00    +0.000 C 
ATOM     23  O   UNL     1       4.843   5.621  19.224  0.00  0.00    +0.000 OA
ATOM     24  N   UNL     1       3.842   5.520  17.153  0.00  0.00    +0.000 N 
ATOM     25  H   UNL     1       3.020   5.772  16.622  0.00  0.00    +0.000 HD
BRANCH  24  26
ATOM     26  C   UNL     1       4.683   4.469  16.612  0.00  0.00    +0.000 C 
BRANCH  26  27
ATOM     27  C   UNL     1       4.305   3.083  17.136  0.00  0.00    +0.000 C 
BRANCH  27  28
ATOM     28  C   UNL     1       2.794   2.904  17.322  0.00  0.00    +0.000 C 
BRANCH  28  29
ATOM     29  C   UNL     1       2.378   3.033  18.765  0.00  0.00    +0.000 A 
ATOM     30  C   UNL     1       3.198   2.521  19.786  0.00  0.00    +0.000 A 
ATOM     31  C   UNL     1       2.806   2.609  21.121  0.00  0.00    +0.000 A 
ATOM     32  C   UNL     1       1.593   3.208  21.458  0.00  0.00    +0.000 A 
ATOM     33  C   UNL     1       0.775   3.725  20.453  0.00  0.00    +0.000 A 
ATOM     34  C   UNL     1       1.166   3.638  19.117  0.00  0.00    +0.000 A 
ENDBRANCH  28  29
ENDBRANCH  27  28
ENDBRANCH  26  27
ENDBRANCH  24  26
ENDBRANCH   4  22
TORSDOF 7
ENDMDL
MODEL 2
REMARK VINA RESULT:      -8.1      1.194      1.499
REMARK  Name = 
REMARK  8 active torsions:
REMARK  status: ('A' for Active; 'I' for Inactive)
REMARK    1  A    between atoms: C_1  and  O_2
REMARK    2  A    between atoms: O_2  and  C_3
REMARK    3  A    between atoms: N_13  and  C_14
REMARK    4  A    between atoms: C_17  and  C_18
REMARK    5  A    between atoms: N_20  and  C_21
REMARK    6  A    between atoms: C_21  and  C_22
REMARK    7  A    between atoms: C_22  and  C_23
REMARK    8  A    between atoms: C_23  and  C_24
REMARK                            x       y       z     vdW  Elec       q    Type
REMARK                         _______ _______ _______ _____ _____    ______ ____
ROOT
ATOM      1  C   UNL     1       0.834   9.497  19.721  0.00  0.00    +0.000 A 
ATOM      2  C   UNL     1       1.324   9.724  18.431  0.00  0.00    +0.000 A 
ATOM      3  C   UNL     1       2.211   8.839  17.819  0.00  0.00    +0.000 A 
ATOM      4  C   UNL     1       2.641   7.699  18.494  0.00  0.00    +0.000 A 
ATOM      5  C   UNL     1       2.194   7.475  19.803  0.00  0.00    +0.000 A 
ATOM      6  C   UNL     1       1.297   8.374  20.415  0.00  0.00    +0.000 A 
ENDROOT
BRANCH   1  17
ATOM      7  C   UNL     1      -4.317  14.442  23.677  0.00  0.00    +0.000 A 
ATOM      8  C   UNL     1      -3.256  15.253  24.120  0.00  0.00    +0.000 A 
ATOM      9  C   UNL     1      -1.940  14.959  23.767  0.00  0.00    +0.000 A 
ATOM     10  C   UNL     1      -1.709  13.851  22.974  0.00  0.00    +0.000 A 
ATOM     11  C   UNL     1      -2.751  13.031  22.532  0.00  0.00    +0.000 A 
ATOM     12  C   UNL     1      -4.061  13.319  22.876  0.00  0.00    +0.000 A 
ATOM     13  C   UNL     1      -2.202  11.908  21.704  0.00  0.00    +0.000 C 
ATOM     14  N   UNL     1      -0.763  12.175  21.679  0.00  0.00    +0.000 N 
ATOM     15  C   UNL     1       0.259  11.489  21.075  0.00  0.00    +0.000 C 
ATOM     16  O   UNL     1       1.413  11.897  21.212  0.00  0.00    +0.000 OA
ATOM     17  N   UNL     1      -0.093  10.378  20.340  0.00  0.00    +0.000 N 
ATOM     18  C   UNL     1      -0.403  13.349  22.470  0.00  0.00    +0.000 C 
ATOM     19  H   UNL     1      -1.061  10.288  20.071  0.00  0.00    +0.000 HD
BRANCH   7  21
ATOM     20  C   UNL     1      -6.366  15.446  23.026  0.00  0.00    +0.000 C 
ATOM     21  O   UNL     1      -5.639  14.660  23.966  0.00  0.00    +0.000 OA
ENDBRANCH   7  21
ENDBRANCH   1  17
BRANCH   4  22
ATOM     22  C   UNL     1       3.608   6.763  17.847  0.00  0.00    +0.000 C 
ATOM     23  O   UNL     1       4.085   7.027  16.751  0.00  0.00    +0.000 OA
ATOM     24  N   UNL     1       3.914   5.621  18.566  0.00  0.00    +0.000 N 
ATOM     25  H   UNL     1       3.614   5.550  19.528  0.00  0.00    +0.000 HD
BRANCH  24  26
ATOM     26  C   UNL     1       4.849   4.619  18.089  0.00  0.00    +0.000 C 
BRANCH  26  27
ATOM     27  C   UNL     1       4.194   3.597  17.158  0.00  0.00    +0.000 C 
BRANCH  27  28
ATOM     28  C   UNL     1       3.769   2.314  17.881  0.00  0.00    +0.000 C 
BRANCH  28  29
ATOM     29  C   UNL     1       2.890   2.595  19.073  0.00  0.00    +0.000 A 
ATOM     30  C   UNL     1       3.395   2.442  20.376  0.00  0.00    +0.000 A 
ATOM     31  C   UNL     1       2.580   2.671  21.484  0.00  0.00    +0.000 A 
ATOM     32  C   UNL     1       1.251   3.054  21.310  0.00  0.00    +0.000 A 
ATOM     33  C   UNL     1       0.741   3.215  20.021  0.00  0.00    +0.000 A 
ATOM     34  C   UNL     1       1.556   2.987  18.913  0.00  0.00    +0.000 A 
ENDBRANCH  28  29
ENDBRANCH  27  28
ENDBRANCH  26  27
ENDBRANCH  24  26
ENDBRANCH   4  22
TORSDOF 7
ENDMDL
MODEL 3
REMARK VINA RESULT:      -8.1      1.020      1.327
REMARK  Name = 
REMARK  8 active torsions:
REMARK  status: ('A' for Active; 'I' for Inactive)
REMARK    1  A    between atoms: C_1  and  O_2
REMARK    2  A    between atoms: O_2  and  C_3
REMARK    3  A    between atoms: N_13  and  C_14
REMARK    4  A    between atoms: C_17  and  C_18
REMARK    5  A    between atoms: N_20  and  C_21
REMARK    6  A    between atoms: C_21  and  C_22
REMARK    7  A    between atoms: C_22  and  C_23
REMARK    8  A    between atoms: C_23  and  C_24
REMARK                            x       y       z     vdW  Elec       q    Type
REMARK                         _______ _______ _______ _____ _____    ______ ____
ROOT
ATOM      1  C   UNL     1       0.765   9.322  20.080  0.00  0.00    +0.000 A 
ATOM      2  C   UNL     1       1.028   8.239  20.927  0.00  0.00    +0.000 A 
ATOM      3  C   UNL     1       1.897   7.214  20.556  0.00  0.00    +0.000 A 
ATOM      4  C   UNL     1       2.524   7.242  19.313  0.00  0.00    +0.000 A 
ATOM      5  C   UNL     1       2.243   8.296  18.433  0.00  0.00    +0.000 A 
ATOM      6  C   UNL     1       1.363   9.330  18.815  0.00  0.00    +0.000 A 
ENDROOT
BRANCH   1  17
ATOM      7  C   UNL     1      -4.076  15.342  22.715  0.00  0.00    +0.000 A 
ATOM      8  C   UNL     1      -2.974  16.057  23.217  0.00  0.00    +0.000 A 
ATOM      9  C   UNL     1      -1.681  15.555  23.089  0.00  0.00    +0.000 A 
ATOM     10  C   UNL     1      -1.514  14.336  22.459  0.00  0.00    +0.000 A 
ATOM     11  C   UNL     1      -2.598  13.609  21.961  0.00  0.00    +0.000 A 
ATOM     12  C   UNL     1      -3.886  14.104  22.082  0.00  0.00    +0.000 A 
ATOM     13  C   UNL     1      -2.117  12.331  21.343  0.00  0.00    +0.000 C 
ATOM     14  N   UNL     1      -0.663  12.405  21.497  0.00  0.00    +0.000 N 
ATOM     15  C   UNL     1       0.318  11.523  21.120  0.00  0.00    +0.000 C 
ATOM     16  O   UNL     1       1.491  11.793  21.377  0.00  0.00    +0.000 OA
ATOM     17  N   UNL     1      -0.095  10.385  20.463  0.00  0.00    +0.000 N 
ATOM     18  C   UNL     1      -0.241  13.611  22.202  0.00  0.00    +0.000 C 
ATOM     19  H   UNL     1      -1.023  10.387  20.070  0.00  0.00    +0.000 HD
BRANCH   7  21
ATOM     20  C   UNL     1      -6.332  14.786  23.199  0.00  0.00    +0.000 C 
ATOM     21  O   UNL     1      -5.379  15.762  22.788  0.00  0.00    +0.000 OA
ENDBRANCH   7  21
ENDBRANCH   1  17
BRANCH   4  22
ATOM     22  C   UNL     1       3.438   6.133  18.907  0.00  0.00    +0.000 C 
ATOM     23  O   UNL     1       4.250   5.678  19.702  0.00  0.00    +0.000 OA
ATOM     24  N   UNL     1       3.290   5.674  17.609  0.00  0.00    +0.000 N 
ATOM     25  H   UNL     1       2.493   5.980  17.067  0.00  0.00    +0.000 HD
BRANCH  24  26
ATOM     26  C   UNL     1       4.085   4.591  17.063  0.00  0.00    +0.000 C 
BRANCH  26  27
ATOM     27  C   UNL     1       3.258   3.335  16.785  0.00  0.00    +0.000 C 
BRANCH  27  28
ATOM     28  C   UNL     1       3.465   2.237  17.835  0.00  0.00    +0.000 C 
BRANCH  28  29
ATOM     29  C   UNL     1       2.730   2.528  19.118  0.00  0.00    +0.000 A 
ATOM     30  C   UNL     1       1.380   2.920  19.085  0.00  0.00    +0.000 A 
ATOM     31  C   UNL     1       0.700   3.221  20.265  0.00  0.00    +0.000 A 
ATOM     32  C   UNL     1       1.355   3.136  21.493  0.00  0.00    +0.000 A 
ATOM     33  C   UNL     1       2.693   2.742  21.537  0.00  0.00    +0.000 A 
ATOM     34  C   UNL     1       3.373   2.441  20.357  0.00  0.00    +0.000 A 
ENDBRANCH  28  29
ENDBRANCH  27  28
ENDBRANCH  26  27
ENDBRANCH  24  26
ENDBRANCH   4  22
TORSDOF 7
ENDMDL
MODEL 4
REMARK VINA RESULT:      -8.1      1.007      1.295
REMARK  Name = 
REMARK  8 active torsions:
REMARK  status: ('A' for Active; 'I' for Inactive)
REMARK    1  A    between atoms: C_1  and  O_2
REMARK    2  A    between atoms: O_2  and  C_3
REMARK    3  A    between atoms: N_13  and  C_14
REMARK    4  A    between atoms: C_17  and  C_18
REMARK    5  A    between atoms: N_20  and  C_21
REMARK    6  A    between atoms: C_21  and  C_22
REMARK    7  A    between atoms: C_22  and  C_23
REMARK    8  A    between atoms: C_23  and  C_24
REMARK                            x       y       z     vdW  Elec       q    Type
REMARK                         _______ _______ _______ _____ _____    ______ ____
ROOT
ATOM      1  C   UNL     1       0.835   9.515  19.441  0.00  0.00    +0.000 A 
ATOM      2  C   UNL     1       1.288   8.401  20.155  0.00  0.00    +0.000 A 
ATOM      3  C   UNL     1       2.229   7.521  19.619  0.00  0.00    +0.000 A 
ATOM      4  C   UNL     1       2.737   7.733  18.340  0.00  0.00    +0.000 A 
ATOM      5  C   UNL     1       2.266   8.821  17.592  0.00  0.00    +0.000 A 
ATOM      6  C   UNL     1       1.315   9.705  18.140  0.00  0.00    +0.000 A 
ENDROOT
BRANCH   1  17
ATOM      7  C   UNL     1      -4.540  14.533  22.985  0.00  0.00    +0.000 A 
ATOM      8  C   UNL     1      -3.592  14.926  23.948  0.00  0.00    +0.000 A 
ATOM      9  C   UNL     1      -2.301  14.402  23.931  0.00  0.00    +0.000 A 
ATOM     10  C   UNL     1      -1.981  13.487  22.947  0.00  0.00    +0.000 A 
ATOM     11  C   UNL     1      -2.911  13.080  21.987  0.00  0.00    +0.000 A 
ATOM     12  C   UNL     1      -4.196  13.599  21.996  0.00  0.00    +0.000 A 
ATOM     13  C   UNL     1      -2.288  12.080  21.061  0.00  0.00    +0.000 C 
ATOM     14  N   UNL     1      -0.912  11.977  21.549  0.00  0.00    +0.000 N 
ATOM     15  C   UNL     1       0.137  11.216  21.098  0.00  0.00    +0.000 C 
ATOM     16  O   UNL     1       1.215  11.279  21.690  0.00  0.00    +0.000 OA
ATOM     17  N   UNL     1      -0.100  10.432  19.991  0.00  0.00    +0.000 N 
ATOM     18  C   UNL     1      -0.677  12.805  22.727  0.00  0.00    +0.000 C 
ATOM     19  H   UNL     1      -0.910  10.651  19.432  0.00  0.00    +0.000 HD
BRANCH   7  21
ATOM     20  C   UNL     1      -6.661  14.405  21.930  0.00  0.00    +0.000 C 
ATOM     21  O   UNL     1      -5.826  15.001  22.919  0.00  0.00    +0.000 OA
ENDBRANCH   7  21
ENDBRANCH   1  17
BRANCH   4  22
ATOM     22  C   UNL     1       3.728   6.779  17.758  0.00  0.00    +0.000 C 
ATOM     23  O   UNL     1       4.392   7.097  16.780  0.00  0.00    +0.000 OA
ATOM     24  N   UNL     1       3.833   5.555  18.396  0.00  0.00    +0.000 N 
ATOM     25  H   UNL     1       3.378   5.425  19.289  0.00  0.00    +0.000 HD
BRANCH  24  26
ATOM     26  C   UNL     1       4.760   4.524  17.970  0.00  0.00    +0.000 C 
BRANCH  26  27
ATOM     27  C   UNL     1       4.089   3.441  17.124  0.00  0.00    +0.000 C 
BRANCH  27  28
ATOM     28  C   UNL     1       3.768   2.171  17.921  0.00  0.00    +0.000 C 
BRANCH  28  29
ATOM     29  C   UNL     1       2.868   2.448  19.097  0.00  0.00    +0.000 A 
ATOM     30  C   UNL     1       1.513   2.762  18.892  0.00  0.00    +0.000 A 
ATOM     31  C   UNL     1       0.680   3.050  19.973  0.00  0.00    +0.000 A 
ATOM     32  C   UNL     1       1.185   3.029  21.272  0.00  0.00    +0.000 A 
ATOM     33  C   UNL     1       2.526   2.712  21.488  0.00  0.00    +0.000 A 
ATOM     34  C   UNL     1       3.360   2.424  20.407  0.00  0.00    +0.000 A 
ENDBRANCH  28  29
ENDBRANCH  27  28
ENDBRANCH  26  27
ENDBRANCH  24  26
ENDBRANCH   4  22
TORSDOF 7
ENDMDL
MODEL 5
REMARK VINA RESULT:      -8.0      1.348      1.914
REMARK  Name = 
REMARK  8 active torsions:
REMARK  status: ('A' for Active; 'I' for Inactive)
REMARK    1  A    between atoms: C_1  and  O_2
REMARK    2  A    between atoms: O_2  and  C_3
REMARK    3  A    between atoms: N_13  and  C_14
REMARK    4  A    between atoms: C_17  and  C_18
REMARK    5  A    between atoms: N_20  and  C_21
REMARK    6  A    between atoms: C_21  and  C_22
REMARK    7  A    between atoms: C_22  and  C_23
REMARK    8  A    between atoms: C_23  and  C_24
REMARK                            x       y       z     vdW  Elec       q    Type
REMARK                         _______ _______ _______ _____ _____    ______ ____
ROOT
ATOM      1  C   UNL     1       1.257   9.084  19.820  0.00  0.00    +0.000 A 
ATOM      2  C   UNL     1       1.630   7.837  20.333  0.00  0.00    +0.000 A 
ATOM      3  C   UNL     1       2.462   6.972  19.622  0.00  0.00    +0.000 A 
ATOM      4  C   UNL     1       2.937   7.334  18.364  0.00  0.00    +0.000 A 
ATOM      5  C   UNL     1       2.542   8.561  17.814  0.00  0.00    +0.000 A 
ATOM      6  C   UNL     1       1.701   9.431  18.539  0.00  0.00    +0.000 A 
ENDROOT
BRANCH   1  17
ATOM      7  C   UNL     1      -3.340  14.577  23.735  0.00  0.00    +0.000 A 
ATOM      8  C   UNL     1      -4.169  14.738  22.611  0.00  0.00    +0.000 A 
ATOM      9  C   UNL     1      -3.937  14.011  21.445  0.00  0.00    +0.000 A 
ATOM     10  C   UNL     1      -2.870  13.133  21.425  0.00  0.00    +0.000 A 
ATOM     11  C   UNL     1      -2.031  12.966  22.530  0.00  0.00    +0.000 A 
ATOM     12  C   UNL     1      -2.259  13.683  23.694  0.00  0.00    +0.000 A 
ATOM     13  C   UNL     1      -0.963  11.963  22.216  0.00  0.00    +0.000 C 
ATOM     14  N   UNL     1      -1.282  11.543  20.851  0.00  0.00    +0.000 N 
ATOM     15  C   UNL     1      -0.658  10.640  20.029  0.00  0.00    +0.000 C 
ATOM     16  O   UNL     1      -1.100  10.462  18.894  0.00  0.00    +0.000 OA
ATOM     17  N   UNL     1       0.435   9.982  20.552  0.00  0.00    +0.000 N 
ATOM     18  C   UNL     1      -2.435  12.254  20.307  0.00  0.00    +0.000 C 
ATOM     19  H   UNL     1       0.549   9.996  21.553  0.00  0.00    +0.000 HD
BRANCH   7  21
ATOM     20  C   UNL     1      -4.209  16.474  24.864  0.00  0.00    +0.000 C 
ATOM     21  O   UNL     1      -3.499  15.240  24.924  0.00  0.00    +0.000 OA
ENDBRANCH   7  21
ENDBRANCH   1  17
BRANCH   4  22
ATOM     22  C   UNL     1       3.810   6.399  17.593  0.00  0.00    +0.000 C 
ATOM     23  O   UNL     1       4.409   6.790  16.600  0.00  0.00    +0.000 OA
ATOM     24  N   UNL     1       3.886   5.106  18.080  0.00  0.00    +0.000 N 
ATOM     25  H   UNL     1       3.500   4.900  18.991  0.00  0.00    +0.000 HD
BRANCH  24  26
ATOM     26  C   UNL     1       4.703   4.079  17.461  0.00  0.00    +0.000 C 
BRANCH  26  27
ATOM     27  C   UNL     1       3.878   2.894  16.956  0.00  0.00    +0.000 C 
BRANCH  27  28
ATOM     28  C   UNL     1       3.664   1.815  18.024  0.00  0.00    +0.000 C 
BRANCH  28  29
ATOM     29  C   UNL     1       2.802   2.300  19.160  0.00  0.00    +0.000 A 
ATOM     30  C   UNL     1       1.447   2.606  18.940  0.00  0.00    +0.000 A 
ATOM     31  C   UNL     1       0.650   3.085  19.979  0.00  0.00    +0.000 A 
ATOM     32  C   UNL     1       1.191   3.266  21.251  0.00  0.00    +0.000 A 
ATOM     33  C   UNL     1       2.532   2.960  21.483  0.00  0.00    +0.000 A 
ATOM     34  C   UNL     1       3.330   2.481  20.444  0.00  0.00    +0.000 A 
ENDBRANCH  28  29
ENDBRANCH  27  28
ENDBRANCH  26  27
ENDBRANCH  24  26
ENDBRANCH   4  22
TORSDOF 7
ENDMDL
MODEL 6
REMARK VINA RESULT:      -8.0      1.302      2.168
REMARK  Name = 
REMARK  8 active torsions:
REMARK  status: ('A' for Active; 'I' for Inactive)
REMARK    1  A    between atoms: C_1  and  O_2
REMARK    2  A    between atoms: O_2  and  C_3
REMARK    3  A    between atoms: N_13  and  C_14
REMARK    4  A    between atoms: C_17  and  C_18
REMARK    5  A    between atoms: N_20  and  C_21
REMARK    6  A    between atoms: C_21  and  C_22
REMARK    7  A    between atoms: C_22  and  C_23
REMARK    8  A    between atoms: C_23  and  C_24
REMARK                            x       y       z     vdW  Elec       q    Type
REMARK                         _______ _______ _______ _____ _____    ______ ____
ROOT
ATOM      1  C   UNL     1       1.296   9.058  19.485  0.00  0.00    +0.000 A 
ATOM      2  C   UNL     1       1.784   9.380  18.215  0.00  0.00    +0.000 A 
ATOM      3  C   UNL     1       2.635   8.521  17.518  0.00  0.00    +0.000 A 
ATOM      4  C   UNL     1       3.028   7.312  18.086  0.00  0.00    +0.000 A 
ATOM      5  C   UNL     1       2.583   6.989  19.375  0.00  0.00    +0.000 A 
ATOM      6  C   UNL     1       1.723   7.862  20.073  0.00  0.00    +0.000 A 
ENDROOT
BRANCH   1  17
ATOM      7  C   UNL     1      -3.679  14.316  23.257  0.00  0.00    +0.000 A 
ATOM      8  C   UNL     1      -4.433  14.500  22.084  0.00  0.00    +0.000 A 
ATOM      9  C   UNL     1      -4.106  13.819  20.913  0.00  0.00    +0.000 A 
ATOM     10  C   UNL     1      -3.021  12.964  20.937  0.00  0.00    +0.000 A 
ATOM     11  C   UNL     1      -2.256  12.775  22.092  0.00  0.00    +0.000 A 
ATOM     12  C   UNL     1      -2.578  13.446  23.260  0.00  0.00    +0.000 A 
ATOM     13  C   UNL     1      -1.147  11.805  21.818  0.00  0.00    +0.000 C 
ATOM     14  N   UNL     1      -1.362  11.427  20.421  0.00  0.00    +0.000 N 
ATOM     15  C   UNL     1      -0.663  10.566  19.614  0.00  0.00    +0.000 C 
ATOM     16  O   UNL     1      -1.023  10.420  18.446  0.00  0.00    +0.000 OA
ATOM     17  N   UNL     1       0.406   9.913  20.188  0.00  0.00    +0.000 N 
ATOM     18  C   UNL     1      -2.491  12.134  19.823  0.00  0.00    +0.000 C 
ATOM     19  H   UNL     1       0.451   9.894  21.195  0.00  0.00    +0.000 HD
BRANCH   7  21
ATOM     20  C   UNL     1      -2.876  14.914  25.408  0.00  0.00    +0.000 C 
ATOM     21  O   UNL     1      -3.934  14.934  24.454  0.00  0.00    +0.000 OA
ENDBRANCH   7  21
ENDBRANCH   1  17
BRANCH   4  22
ATOM     22  C   UNL     1       3.956   6.403  17.349  0.00  0.00    +0.000 C 
ATOM     23  O   UNL     1       4.810   6.864  16.603  0.00  0.00    +0.000 OA
ATOM     24  N   UNL     1       3.781   5.050  17.578  0.00  0.00    +0.000 N 
ATOM     25  H   UNL     1       3.171   4.752  18.327  0.00  0.00    +0.000 HD
BRANCH  24  26
ATOM     26  C   UNL     1       4.610   4.034  16.956  0.00  0.00    +0.000 C 
BRANCH  26  27
ATOM     27  C   UNL     1       4.105   2.616  17.223  0.00  0.00    +0.000 C 
BRANCH  27  28
ATOM     28  C   UNL     1       2.599   2.558  17.503  0.00  0.00    +0.000 C 
BRANCH  28  29
ATOM     29  C   UNL     1       2.278   2.804  18.955  0.00  0.00    +0.000 A 
ATOM     30  C   UNL     1       1.121   3.518  19.313  0.00  0.00    +0.000 A 
ATOM     31  C   UNL     1       0.833   3.777  20.652  0.00  0.00    +0.000 A 
ATOM     32  C   UNL     1       1.694   3.329  21.654  0.00  0.00    +0.000 A 
ATOM     33  C   UNL     1       2.841   2.614  21.310  0.00  0.00    +0.000 A 
ATOM     34  C   UNL     1       3.130   2.355  19.971  0.00  0.00    +0.000 A 
ENDBRANCH  28  29
ENDBRANCH  27  28
ENDBRANCH  26  27
ENDBRANCH  24  26
ENDBRANCH   4  22
TORSDOF 7
ENDMDL
MODEL 7
REMARK VINA RESULT:      -8.0      2.441     10.997
REMARK  Name = 
REMARK  8 active torsions:
REMARK  status: ('A' for Active; 'I' for Inactive)
REMARK    1  A    between atoms: C_1  and  O_2
REMARK    2  A    between atoms: O_2  and  C_3
REMARK    3  A    between atoms: N_13  and  C_14
REMARK    4  A    between atoms: C_17  and  C_18
REMARK    5  A    between atoms: N_20  and  C_21
REMARK    6  A    between atoms: C_21  and  C_22
REMARK    7  A    between atoms: C_22  and  C_23
REMARK    8  A    between atoms: C_23  and  C_24
REMARK                            x       y       z     vdW  Elec       q    Type
REMARK                         _______ _______ _______ _____ _____    ______ ____
ROOT
ATOM      1  C   UNL     1       0.736   9.823  20.481  0.00  0.00    +0.000 A 
ATOM      2  C   UNL     1       0.625   9.572  21.852  0.00  0.00    +0.000 A 
ATOM      3  C   UNL     1      -0.179  10.359  22.678  0.00  0.00    +0.000 A 
ATOM      4  C   UNL     1      -0.890  11.432  22.147  0.00  0.00    +0.000 A 
ATOM      5  C   UNL     1      -0.761  11.725  20.782  0.00  0.00    +0.000 A 
ATOM      6  C   UNL     1       0.054  10.925  19.954  0.00  0.00    +0.000 A 
ENDROOT
BRANCH   1  17
ATOM      7  C   UNL     1       5.595   5.109  15.922  0.00  0.00    +0.000 A 
ATOM      8  C   UNL     1       5.409   4.016  16.788  0.00  0.00    +0.000 A 
ATOM      9  C   UNL     1       4.591   4.129  17.910  0.00  0.00    +0.000 A 
ATOM     10  C   UNL     1       3.973   5.342  18.148  0.00  0.00    +0.000 A 
ATOM     11  C   UNL     1       4.153   6.440  17.302  0.00  0.00    +0.000 A 
ATOM     12  C   UNL     1       4.963   6.333  16.183  0.00  0.00    +0.000 A 
ATOM     13  C   UNL     1       3.373   7.614  17.813  0.00  0.00    +0.000 C 
ATOM     14  N   UNL     1       2.702   7.085  19.001  0.00  0.00    +0.000 N 
ATOM     15  C   UNL     1       1.849   7.693  19.886  0.00  0.00    +0.000 C 
ATOM     16  O   UNL     1       1.419   7.045  20.840  0.00  0.00    +0.000 OA
ATOM     17  N   UNL     1       1.528   9.008  19.629  0.00  0.00    +0.000 N 
ATOM     18  C   UNL     1       3.059   5.694  19.267  0.00  0.00    +0.000 C 
ATOM     19  H   UNL     1       1.710   9.356  18.700  0.00  0.00    +0.000 HD
BRANCH   7  21
ATOM     20  C   UNL     1       6.180   3.975  13.921  0.00  0.00    +0.000 C 
ATOM     21  O   UNL     1       6.372   5.086  14.792  0.00  0.00    +0.000 OA
ENDBRANCH   7  21
ENDBRANCH   1  17
BRANCH   4  22
ATOM     22  C   UNL     1      -1.733  12.287  23.034  0.00  0.00    +0.000 C 
ATOM     23  O   UNL     1      -1.279  13.320  23.510  0.00  0.00    +0.000 OA
ATOM     24  N   UNL     1      -3.022  11.836  23.259  0.00  0.00    +0.000 N 
ATOM     25  H   UNL     1      -3.379  11.070  22.705  0.00  0.00    +0.000 HD
BRANCH  24  26
ATOM     26  C   UNL     1      -3.975  12.558  24.081  0.00  0.00    +0.000 C 
BRANCH  26  27
ATOM     27  C   UNL     1      -4.828  13.537  23.273  0.00  0.00    +0.000 C 
BRANCH  27  28
ATOM     28  C   UNL     1      -6.190  12.958  22.873  0.00  0.00    +0.000 C 
BRANCH  28  29
ATOM     29  C   UNL     1      -6.198  12.445  21.456  0.00  0.00    +0.000 A 
ATOM     30  C   UNL     1      -7.239  11.612  21.011  0.00  0.00    +0.000 A 
ATOM     31  C   UNL     1      -7.238  11.109  19.711  0.00  0.00    +0.000 A 
ATOM     32  C   UNL     1      -6.201  11.428  18.836  0.00  0.00    +0.000 A 
ATOM     33  C   UNL     1      -5.166  12.259  19.265  0.00  0.00    +0.000 A 
ATOM     34  C   UNL     1      -5.166  12.763  20.565  0.00  0.00    +0.000 A 
ENDBRANCH  28  29
ENDBRANCH  27  28
ENDBRANCH  26  27
ENDBRANCH  24  26
ENDBRANCH   4  22
TORSDOF 7
ENDMDL
MODEL 8
REMARK VINA RESULT:      -7.9      1.304      1.924
REMARK  Name = 
REMARK  8 active torsions:
REMARK  status: ('A' for Active; 'I' for Inactive)
REMARK    1  A    between atoms: C_1  and  O_2
REMARK    2  A    between atoms: O_2  and  C_3
REMARK    3  A    between atoms: N_13  and  C_14
REMARK    4  A    between atoms: C_17  and  C_18
REMARK    5  A    between atoms: N_20  and  C_21
REMARK    6  A    between atoms: C_21  and  C_22
REMARK    7  A    between atoms: C_22  and  C_23
REMARK    8  A    between atoms: C_23  and  C_24
REMARK                            x       y       z     vdW  Elec       q    Type
REMARK                         _______ _______ _______ _____ _____    ______ ____
ROOT
ATOM      1  C   UNL     1       1.155   9.208  19.240  0.00  0.00    +0.000 A 
ATOM      2  C   UNL     1       1.851   9.126  18.029  0.00  0.00    +0.000 A 
ATOM      3  C   UNL     1       2.750   8.091  17.770  0.00  0.00    +0.000 A 
ATOM      4  C   UNL     1       2.983   7.109  18.729  0.00  0.00    +0.000 A 
ATOM      5  C   UNL     1       2.326   7.195  19.965  0.00  0.00    +0.000 A 
ATOM      6  C   UNL     1       1.419   8.245  20.219  0.00  0.00    +0.000 A 
ENDROOT
BRANCH   1  17
ATOM      7  C   UNL     1      -4.008  15.248  21.107  0.00  0.00    +0.000 A 
ATOM      8  C   UNL     1      -2.996  16.211  20.946  0.00  0.00    +0.000 A 
ATOM      9  C   UNL     1      -1.706  15.834  20.579  0.00  0.00    +0.000 A 
ATOM     10  C   UNL     1      -1.450  14.491  20.383  0.00  0.00    +0.000 A 
ATOM     11  C   UNL     1      -2.442  13.520  20.546  0.00  0.00    +0.000 A 
ATOM     12  C   UNL     1      -3.727  13.888  20.907  0.00  0.00    +0.000 A 
ATOM     13  C   UNL     1      -1.874  12.158  20.277  0.00  0.00    +0.000 C 
ATOM     14  N   UNL     1      -0.485  12.436  19.910  0.00  0.00    +0.000 N 
ATOM     15  C   UNL     1       0.529  11.582  19.556  0.00  0.00    +0.000 C 
ATOM     16  O   UNL     1       1.641  12.049  19.307  0.00  0.00    +0.000 OA
ATOM     17  N   UNL     1       0.216  10.242  19.499  0.00  0.00    +0.000 N 
ATOM     18  C   UNL     1      -0.164  13.858  19.985  0.00  0.00    +0.000 C 
ATOM     19  H   UNL     1      -0.761   9.996  19.456  0.00  0.00    +0.000 HD
BRANCH   7  21
ATOM     20  C   UNL     1      -6.283  15.336  20.438  0.00  0.00    +0.000 C 
ATOM     21  O   UNL     1      -5.304  15.528  21.456  0.00  0.00    +0.000 OA
ENDBRANCH   7  21
ENDBRANCH   1  17
BRANCH   4  22
ATOM     22  C   UNL     1       3.961   6.014  18.461  0.00  0.00    +0.000 C 
ATOM     23  O   UNL     1       4.706   5.618  19.348  0.00  0.00    +0.000 OA
ATOM     24  N   UNL     1       3.951   5.498  17.177  0.00  0.00    +0.000 N 
ATOM     25  H   UNL     1       3.203   5.756  16.548  0.00  0.00    +0.000 HD
BRANCH  24  26
ATOM     26  C   UNL     1       4.825   4.419  16.756  0.00  0.00    +0.000 C 
BRANCH  26  27
ATOM     27  C   UNL     1       4.255   3.038  17.081  0.00  0.00    +0.000 C 
BRANCH  27  28
ATOM     28  C   UNL     1       2.736   3.050  17.291  0.00  0.00    +0.000 C 
BRANCH  28  29
ATOM     29  C   UNL     1       2.362   3.087  18.750  0.00  0.00    +0.000 A 
ATOM     30  C   UNL     1       1.177   3.724  19.160  0.00  0.00    +0.000 A 
ATOM     31  C   UNL     1       0.839   3.789  20.512  0.00  0.00    +0.000 A 
ATOM     32  C   UNL     1       1.675   3.223  21.472  0.00  0.00    +0.000 A 
ATOM     33  C   UNL     1       2.850   2.583  21.076  0.00  0.00    +0.000 A 
ATOM     34  C   UNL     1       3.189   2.517  19.724  0.00  0.00    +0.000 A 
ENDBRANCH  28  29
ENDBRANCH  27  28
ENDBRANCH  26  27
ENDBRANCH  24  26
ENDBRANCH   4  22
TORSDOF 7
ENDMDL
MODEL 9
REMARK VINA RESULT:      -7.8      6.431      9.056
REMARK  Name = 
REMARK  8 active torsions:
REMARK  status: ('A' for Active; 'I' for Inactive)
REMARK    1  A    between atoms: C_1  and  O_2
REMARK    2  A    between atoms: O_2  and  C_3
REMARK    3  A    between atoms: N_13  and  C_14
REMARK    4  A    between atoms: C_17  and  C_18
REMARK    5  A    between atoms: N_20  and  C_21
REMARK    6  A    between atoms: C_21  and  C_22
REMARK    7  A    between atoms: C_22  and  C_23
REMARK    8  A    between atoms: C_23  and  C_24
REMARK                            x       y       z     vdW  Elec       q    Type
REMARK                         _______ _______ _______ _____ _____    ______ ____
ROOT
ATOM      1  C   UNL     1       7.078   7.581  17.303  0.00  0.00    +0.000 A 
ATOM      2  C   UNL     1       5.828   7.458  16.686  0.00  0.00    +0.000 A 
ATOM      3  C   UNL     1       5.202   6.220  16.542  0.00  0.00    +0.000 A 
ATOM      4  C   UNL     1       5.821   5.063  17.007  0.00  0.00    +0.000 A 
ATOM      5  C   UNL     1       7.092   5.159  17.592  0.00  0.00    +0.000 A 
ATOM      6  C   UNL     1       7.719   6.414  17.735  0.00  0.00    +0.000 A 
ENDROOT
BRANCH   1  17
ATOM      7  C   UNL     1      10.479  14.865  18.720  0.00  0.00    +0.000 A 
ATOM      8  C   UNL     1      11.171  14.364  19.838  0.00  0.00    +0.000 A 
ATOM      9  C   UNL     1      11.043  13.029  20.215  0.00  0.00    +0.000 A 
ATOM     10  C   UNL     1      10.217  12.215  19.464  0.00  0.00    +0.000 A 
ATOM     11  C   UNL     1       9.516  12.697  18.355  0.00  0.00    +0.000 A 
ATOM     12  C   UNL     1       9.642  14.023  17.972  0.00  0.00    +0.000 A 
ATOM     13  C   UNL     1       8.700  11.597  17.748  0.00  0.00    +0.000 C 
ATOM     14  N   UNL     1       9.020  10.436  18.580  0.00  0.00    +0.000 N 
ATOM     15  C   UNL     1       8.576   9.141  18.508  0.00  0.00    +0.000 C 
ATOM     16  O   UNL     1       8.974   8.328  19.343  0.00  0.00    +0.000 OA
ATOM     17  N   UNL     1       7.708   8.842  17.481  0.00  0.00    +0.000 N 
ATOM     18  C   UNL     1       9.932  10.770  19.669  0.00  0.00    +0.000 C 
ATOM     19  H   UNL     1       7.660   9.491  16.711  0.00  0.00    +0.000 HD
BRANCH   7  21
ATOM     20  C   UNL     1      10.383  16.345  16.868  0.00  0.00    +0.000 C 
ATOM     21  O   UNL     1      10.552  16.158  18.270  0.00  0.00    +0.000 OA
ENDBRANCH   7  21
ENDBRANCH   1  17
BRANCH   4  22
ATOM     22  C   UNL     1       5.161   3.735  16.833  0.00  0.00    +0.000 C 
ATOM     23  O   UNL     1       5.244   3.138  15.767  0.00  0.00    +0.000 OA
ATOM     24  N   UNL     1       4.479   3.251  17.936  0.00  0.00    +0.000 N 
ATOM     25  H   UNL     1       4.591   3.716  18.827  0.00  0.00    +0.000 HD
BRANCH  24  26
ATOM     26  C   UNL     1       3.799   1.970  17.940  0.00  0.00    +0.000 C 
BRANCH  26  27
ATOM     27  C   UNL     1       2.540   1.973  18.808  0.00  0.00    +0.000 C 
BRANCH  27  28
ATOM     28  C   UNL     1       1.484   2.976  18.329  0.00  0.00    +0.000 C 
BRANCH  28  29
ATOM     29  C   UNL     1       1.732   4.364  18.862  0.00  0.00    +0.000 A 
ATOM     30  C   UNL     1       1.617   4.624  20.239  0.00  0.00    +0.000 A 
ATOM     31  C   UNL     1       1.815   5.911  20.736  0.00  0.00    +0.000 A 
ATOM     32  C   UNL     1       2.130   6.957  19.871  0.00  0.00    +0.000 A 
ATOM     33  C   UNL     1       2.253   6.710  18.503  0.00  0.00    +0.000 A 
ATOM     34  C   UNL     1       2.056   5.422  18.004  0.00  0.00    +0.000 A 
ENDBRANCH  28  29
ENDBRANCH  27  28
ENDBRANCH  26  27
ENDBRANCH  24  26
ENDBRANCH   4  22
TORSDOF 7
ENDMDL
