MODEL 1
REMARK VINA RESULT:      -6.9      0.000      0.000
REMARK  Name = 
REMARK  15 active torsions:
REMARK  status: ('A' for Active; 'I' for Inactive)
REMARK    1  A    between atoms: C_1  and  O_2
REMARK    2  A    between atoms: O_2  and  C_3
REMARK    3  A    between atoms: C_8  and  N_9
REMARK    4  A    between atoms: N_12  and  C_13
REMARK    5  A    between atoms: C_13  and  C_14
REMARK    6  A    between atoms: C_14  and  O_15
REMARK    7  A    between atoms: C_14  and  C_16
REMARK    8  A    between atoms: C_16  and  O_17
REMARK    9  A    between atoms: O_17  and  C_18
REMARK   10  A    between atoms: C_20  and  O_21
REMARK   11  A    between atoms: O_21  and  C_22
REMARK   12  A    between atoms: C_23  and  O_24
REMARK   13  A    between atoms: O_24  and  C_25
REMARK   14  A    between atoms: C_26  and  O_27
REMARK   15  A    between atoms: O_27  and  C_28
REMARK                            x       y       z     vdW  Elec       q    Type
REMARK                         _______ _______ _______ _____ _____    ______ ____
ROOT
ATOM      1  C   UNL     1       1.478   9.600  18.031  0.00  0.00    +0.000 C 
ENDROOT
BRANCH   1   2
ATOM      2  O   UNL     1       2.030  10.770  17.470  0.00  0.00    +0.000 OA
ATOM      3  H   UNL     1       3.016  10.772  17.586  0.00  0.00    +0.000 HD
ENDBRANCH   1   2
BRANCH   1   4
ATOM      4  C   UNL     1       1.215   9.780  19.543  0.00  0.00    +0.000 C 
BRANCH   4   8
ATOM      5  N   UNL     1      -0.735  11.763  21.781  0.00  0.00    +0.000 N 
ATOM      6  C   UNL     1      -0.003  10.586  22.243  0.00  0.00    +0.000 C 
ATOM      7  C   UNL     1      -0.438   9.378  21.402  0.00  0.00    +0.000 C 
ATOM      8  N   UNL     1      -0.211   9.617  19.957  0.00  0.00    +0.000 NA
ATOM      9  C   UNL     1      -1.037  10.775  19.539  0.00  0.00    +0.000 C 
ATOM     10  C   UNL     1      -0.674  12.041  20.345  0.00  0.00    +0.000 C 
BRANCH   5  16
ATOM     11  C   UNL     1      -0.993  13.785  23.234  0.00  0.00    +0.000 A 
ATOM     12  C   UNL     1      -1.778  14.539  24.131  0.00  0.00    +0.000 A 
ATOM     13  C   UNL     1      -3.066  14.133  24.463  0.00  0.00    +0.000 A 
ATOM     14  C   UNL     1      -3.595  12.973  23.906  0.00  0.00    +0.000 A 
ATOM     15  C   UNL     1      -2.831  12.198  23.034  0.00  0.00    +0.000 A 
ATOM     16  C   UNL     1      -1.510  12.570  22.692  0.00  0.00    +0.000 A 
BRANCH  11  18
ATOM     17  C   UNL     1       0.435  15.310  21.972  0.00  0.00    +0.000 C 
ATOM     18  O   UNL     1       0.221  14.244  22.824  0.00  0.00    +0.000 OA
ENDBRANCH  11  18
ENDBRANCH   5  16
ENDBRANCH   4   8
ENDBRANCH   1   4
BRANCH   1  19
ATOM     19  C   UNL     1       2.325   8.349  17.795  0.00  0.00    +0.000 C 
BRANCH  19  20
ATOM     20  O   UNL     1       2.470   7.625  18.963  0.00  0.00    +0.000 OA
BRANCH  20  21
ATOM     21  C   UNL     1       2.905   6.343  19.004  0.00  0.00    +0.000 A 
ATOM     22  C   UNL     1       3.740   5.821  18.003  0.00  0.00    +0.000 A 
ATOM     23  C   UNL     1       4.194   4.501  18.044  0.00  0.00    +0.000 A 
ATOM     24  C   UNL     1       3.806   3.668  19.131  0.00  0.00    +0.000 A 
ATOM     25  C   UNL     1       2.957   4.188  20.134  0.00  0.00    +0.000 A 
ATOM     26  C   UNL     1       2.520   5.528  20.059  0.00  0.00    +0.000 A 
BRANCH  23  27
ATOM     27  O   UNL     1       4.995   4.027  17.049  0.00  0.00    +0.000 OA
ATOM     28  C   UNL     1       5.218   4.633  15.828  0.00  0.00    +0.000 C 
ENDBRANCH  23  27
BRANCH  24  29
ATOM     29  O   UNL     1       4.213   2.372  19.256  0.00  0.00    +0.000 OA
ATOM     30  C   UNL     1       3.686   1.266  18.618  0.00  0.00    +0.000 C 
ENDBRANCH  24  29
BRANCH  25  31
ATOM     31  O   UNL     1       2.567   3.373  21.154  0.00  0.00    +0.000 OA
ATOM     32  C   UNL     1       1.317   2.794  21.282  0.00  0.00    +0.000 C 
ENDBRANCH  25  31
ENDBRANCH  20  21
ENDBRANCH  19  20
ENDBRANCH   1  19
TORSDOF 11
ENDMDL
MODEL 2
REMARK VINA RESULT:      -6.9      0.663      2.286
REMARK  Name = 
REMARK  15 active torsions:
REMARK  status: ('A' for Active; 'I' for Inactive)
REMARK    1  A    between atoms: C_1  and  O_2
REMARK    2  A    between atoms: O_2  and  C_3
REMARK    3  A    between atoms: C_8  and  N_9
REMARK    4  A    between atoms: N_12  and  C_13
REMARK    5  A    between atoms: C_13  and  C_14
REMARK    6  A    between atoms: C_14  and  O_15
REMARK    7  A    between atoms: C_14  and  C_16
REMARK    8  A    between atoms: C_16  and  O_17
REMARK    9  A    between atoms: O_17  and  C_18
REMARK   10  A    between atoms: C_20  and  O_21
REMARK   11  A    between atoms: O_21  and  C_22
REMARK   12  A    between atoms: C_23  and  O_24
REMARK   13  A    between atoms: O_24  and  C_25
REMARK   14  A    between atoms: C_26  and  O_27
REMARK   15  A    between atoms: O_27  and  C_28
REMARK                            x       y       z     vdW  Elec       q    Type
REMARK                         _______ _______ _______ _____ _____    ______ ____
ROOT
ATOM      1  C   UNL     1       1.492   9.390  18.121  0.00  0.00    +0.000 C 
ENDROOT
BRANCH   1   2
ATOM      2  O   UNL     1       2.020  10.546  17.511  0.00  0.00    +0.000 OA
ATOM      3  H   UNL     1       3.011  10.525  17.540  0.00  0.00    +0.000 HD
ENDBRANCH   1   2
BRANCH   1   4
ATOM      4  C   UNL     1       1.222   9.627  19.623  0.00  0.00    +0.000 C 
BRANCH   4   8
ATOM      5  N   UNL     1      -0.709  11.681  21.813  0.00  0.00    +0.000 N 
ATOM      6  C   UNL     1       0.005  10.504  22.301  0.00  0.00    +0.000 C 
ATOM      7  C   UNL     1      -0.443   9.285  21.483  0.00  0.00    +0.000 C 
ATOM      8  N   UNL     1      -0.208   9.492  20.035  0.00  0.00    +0.000 NA
ATOM      9  C   UNL     1      -1.016  10.653  19.590  0.00  0.00    +0.000 C 
ATOM     10  C   UNL     1      -0.639  11.929  20.372  0.00  0.00    +0.000 C 
BRANCH   5  16
ATOM     11  C   UNL     1      -0.959  13.754  23.194  0.00  0.00    +0.000 A 
ATOM     12  C   UNL     1      -1.736  14.536  24.073  0.00  0.00    +0.000 A 
ATOM     13  C   UNL     1      -3.017  14.135  24.439  0.00  0.00    +0.000 A 
ATOM     14  C   UNL     1      -3.546  12.952  23.933  0.00  0.00    +0.000 A 
ATOM     15  C   UNL     1      -2.789  12.149  23.080  0.00  0.00    +0.000 A 
ATOM     16  C   UNL     1      -1.476  12.516  22.705  0.00  0.00    +0.000 A 
BRANCH  11  18
ATOM     17  C   UNL     1       0.439  15.205  21.815  0.00  0.00    +0.000 C 
ATOM     18  O   UNL     1       0.246  14.205  22.749  0.00  0.00    +0.000 OA
ENDBRANCH  11  18
ENDBRANCH   5  16
ENDBRANCH   4   8
ENDBRANCH   1   4
BRANCH   1  19
ATOM     19  C   UNL     1       2.366   8.148  17.938  0.00  0.00    +0.000 C 
BRANCH  19  20
ATOM     20  O   UNL     1       2.555   7.498  19.143  0.00  0.00    +0.000 OA
BRANCH  20  21
ATOM     21  C   UNL     1       2.947   6.205  19.246  0.00  0.00    +0.000 A 
ATOM     22  C   UNL     1       2.078   5.212  19.725  0.00  0.00    +0.000 A 
ATOM     23  C   UNL     1       2.478   3.878  19.829  0.00  0.00    +0.000 A 
ATOM     24  C   UNL     1       3.796   3.517  19.432  0.00  0.00    +0.000 A 
ATOM     25  C   UNL     1       4.677   4.517  18.959  0.00  0.00    +0.000 A 
ATOM     26  C   UNL     1       4.235   5.854  18.867  0.00  0.00    +0.000 A 
BRANCH  23  27
ATOM     27  O   UNL     1       1.610   2.944  20.308  0.00  0.00    +0.000 OA
ATOM     28  C   UNL     1       1.429   2.610  21.636  0.00  0.00    +0.000 C 
ENDBRANCH  23  27
BRANCH  24  29
ATOM     29  O   UNL     1       4.265   2.237  19.489  0.00  0.00    +0.000 OA
ATOM     30  C   UNL     1       3.894   1.176  18.685  0.00  0.00    +0.000 C 
ENDBRANCH  24  29
BRANCH  25  31
ATOM     31  O   UNL     1       5.946   4.165  18.612  0.00  0.00    +0.000 OA
ATOM     32  C   UNL     1       6.612   4.591  17.477  0.00  0.00    +0.000 C 
ENDBRANCH  25  31
ENDBRANCH  20  21
ENDBRANCH  19  20
ENDBRANCH   1  19
TORSDOF 11
ENDMDL
MODEL 3
REMARK VINA RESULT:      -6.7      0.932      1.334
REMARK  Name = 
REMARK  15 active torsions:
REMARK  status: ('A' for Active; 'I' for Inactive)
REMARK    1  A    between atoms: C_1  and  O_2
REMARK    2  A    between atoms: O_2  and  C_3
REMARK    3  A    between atoms: C_8  and  N_9
REMARK    4  A    between atoms: N_12  and  C_13
REMARK    5  A    between atoms: C_13  and  C_14
REMARK    6  A    between atoms: C_14  and  O_15
REMARK    7  A    between atoms: C_14  and  C_16
REMARK    8  A    between atoms: C_16  and  O_17
REMARK    9  A    between atoms: O_17  and  C_18
REMARK   10  A    between atoms: C_20  and  O_21
REMARK   11  A    between atoms: O_21  and  C_22
REMARK   12  A    between atoms: C_23  and  O_24
REMARK   13  A    between atoms: O_24  and  C_25
REMARK   14  A    between atoms: C_26  and  O_27
REMARK   15  A    between atoms: O_27  and  C_28
REMARK                            x       y       z     vdW  Elec       q    Type
REMARK                         _______ _______ _______ _____ _____    ______ ____
ROOT
ATOM      1  C   UNL     1       1.203   9.693  18.007  0.00  0.00    +0.000 C 
ENDROOT
BRANCH   1   2
ATOM      2  O   UNL     1       2.085  10.647  17.459  0.00  0.00    +0.000 OA
ATOM      3  H   UNL     1       3.009  10.285  17.436  0.00  0.00    +0.000 HD
ENDBRANCH   1   2
BRANCH   1   4
ATOM      4  C   UNL     1       0.115  10.372  18.869  0.00  0.00    +0.000 C 
BRANCH   4   8
ATOM      5  N   UNL     1      -1.356  12.133  21.603  0.00  0.00    +0.000 N 
ATOM      6  C   UNL     1      -1.742  12.407  20.222  0.00  0.00    +0.000 C 
ATOM      7  C   UNL     1      -0.479  12.756  19.422  0.00  0.00    +0.000 C 
ATOM      8  N   UNL     1       0.522  11.667  19.491  0.00  0.00    +0.000 NA
ATOM      9  C   UNL     1       0.923  11.490  20.908  0.00  0.00    +0.000 C 
ATOM     10  C   UNL     1      -0.292  11.145  21.795  0.00  0.00    +0.000 C 
BRANCH   5  16
ATOM     11  C   UNL     1      -1.309  13.937  23.338  0.00  0.00    +0.000 A 
ATOM     12  C   UNL     1      -1.932  14.590  24.422  0.00  0.00    +0.000 A 
ATOM     13  C   UNL     1      -3.194  14.201  24.857  0.00  0.00    +0.000 A 
ATOM     14  C   UNL     1      -3.859  13.158  24.220  0.00  0.00    +0.000 A 
ATOM     15  C   UNL     1      -3.255  12.480  23.160  0.00  0.00    +0.000 A 
ATOM     16  C   UNL     1      -1.964  12.836  22.706  0.00  0.00    +0.000 A 
BRANCH  11  18
ATOM     17  C   UNL     1       0.041  15.523  22.064  0.00  0.00    +0.000 C 
ATOM     18  O   UNL     1      -0.126  14.393  22.843  0.00  0.00    +0.000 OA
ENDBRANCH  11  18
ENDBRANCH   5  16
ENDBRANCH   4   8
ENDBRANCH   1   4
BRANCH   1  19
ATOM     19  C   UNL     1       1.906   8.605  18.820  0.00  0.00    +0.000 C 
BRANCH  19  20
ATOM     20  O   UNL     1       2.854   7.953  18.054  0.00  0.00    +0.000 OA
BRANCH  20  21
ATOM     21  C   UNL     1       3.189   6.651  18.221  0.00  0.00    +0.000 A 
ATOM     22  C   UNL     1       4.272   6.080  17.534  0.00  0.00    +0.000 A 
ATOM     23  C   UNL     1       4.624   4.739  17.707  0.00  0.00    +0.000 A 
ATOM     24  C   UNL     1       3.869   3.936  18.607  0.00  0.00    +0.000 A 
ATOM     25  C   UNL     1       2.771   4.506  19.292  0.00  0.00    +0.000 A 
ATOM     26  C   UNL     1       2.448   5.865  19.092  0.00  0.00    +0.000 A 
BRANCH  23  27
ATOM     27  O   UNL     1       5.675   4.218  17.016  0.00  0.00    +0.000 OA
ATOM     28  C   UNL     1       5.724   4.005  15.652  0.00  0.00    +0.000 C 
ENDBRANCH  23  27
BRANCH  24  29
ATOM     29  O   UNL     1       4.150   2.623  18.845  0.00  0.00    +0.000 OA
ATOM     30  C   UNL     1       3.579   1.523  18.234  0.00  0.00    +0.000 C 
ENDBRANCH  24  29
BRANCH  25  31
ATOM     31  O   UNL     1       2.036   3.719  20.127  0.00  0.00    +0.000 OA
ATOM     32  C   UNL     1       2.094   3.748  21.508  0.00  0.00    +0.000 C 
ENDBRANCH  25  31
ENDBRANCH  20  21
ENDBRANCH  19  20
ENDBRANCH   1  19
TORSDOF 11
ENDMDL
MODEL 4
REMARK VINA RESULT:      -6.7      1.156      2.542
REMARK  Name = 
REMARK  15 active torsions:
REMARK  status: ('A' for Active; 'I' for Inactive)
REMARK    1  A    between atoms: C_1  and  O_2
REMARK    2  A    between atoms: O_2  and  C_3
REMARK    3  A    between atoms: C_8  and  N_9
REMARK    4  A    between atoms: N_12  and  C_13
REMARK    5  A    between atoms: C_13  and  C_14
REMARK    6  A    between atoms: C_14  and  O_15
REMARK    7  A    between atoms: C_14  and  C_16
REMARK    8  A    between atoms: C_16  and  O_17
REMARK    9  A    between atoms: O_17  and  C_18
REMARK   10  A    between atoms: C_20  and  O_21
REMARK   11  A    between atoms: O_21  and  C_22
REMARK   12  A    between atoms: C_23  and  O_24
REMARK   13  A    between atoms: O_24  and  C_25
REMARK   14  A    between atoms: C_26  and  O_27
REMARK   15  A    between atoms: O_27  and  C_28
REMARK                            x       y       z     vdW  Elec       q    Type
REMARK                         _______ _______ _______ _____ _____    ______ ____
ROOT
ATOM      1  C   UNL     1       1.339   9.468  17.941  0.00  0.00    +0.000 C 
ENDROOT
BRANCH   1   2
ATOM      2  O   UNL     1       2.141  10.473  17.362  0.00  0.00    +0.000 OA
ATOM      3  H   UNL     1       3.082  10.372  17.660  0.00  0.00    +0.000 HD
ENDBRANCH   1   2
BRANCH   1   4
ATOM      4  C   UNL     1       0.200  10.083  18.785  0.00  0.00    +0.000 C 
BRANCH   4   8
ATOM      5  N   UNL     1      -1.348  11.973  21.388  0.00  0.00    +0.000 N 
ATOM      6  C   UNL     1      -1.894  11.947  20.034  0.00  0.00    +0.000 C 
ATOM      7  C   UNL     1      -0.795  12.381  19.055  0.00  0.00    +0.000 C 
ATOM      8  N   UNL     1       0.400  11.513  19.166  0.00  0.00    +0.000 NA
ATOM      9  C   UNL     1       0.946  11.642  20.539  0.00  0.00    +0.000 C 
ATOM     10  C   UNL     1      -0.101  11.234  21.597  0.00  0.00    +0.000 C 
BRANCH   5  16
ATOM     11  C   UNL     1      -1.623  14.081  22.709  0.00  0.00    +0.000 A 
ATOM     12  C   UNL     1      -2.262  14.780  23.755  0.00  0.00    +0.000 A 
ATOM     13  C   UNL     1      -3.268  14.177  24.502  0.00  0.00    +0.000 A 
ATOM     14  C   UNL     1      -3.658  12.872  24.219  0.00  0.00    +0.000 A 
ATOM     15  C   UNL     1      -3.027  12.152  23.205  0.00  0.00    +0.000 A 
ATOM     16  C   UNL     1      -1.985  12.727  22.440  0.00  0.00    +0.000 A 
BRANCH  11  18
ATOM     17  C   UNL     1       0.491  15.237  22.315  0.00  0.00    +0.000 C 
ATOM     18  O   UNL     1      -0.720  14.711  21.908  0.00  0.00    +0.000 OA
ENDBRANCH  11  18
ENDBRANCH   5  16
ENDBRANCH   4   8
ENDBRANCH   1   4
BRANCH   1  19
ATOM     19  C   UNL     1       2.127   8.464  18.783  0.00  0.00    +0.000 C 
BRANCH  19  20
ATOM     20  O   UNL     1       2.852   7.608  17.977  0.00  0.00    +0.000 OA
BRANCH  20  21
ATOM     21  C   UNL     1       3.152   6.330  18.315  0.00  0.00    +0.000 A 
ATOM     22  C   UNL     1       2.160   5.434  18.743  0.00  0.00    +0.000 A 
ATOM     23  C   UNL     1       2.465   4.115  19.088  0.00  0.00    +0.000 A 
ATOM     24  C   UNL     1       3.814   3.670  18.998  0.00  0.00    +0.000 A 
ATOM     25  C   UNL     1       4.816   4.574  18.577  0.00  0.00    +0.000 A 
ATOM     26  C   UNL     1       4.468   5.898  18.235  0.00  0.00    +0.000 A 
BRANCH  23  27
ATOM     27  O   UNL     1       1.477   3.277  19.509  0.00  0.00    +0.000 OA
ATOM     28  C   UNL     1       1.147   3.006  20.823  0.00  0.00    +0.000 C 
ENDBRANCH  23  27
BRANCH  24  29
ATOM     29  O   UNL     1       4.198   2.397  19.303  0.00  0.00    +0.000 OA
ATOM     30  C   UNL     1       3.911   1.246  18.595  0.00  0.00    +0.000 C 
ENDBRANCH  24  29
BRANCH  25  31
ATOM     31  O   UNL     1       6.108   4.145  18.524  0.00  0.00    +0.000 OA
ATOM     32  C   UNL     1       7.110   4.719  17.762  0.00  0.00    +0.000 C 
ENDBRANCH  25  31
ENDBRANCH  20  21
ENDBRANCH  19  20
ENDBRANCH   1  19
TORSDOF 11
ENDMDL
MODEL 5
REMARK VINA RESULT:      -6.6      1.377      2.117
REMARK  Name = 
REMARK  15 active torsions:
REMARK  status: ('A' for Active; 'I' for Inactive)
REMARK    1  A    between atoms: C_1  and  O_2
REMARK    2  A    between atoms: O_2  and  C_3
REMARK    3  A    between atoms: C_8  and  N_9
REMARK    4  A    between atoms: N_12  and  C_13
REMARK    5  A    between atoms: C_13  and  C_14
REMARK    6  A    between atoms: C_14  and  O_15
REMARK    7  A    between atoms: C_14  and  C_16
REMARK    8  A    between atoms: C_16  and  O_17
REMARK    9  A    between atoms: O_17  and  C_18
REMARK   10  A    between atoms: C_20  and  O_21
REMARK   11  A    between atoms: O_21  and  C_22
REMARK   12  A    between atoms: C_23  and  O_24
REMARK   13  A    between atoms: O_24  and  C_25
REMARK   14  A    between atoms: C_26  and  O_27
REMARK   15  A    between atoms: O_27  and  C_28
REMARK                            x       y       z     vdW  Elec       q    Type
REMARK                         _______ _______ _______ _____ _____    ______ ____
ROOT
ATOM      1  C   UNL     1       1.429   9.669  18.110  0.00  0.00    +0.000 C 
ENDROOT
BRANCH   1   2
ATOM      2  O   UNL     1       2.317  10.316  17.226  0.00  0.00    +0.000 OA
ATOM      3  H   UNL     1       3.013  10.803  17.738  0.00  0.00    +0.000 HD
ENDBRANCH   1   2
BRANCH   1   4
ATOM      4  C   UNL     1       0.862  10.658  19.154  0.00  0.00    +0.000 C 
BRANCH   4   8
ATOM      5  N   UNL     1      -1.045  12.261  21.709  0.00  0.00    +0.000 N 
ATOM      6  C   UNL     1      -0.098  11.193  22.019  0.00  0.00    +0.000 C 
ATOM      7  C   UNL     1      -0.461   9.960  21.181  0.00  0.00    +0.000 C 
ATOM      8  N   UNL     1      -0.460  10.272  19.732  0.00  0.00    +0.000 NA
ATOM      9  C   UNL     1      -1.490  11.308  19.476  0.00  0.00    +0.000 C 
ATOM     10  C   UNL     1      -1.211  12.588  20.292  0.00  0.00    +0.000 C 
BRANCH   5  16
ATOM     11  C   UNL     1      -1.326  14.104  23.380  0.00  0.00    +0.000 A 
ATOM     12  C   UNL     1      -2.093  14.708  24.399  0.00  0.00    +0.000 A 
ATOM     13  C   UNL     1      -3.326  14.182  24.768  0.00  0.00    +0.000 A 
ATOM     14  C   UNL     1      -3.819  13.049  24.127  0.00  0.00    +0.000 A 
ATOM     15  C   UNL     1      -3.071  12.420  23.132  0.00  0.00    +0.000 A 
ATOM     16  C   UNL     1      -1.803  12.916  22.747  0.00  0.00    +0.000 A 
BRANCH  11  18
ATOM     17  C   UNL     1       0.215  15.988  23.193  0.00  0.00    +0.000 C 
ATOM     18  O   UNL     1      -0.176  14.686  22.944  0.00  0.00    +0.000 OA
ENDBRANCH  11  18
ENDBRANCH   5  16
ENDBRANCH   4   8
ENDBRANCH   1   4
BRANCH   1  19
ATOM     19  C   UNL     1       2.043   8.460  18.819  0.00  0.00    +0.000 C 
BRANCH  19  20
ATOM     20  O   UNL     1       2.213   7.408  17.940  0.00  0.00    +0.000 OA
BRANCH  20  21
ATOM     21  C   UNL     1       2.830   6.247  18.267  0.00  0.00    +0.000 A 
ATOM     22  C   UNL     1       2.200   5.006  18.085  0.00  0.00    +0.000 A 
ATOM     23  C   UNL     1       2.835   3.807  18.417  0.00  0.00    +0.000 A 
ATOM     24  C   UNL     1       4.155   3.846  18.947  0.00  0.00    +0.000 A 
ATOM     25  C   UNL     1       4.788   5.096  19.142  0.00  0.00    +0.000 A 
ATOM     26  C   UNL     1       4.115   6.285  18.792  0.00  0.00    +0.000 A 
BRANCH  23  27
ATOM     27  O   UNL     1       2.188   2.622  18.236  0.00  0.00    +0.000 OA
ATOM     28  C   UNL     1       0.941   2.295  18.732  0.00  0.00    +0.000 C 
ENDBRANCH  23  27
BRANCH  24  29
ATOM     29  O   UNL     1       4.853   2.725  19.286  0.00  0.00    +0.000 OA
ATOM     30  C   UNL     1       4.649   1.916  20.388  0.00  0.00    +0.000 C 
ENDBRANCH  24  29
BRANCH  25  31
ATOM     31  O   UNL     1       6.040   5.122  19.678  0.00  0.00    +0.000 OA
ATOM     32  C   UNL     1       7.176   5.580  19.035  0.00  0.00    +0.000 C 
ENDBRANCH  25  31
ENDBRANCH  20  21
ENDBRANCH  19  20
ENDBRANCH   1  19
TORSDOF 11
ENDMDL
MODEL 6
REMARK VINA RESULT:      -6.5      1.590      2.282
REMARK  Name = 
REMARK  15 active torsions:
REMARK  status: ('A' for Active; 'I' for Inactive)
REMARK    1  A    between atoms: C_1  and  O_2
REMARK    2  A    between atoms: O_2  and  C_3
REMARK    3  A    between atoms: C_8  and  N_9
REMARK    4  A    between atoms: N_12  and  C_13
REMARK    5  A    between atoms: C_13  and  C_14
REMARK    6  A    between atoms: C_14  and  O_15
REMARK    7  A    between atoms: C_14  and  C_16
REMARK    8  A    between atoms: C_16  and  O_17
REMARK    9  A    between atoms: O_17  and  C_18
REMARK   10  A    between atoms: C_20  and  O_21
REMARK   11  A    between atoms: O_21  and  C_22
REMARK   12  A    between atoms: C_23  and  O_24
REMARK   13  A    between atoms: O_24  and  C_25
REMARK   14  A    between atoms: C_26  and  O_27
REMARK   15  A    between atoms: O_27  and  C_28
REMARK                            x       y       z     vdW  Elec       q    Type
REMARK                         _______ _______ _______ _____ _____    ______ ____
ROOT
ATOM      1  C   UNL     1       1.230   9.495  18.026  0.00  0.00    +0.000 C 
ENDROOT
BRANCH   1   2
ATOM      2  O   UNL     1       2.095  10.419  17.404  0.00  0.00    +0.000 OA
ATOM      3  H   UNL     1       1.831  10.549  16.457  0.00  0.00    +0.000 HD
ENDBRANCH   1   2
BRANCH   1   4
ATOM      4  C   UNL     1       0.233  10.211  18.965  0.00  0.00    +0.000 C 
BRANCH   4   8
ATOM      5  N   UNL     1      -1.280  12.258  21.468  0.00  0.00    +0.000 N 
ATOM      6  C   UNL     1      -1.379  12.588  20.049  0.00  0.00    +0.000 C 
ATOM      7  C   UNL     1       0.038  12.672  19.467  0.00  0.00    +0.000 C 
ATOM      8  N   UNL     1       0.783  11.408  19.671  0.00  0.00    +0.000 NA
ATOM      9  C   UNL     1       0.910  11.170  21.129  0.00  0.00    +0.000 C 
ATOM     10  C   UNL     1      -0.475  11.081  21.805  0.00  0.00    +0.000 C 
BRANCH   5  16
ATOM     11  C   UNL     1      -3.316  13.048  22.691  0.00  0.00    +0.000 A 
ATOM     12  C   UNL     1      -3.890  13.876  23.678  0.00  0.00    +0.000 A 
ATOM     13  C   UNL     1      -3.093  14.694  24.472  0.00  0.00    +0.000 A 
ATOM     14  C   UNL     1      -1.713  14.699  24.299  0.00  0.00    +0.000 A 
ATOM     15  C   UNL     1      -1.122  13.906  23.314  0.00  0.00    +0.000 A 
ATOM     16  C   UNL     1      -1.905  13.079  22.476  0.00  0.00    +0.000 A 
BRANCH  11  18
ATOM     17  C   UNL     1      -5.087  12.498  21.103  0.00  0.00    +0.000 C 
ATOM     18  O   UNL     1      -4.086  12.166  21.996  0.00  0.00    +0.000 OA
ENDBRANCH  11  18
ENDBRANCH   5  16
ENDBRANCH   4   8
ENDBRANCH   1   4
BRANCH   1  19
ATOM     19  C   UNL     1       1.960   8.389  18.789  0.00  0.00    +0.000 C 
BRANCH  19  20
ATOM     20  O   UNL     1       2.909   7.783  17.989  0.00  0.00    +0.000 OA
BRANCH  20  21
ATOM     21  C   UNL     1       3.036   6.440  17.859  0.00  0.00    +0.000 A 
ATOM     22  C   UNL     1       4.193   5.864  17.312  0.00  0.00    +0.000 A 
ATOM     23  C   UNL     1       4.330   4.480  17.181  0.00  0.00    +0.000 A 
ATOM     24  C   UNL     1       3.273   3.635  17.620  0.00  0.00    +0.000 A 
ATOM     25  C   UNL     1       2.101   4.214  18.162  0.00  0.00    +0.000 A 
ATOM     26  C   UNL     1       2.002   5.616  18.280  0.00  0.00    +0.000 A 
BRANCH  23  27
ATOM     27  O   UNL     1       5.464   3.958  16.635  0.00  0.00    +0.000 OA
ATOM     28  C   UNL     1       5.902   4.147  15.339  0.00  0.00    +0.000 C 
ENDBRANCH  23  27
BRANCH  24  29
ATOM     29  O   UNL     1       3.327   2.275  17.541  0.00  0.00    +0.000 OA
ATOM     30  C   UNL     1       3.769   1.398  18.513  0.00  0.00    +0.000 C 
ENDBRANCH  24  29
BRANCH  25  31
ATOM     31  O   UNL     1       1.083   3.396  18.550  0.00  0.00    +0.000 OA
ATOM     32  C   UNL     1       0.735   3.120  19.860  0.00  0.00    +0.000 C 
ENDBRANCH  25  31
ENDBRANCH  20  21
ENDBRANCH  19  20
ENDBRANCH   1  19
TORSDOF 11
ENDMDL
MODEL 7
REMARK VINA RESULT:      -6.5      1.277      2.895
REMARK  Name = 
REMARK  15 active torsions:
REMARK  status: ('A' for Active; 'I' for Inactive)
REMARK    1  A    between atoms: C_1  and  O_2
REMARK    2  A    between atoms: O_2  and  C_3
REMARK    3  A    between atoms: C_8  and  N_9
REMARK    4  A    between atoms: N_12  and  C_13
REMARK    5  A    between atoms: C_13  and  C_14
REMARK    6  A    between atoms: C_14  and  O_15
REMARK    7  A    between atoms: C_14  and  C_16
REMARK    8  A    between atoms: C_16  and  O_17
REMARK    9  A    between atoms: O_17  and  C_18
REMARK   10  A    between atoms: C_20  and  O_21
REMARK   11  A    between atoms: O_21  and  C_22
REMARK   12  A    between atoms: C_23  and  O_24
REMARK   13  A    between atoms: O_24  and  C_25
REMARK   14  A    between atoms: C_26  and  O_27
REMARK   15  A    between atoms: O_27  and  C_28
REMARK                            x       y       z     vdW  Elec       q    Type
REMARK                         _______ _______ _______ _____ _____    ______ ____
ROOT
ATOM      1  C   UNL     1       1.063   9.763  18.339  0.00  0.00    +0.000 C 
ENDROOT
BRANCH   1   2
ATOM      2  O   UNL     1       1.879  10.297  17.320  0.00  0.00    +0.000 OA
ATOM      3  H   UNL     1       2.832  10.091  17.504  0.00  0.00    +0.000 HD
ENDBRANCH   1   2
BRANCH   1   4
ATOM      4  C   UNL     1       0.574  10.871  19.298  0.00  0.00    +0.000 C 
BRANCH   4   8
ATOM      5  N   UNL     1      -1.135  12.689  21.851  0.00  0.00    +0.000 N 
ATOM      6  C   UNL     1      -0.338  11.505  22.159  0.00  0.00    +0.000 C 
ATOM      7  C   UNL     1      -0.849  10.336  21.307  0.00  0.00    +0.000 C 
ATOM      8  N   UNL     1      -0.793  10.656  19.862  0.00  0.00    +0.000 NA
ATOM      9  C   UNL     1      -1.678  11.819  19.606  0.00  0.00    +0.000 C 
ATOM     10  C   UNL     1      -1.243  13.046  20.435  0.00  0.00    +0.000 C 
BRANCH   5  16
ATOM     11  C   UNL     1      -3.210  13.266  23.127  0.00  0.00    +0.000 A 
ATOM     12  C   UNL     1      -3.836  14.018  24.143  0.00  0.00    +0.000 A 
ATOM     13  C   UNL     1      -3.101  14.888  24.940  0.00  0.00    +0.000 A 
ATOM     14  C   UNL     1      -1.731  15.023  24.742  0.00  0.00    +0.000 A 
ATOM     15  C   UNL     1      -1.091  14.307  23.730  0.00  0.00    +0.000 A 
ATOM     16  C   UNL     1      -1.812  13.430  22.888  0.00  0.00    +0.000 A 
BRANCH  11  18
ATOM     17  C   UNL     1      -4.900  12.594  21.499  0.00  0.00    +0.000 C 
ATOM     18  O   UNL     1      -3.910  12.332  22.427  0.00  0.00    +0.000 OA
ENDBRANCH  11  18
ENDBRANCH   5  16
ENDBRANCH   4   8
ENDBRANCH   1   4
BRANCH   1  19
ATOM     19  C   UNL     1       1.732   8.642  19.136  0.00  0.00    +0.000 C 
BRANCH  19  20
ATOM     20  O   UNL     1       2.672   7.984  18.366  0.00  0.00    +0.000 OA
BRANCH  20  21
ATOM     21  C   UNL     1       3.001   6.681  18.534  0.00  0.00    +0.000 A 
ATOM     22  C   UNL     1       2.245   5.834  19.360  0.00  0.00    +0.000 A 
ATOM     23  C   UNL     1       2.580   4.489  19.532  0.00  0.00    +0.000 A 
ATOM     24  C   UNL     1       3.711   3.964  18.847  0.00  0.00    +0.000 A 
ATOM     25  C   UNL     1       4.480   4.817  18.022  0.00  0.00    +0.000 A 
ATOM     26  C   UNL     1       4.109   6.169  17.872  0.00  0.00    +0.000 A 
BRANCH  23  27
ATOM     27  O   UNL     1       1.828   3.701  20.350  0.00  0.00    +0.000 OA
ATOM     28  C   UNL     1       2.116   3.387  21.664  0.00  0.00    +0.000 C 
ENDBRANCH  23  27
BRANCH  24  29
ATOM     29  O   UNL     1       4.101   2.661  18.947  0.00  0.00    +0.000 OA
ATOM     30  C   UNL     1       3.548   1.571  18.303  0.00  0.00    +0.000 C 
ENDBRANCH  24  29
BRANCH  25  31
ATOM     31  O   UNL     1       5.579   4.310  17.396  0.00  0.00    +0.000 OA
ATOM     32  C   UNL     1       5.665   4.015  16.047  0.00  0.00    +0.000 C 
ENDBRANCH  25  31
ENDBRANCH  20  21
ENDBRANCH  19  20
ENDBRANCH   1  19
TORSDOF 11
ENDMDL
MODEL 8
REMARK VINA RESULT:      -6.4      1.315      1.626
REMARK  Name = 
REMARK  15 active torsions:
REMARK  status: ('A' for Active; 'I' for Inactive)
REMARK    1  A    between atoms: C_1  and  O_2
REMARK    2  A    between atoms: O_2  and  C_3
REMARK    3  A    between atoms: C_8  and  N_9
REMARK    4  A    between atoms: N_12  and  C_13
REMARK    5  A    between atoms: C_13  and  C_14
REMARK    6  A    between atoms: C_14  and  O_15
REMARK    7  A    between atoms: C_14  and  C_16
REMARK    8  A    between atoms: C_16  and  O_17
REMARK    9  A    between atoms: O_17  and  C_18
REMARK   10  A    between atoms: C_20  and  O_21
REMARK   11  A    between atoms: O_21  and  C_22
REMARK   12  A    between atoms: C_23  and  O_24
REMARK   13  A    between atoms: O_24  and  C_25
REMARK   14  A    between atoms: C_26  and  O_27
REMARK   15  A    between atoms: O_27  and  C_28
REMARK                            x       y       z     vdW  Elec       q    Type
REMARK                         _______ _______ _______ _____ _____    ______ ____
ROOT
ATOM      1  C   UNL     1       1.511   9.433  17.874  0.00  0.00    +0.000 C 
ENDROOT
BRANCH   1   2
ATOM      2  O   UNL     1       2.081  10.581  17.286  0.00  0.00    +0.000 OA
ATOM      3  H   UNL     1       2.024  10.521  16.297  0.00  0.00    +0.000 HD
ENDBRANCH   1   2
BRANCH   1   4
ATOM      4  C   UNL     1       0.626   9.809  19.084  0.00  0.00    +0.000 C 
BRANCH   4   8
ATOM      5  N   UNL     1      -1.136  11.774  21.488  0.00  0.00    +0.000 N 
ATOM      6  C   UNL     1      -1.124  12.129  20.071  0.00  0.00    +0.000 C 
ATOM      7  C   UNL     1       0.334  12.255  19.611  0.00  0.00    +0.000 C 
ATOM      8  N   UNL     1       1.087  11.003  19.854  0.00  0.00    +0.000 NA
ATOM      9  C   UNL     1       1.098  10.739  21.314  0.00  0.00    +0.000 C 
ATOM     10  C   UNL     1      -0.335  10.608  21.870  0.00  0.00    +0.000 C 
BRANCH   5  16
ATOM     11  C   UNL     1      -1.233  13.627  23.167  0.00  0.00    +0.000 A 
ATOM     12  C   UNL     1      -1.975  14.367  24.112  0.00  0.00    +0.000 A 
ATOM     13  C   UNL     1      -3.321  14.096  24.329  0.00  0.00    +0.000 A 
ATOM     14  C   UNL     1      -3.954  13.089  23.607  0.00  0.00    +0.000 A 
ATOM     15  C   UNL     1      -3.237  12.328  22.683  0.00  0.00    +0.000 A 
ATOM     16  C   UNL     1      -1.862  12.562  22.454  0.00  0.00    +0.000 A 
BRANCH  11  18
ATOM     17  C   UNL     1       0.445  15.026  22.077  0.00  0.00    +0.000 C 
ATOM     18  O   UNL     1       0.052  13.969  22.876  0.00  0.00    +0.000 OA
ENDBRANCH  11  18
ENDBRANCH   5  16
ENDBRANCH   4   8
ENDBRANCH   1   4
BRANCH   1  19
ATOM     19  C   UNL     1       2.541   8.382  18.290  0.00  0.00    +0.000 C 
BRANCH  19  20
ATOM     20  O   UNL     1       2.019   7.108  18.173  0.00  0.00    +0.000 OA
BRANCH  20  21
ATOM     21  C   UNL     1       2.707   5.983  18.485  0.00  0.00    +0.000 A 
ATOM     22  C   UNL     1       4.097   6.004  18.681  0.00  0.00    +0.000 A 
ATOM     23  C   UNL     1       4.808   4.847  19.006  0.00  0.00    +0.000 A 
ATOM     24  C   UNL     1       4.104   3.618  19.149  0.00  0.00    +0.000 A 
ATOM     25  C   UNL     1       2.705   3.592  18.942  0.00  0.00    +0.000 A 
ATOM     26  C   UNL     1       2.022   4.783  18.616  0.00  0.00    +0.000 A 
BRANCH  23  27
ATOM     27  O   UNL     1       6.158   4.905  19.178  0.00  0.00    +0.000 OA
ATOM     28  C   UNL     1       7.100   5.017  18.174  0.00  0.00    +0.000 C 
ENDBRANCH  23  27
BRANCH  24  29
ATOM     29  O   UNL     1       4.716   2.445  19.476  0.00  0.00    +0.000 OA
ATOM     30  C   UNL     1       4.789   1.861  20.727  0.00  0.00    +0.000 C 
ENDBRANCH  24  29
BRANCH  25  31
ATOM     31  O   UNL     1       2.046   2.405  19.051  0.00  0.00    +0.000 OA
ATOM     32  C   UNL     1       0.714   2.199  18.742  0.00  0.00    +0.000 C 
ENDBRANCH  25  31
ENDBRANCH  20  21
ENDBRANCH  19  20
ENDBRANCH   1  19
TORSDOF 11
ENDMDL
MODEL 9
REMARK VINA RESULT:      -6.4      1.329      1.668
REMARK  Name = 
REMARK  15 active torsions:
REMARK  status: ('A' for Active; 'I' for Inactive)
REMARK    1  A    between atoms: C_1  and  O_2
REMARK    2  A    between atoms: O_2  and  C_3
REMARK    3  A    between atoms: C_8  and  N_9
REMARK    4  A    between atoms: N_12  and  C_13
REMARK    5  A    between atoms: C_13  and  C_14
REMARK    6  A    between atoms: C_14  and  O_15
REMARK    7  A    between atoms: C_14  and  C_16
REMARK    8  A    between atoms: C_16  and  O_17
REMARK    9  A    between atoms: O_17  and  C_18
REMARK   10  A    between atoms: C_20  and  O_21
REMARK   11  A    between atoms: O_21  and  C_22
REMARK   12  A    between atoms: C_23  and  O_24
REMARK   13  A    between atoms: O_24  and  C_25
REMARK   14  A    between atoms: C_26  and  O_27
REMARK   15  A    between atoms: O_27  and  C_28
REMARK                            x       y       z     vdW  Elec       q    Type
REMARK                         _______ _______ _______ _____ _____    ______ ____
ROOT
ATOM      1  C   UNL     1       1.617   9.170  19.158  0.00  0.00    +0.000 C 
ENDROOT
BRANCH   1   2
ATOM      2  O   UNL     1       1.455   8.342  20.288  0.00  0.00    +0.000 OA
ATOM      3  H   UNL     1       2.270   7.794  20.429  0.00  0.00    +0.000 HD
ENDBRANCH   1   2
BRANCH   1   4
ATOM      4  C   UNL     1       0.434  10.155  19.015  0.00  0.00    +0.000 C 
BRANCH   4   8
ATOM      5  N   UNL     1      -1.222  11.975  21.601  0.00  0.00    +0.000 N 
ATOM      6  C   UNL     1      -1.631  12.089  20.204  0.00  0.00    +0.000 C 
ATOM      7  C   UNL     1      -0.412  12.501  19.368  0.00  0.00    +0.000 C 
ATOM      8  N   UNL     1       0.700  11.534  19.523  0.00  0.00    +0.000 NA
ATOM      9  C   UNL     1       1.115  11.522  20.947  0.00  0.00    +0.000 C 
ATOM     10  C   UNL     1      -0.059  11.126  21.868  0.00  0.00    +0.000 C 
BRANCH   5  16
ATOM     11  C   UNL     1      -1.316  13.849  23.258  0.00  0.00    +0.000 A 
ATOM     12  C   UNL     1      -2.010  14.525  24.284  0.00  0.00    +0.000 A 
ATOM     13  C   UNL     1      -3.277  14.109  24.677  0.00  0.00    +0.000 A 
ATOM     14  C   UNL     1      -3.876  13.018  24.056  0.00  0.00    +0.000 A 
ATOM     15  C   UNL     1      -3.201  12.319  23.055  0.00  0.00    +0.000 A 
ATOM     16  C   UNL     1      -1.903  12.702  22.645  0.00  0.00    +0.000 A 
BRANCH  11  18
ATOM     17  C   UNL     1       0.032  15.351  21.883  0.00  0.00    +0.000 C 
ATOM     18  O   UNL     1      -0.127  14.327  22.797  0.00  0.00    +0.000 OA
ENDBRANCH  11  18
ENDBRANCH   5  16
ENDBRANCH   4   8
ENDBRANCH   1   4
BRANCH   1  19
ATOM     19  C   UNL     1       1.808   8.395  17.853  0.00  0.00    +0.000 C 
BRANCH  19  20
ATOM     20  O   UNL     1       3.074   7.846  17.789  0.00  0.00    +0.000 OA
BRANCH  20  21
ATOM     21  C   UNL     1       3.351   6.556  18.097  0.00  0.00    +0.000 A 
ATOM     22  C   UNL     1       4.672   6.088  18.170  0.00  0.00    +0.000 A 
ATOM     23  C   UNL     1       4.961   4.760  18.492  0.00  0.00    +0.000 A 
ATOM     24  C   UNL     1       3.890   3.863  18.760  0.00  0.00    +0.000 A 
ATOM     25  C   UNL     1       2.557   4.330  18.677  0.00  0.00    +0.000 A 
ATOM     26  C   UNL     1       2.306   5.679  18.351  0.00  0.00    +0.000 A 
BRANCH  23  27
ATOM     27  O   UNL     1       6.256   4.339  18.542  0.00  0.00    +0.000 OA
ATOM     28  C   UNL     1       7.232   4.603  17.601  0.00  0.00    +0.000 C 
ENDBRANCH  23  27
BRANCH  24  29
ATOM     29  O   UNL     1       4.081   2.555  19.094  0.00  0.00    +0.000 OA
ATOM     30  C   UNL     1       3.766   1.444  18.334  0.00  0.00    +0.000 C 
ENDBRANCH  24  29
BRANCH  25  31
ATOM     31  O   UNL     1       1.538   3.455  18.906  0.00  0.00    +0.000 OA
ATOM     32  C   UNL     1       0.821   3.353  20.084  0.00  0.00    +0.000 C 
ENDBRANCH  25  31
ENDBRANCH  20  21
ENDBRANCH  19  20
ENDBRANCH   1  19
TORSDOF 11
ENDMDL
