MODEL 1
REMARK VINA RESULT:      -7.0      0.000      0.000
REMARK  Name = 
REMARK  8 active torsions:
REMARK  status: ('A' for Active; 'I' for Inactive)
REMARK    1  A    between atoms: C_1  and  O_2
REMARK    2  A    between atoms: O_2  and  C_3
REMARK    3  A    between atoms: C_6  and  C_7
REMARK    4  A    between atoms: C_7  and  C_8
REMARK    5  A    between atoms: C_13  and  C_14
REMARK    6  A    between atoms: C_14  and  C_15
REMARK    7  A    between atoms: C_14  and  C_16
REMARK    8  A    between atoms: C_14  and  C_17
REMARK                            x       y       z     vdW  Elec       q    Type
REMARK                         _______ _______ _______ _____ _____    ______ ____
ROOT
ATOM      1  C   UNL     1       8.540   9.142  18.547  0.00  0.00    +0.000 C 
ATOM      2  O   UNL     1       7.922   9.495  17.545  0.00  0.00    +0.000 OA
ATOM      3  N   UNL     1       8.618   7.862  19.064  0.00  0.00    +0.000 N 
ATOM      4  C   UNL     1       7.973   6.829  18.442  0.00  0.00    +0.000 A 
ATOM      5  N   UNL     1       7.402   6.836  17.273  0.00  0.00    +0.000 NA
ATOM      6  C   UNL     1       6.775   5.631  17.020  0.00  0.00    +0.000 A 
ATOM      7  C   UNL     1       6.938   4.698  18.033  0.00  0.00    +0.000 A 
ATOM      8  S   UNL     1       7.894   5.364  19.304  0.00  0.00    +0.000 S 
ATOM      9  H   UNL     1       9.020   7.686  19.973  0.00  0.00    +0.000 HD
ENDROOT
BRANCH   6  10
ATOM     10  C   UNL     1       6.041   5.490  15.695  0.00  0.00    +0.000 C 
ATOM     11  C   UNL     1       5.125   4.253  15.745  0.00  0.00    +0.000 C 
ATOM     12  C   UNL     1       5.195   6.735  15.377  0.00  0.00    +0.000 C 
ATOM     13  C   UNL     1       7.048   5.302  14.535  0.00  0.00    +0.000 C 
ENDBRANCH   6  10
BRANCH   1  14
ATOM     14  C   UNL     1       9.272  10.175  19.378  0.00  0.00    +0.000 C 
BRANCH  14  18
ATOM     15  C   UNL     1      10.851  13.538  17.153  0.00  0.00    +0.000 A 
ATOM     16  C   UNL     1       9.535  13.532  17.612  0.00  0.00    +0.000 A 
ATOM     17  C   UNL     1       9.037  12.446  18.335  0.00  0.00    +0.000 A 
ATOM     18  C   UNL     1       9.845  11.329  18.588  0.00  0.00    +0.000 A 
ATOM     19  C   UNL     1      11.175  11.355  18.147  0.00  0.00    +0.000 A 
ATOM     20  C   UNL     1      11.673  12.442  17.425  0.00  0.00    +0.000 A 
BRANCH  15  22
ATOM     21  C   UNL     1      11.111  15.891  17.125  0.00  0.00    +0.000 C 
ATOM     22  O   UNL     1      11.212  14.647  16.441  0.00  0.00    +0.000 OA
ENDBRANCH  15  22
ENDBRANCH  14  18
ENDBRANCH   1  14
TORSDOF 4
ENDMDL
MODEL 2
REMARK VINA RESULT:      -7.0      6.295      8.595
REMARK  Name = 
REMARK  8 active torsions:
REMARK  status: ('A' for Active; 'I' for Inactive)
REMARK    1  A    between atoms: C_1  and  O_2
REMARK    2  A    between atoms: O_2  and  C_3
REMARK    3  A    between atoms: C_6  and  C_7
REMARK    4  A    between atoms: C_7  and  C_8
REMARK    5  A    between atoms: C_13  and  C_14
REMARK    6  A    between atoms: C_14  and  C_15
REMARK    7  A    between atoms: C_14  and  C_16
REMARK    8  A    between atoms: C_14  and  C_17
REMARK                            x       y       z     vdW  Elec       q    Type
REMARK                         _______ _______ _______ _____ _____    ______ ____
ROOT
ATOM      1  C   UNL     1       3.119   5.145  19.615  0.00  0.00    +0.000 C 
ATOM      2  O   UNL     1       2.576   5.074  20.716  0.00  0.00    +0.000 OA
ATOM      3  N   UNL     1       3.090   6.218  18.745  0.00  0.00    +0.000 N 
ATOM      4  C   UNL     1       2.415   7.359  19.082  0.00  0.00    +0.000 A 
ATOM      5  N   UNL     1       1.907   7.670  20.240  0.00  0.00    +0.000 NA
ATOM      6  C   UNL     1       1.220   8.866  20.174  0.00  0.00    +0.000 A 
ATOM      7  C   UNL     1       1.272   9.467  18.925  0.00  0.00    +0.000 A 
ATOM      8  S   UNL     1       2.200   8.501  17.840  0.00  0.00    +0.000 S 
ATOM      9  H   UNL     1       3.433   6.138  17.799  0.00  0.00    +0.000 HD
ENDROOT
BRANCH   6  10
ATOM     10  C   UNL     1       0.548   9.358  21.447  0.00  0.00    +0.000 C 
ATOM     11  C   UNL     1      -0.643   8.442  21.785  0.00  0.00    +0.000 C 
ATOM     12  C   UNL     1       1.527   9.377  22.635  0.00  0.00    +0.000 C 
ATOM     13  C   UNL     1       0.015  10.797  21.259  0.00  0.00    +0.000 C 
ENDBRANCH   6  10
BRANCH   1  14
ATOM     14  C   UNL     1       3.870   3.946  19.072  0.00  0.00    +0.000 C 
BRANCH  14  18
ATOM     15  C   UNL     1       6.801   4.908  16.034  0.00  0.00    +0.000 A 
ATOM     16  C   UNL     1       5.533   4.442  15.689  0.00  0.00    +0.000 A 
ATOM     17  C   UNL     1       4.592   4.141  16.677  0.00  0.00    +0.000 A 
ATOM     18  C   UNL     1       4.916   4.276  18.033  0.00  0.00    +0.000 A 
ATOM     19  C   UNL     1       6.183   4.772  18.370  0.00  0.00    +0.000 A 
ATOM     20  C   UNL     1       7.124   5.073  17.382  0.00  0.00    +0.000 A 
BRANCH  15  22
ATOM     21  C   UNL     1       7.134   4.810  13.692  0.00  0.00    +0.000 C 
ATOM     22  O   UNL     1       7.637   5.147  14.980  0.00  0.00    +0.000 OA
ENDBRANCH  15  22
ENDBRANCH  14  18
ENDBRANCH   1  14
TORSDOF 4
ENDMDL
MODEL 3
REMARK VINA RESULT:      -7.0      6.332      8.585
REMARK  Name = 
REMARK  8 active torsions:
REMARK  status: ('A' for Active; 'I' for Inactive)
REMARK    1  A    between atoms: C_1  and  O_2
REMARK    2  A    between atoms: O_2  and  C_3
REMARK    3  A    between atoms: C_6  and  C_7
REMARK    4  A    between atoms: C_7  and  C_8
REMARK    5  A    between atoms: C_13  and  C_14
REMARK    6  A    between atoms: C_14  and  C_15
REMARK    7  A    between atoms: C_14  and  C_16
REMARK    8  A    between atoms: C_14  and  C_17
REMARK                            x       y       z     vdW  Elec       q    Type
REMARK                         _______ _______ _______ _____ _____    ______ ____
ROOT
ATOM      1  C   UNL     1       3.234   5.137  19.573  0.00  0.00    +0.000 C 
ATOM      2  O   UNL     1       2.676   5.050  20.665  0.00  0.00    +0.000 OA
ATOM      3  N   UNL     1       3.197   6.214  18.707  0.00  0.00    +0.000 N 
ATOM      4  C   UNL     1       2.495   7.339  19.038  0.00  0.00    +0.000 A 
ATOM      5  N   UNL     1       1.962   7.635  20.188  0.00  0.00    +0.000 NA
ATOM      6  C   UNL     1       1.253   8.818  20.117  0.00  0.00    +0.000 A 
ATOM      7  C   UNL     1       1.312   9.425  18.872  0.00  0.00    +0.000 A 
ATOM      8  S   UNL     1       2.277   8.483  17.797  0.00  0.00    +0.000 S 
ATOM      9  H   UNL     1       3.556   6.144  17.766  0.00  0.00    +0.000 HD
ENDROOT
BRANCH   6  10
ATOM     10  C   UNL     1       0.552   9.290  21.382  0.00  0.00    +0.000 C 
ATOM     11  C   UNL     1      -0.647   8.370  21.677  0.00  0.00    +0.000 C 
ATOM     12  C   UNL     1       1.502   9.291  22.592  0.00  0.00    +0.000 C 
ATOM     13  C   UNL     1       0.024  10.733  21.203  0.00  0.00    +0.000 C 
ENDBRANCH   6  10
BRANCH   1  14
ATOM     14  C   UNL     1       4.017   3.956  19.036  0.00  0.00    +0.000 C 
BRANCH  14  18
ATOM     15  C   UNL     1       6.737   4.873  15.794  0.00  0.00    +0.000 A 
ATOM     16  C   UNL     1       7.135   4.993  17.125  0.00  0.00    +0.000 A 
ATOM     17  C   UNL     1       6.253   4.688  18.164  0.00  0.00    +0.000 A 
ATOM     18  C   UNL     1       4.941   4.282  17.886  0.00  0.00    +0.000 A 
ATOM     19  C   UNL     1       4.556   4.137  16.546  0.00  0.00    +0.000 A 
ATOM     20  C   UNL     1       5.440   4.442  15.507  0.00  0.00    +0.000 A 
BRANCH  15  22
ATOM     21  C   UNL     1       7.382   4.909  13.517  0.00  0.00    +0.000 C 
ATOM     22  O   UNL     1       7.683   5.221  14.872  0.00  0.00    +0.000 OA
ENDBRANCH  15  22
ENDBRANCH  14  18
ENDBRANCH   1  14
TORSDOF 4
ENDMDL
MODEL 4
REMARK VINA RESULT:      -7.0      0.135      1.422
REMARK  Name = 
REMARK  8 active torsions:
REMARK  status: ('A' for Active; 'I' for Inactive)
REMARK    1  A    between atoms: C_1  and  O_2
REMARK    2  A    between atoms: O_2  and  C_3
REMARK    3  A    between atoms: C_6  and  C_7
REMARK    4  A    between atoms: C_7  and  C_8
REMARK    5  A    between atoms: C_13  and  C_14
REMARK    6  A    between atoms: C_14  and  C_15
REMARK    7  A    between atoms: C_14  and  C_16
REMARK    8  A    between atoms: C_14  and  C_17
REMARK                            x       y       z     vdW  Elec       q    Type
REMARK                         _______ _______ _______ _____ _____    ______ ____
ROOT
ATOM      1  C   UNL     1       8.523   9.102  18.543  0.00  0.00    +0.000 C 
ATOM      2  O   UNL     1       7.905   9.459  17.542  0.00  0.00    +0.000 OA
ATOM      3  N   UNL     1       8.604   7.820  19.054  0.00  0.00    +0.000 N 
ATOM      4  C   UNL     1       7.961   6.788  18.427  0.00  0.00    +0.000 A 
ATOM      5  N   UNL     1       7.391   6.800  17.257  0.00  0.00    +0.000 NA
ATOM      6  C   UNL     1       6.766   5.595  16.998  0.00  0.00    +0.000 A 
ATOM      7  C   UNL     1       6.931   4.658  18.007  0.00  0.00    +0.000 A 
ATOM      8  S   UNL     1       7.885   5.319  19.283  0.00  0.00    +0.000 S 
ATOM      9  H   UNL     1       9.005   7.641  19.962  0.00  0.00    +0.000 HD
ENDROOT
BRANCH   6  10
ATOM     10  C   UNL     1       6.034   5.458  15.672  0.00  0.00    +0.000 C 
ATOM     11  C   UNL     1       5.210   6.732  15.408  0.00  0.00    +0.000 C 
ATOM     12  C   UNL     1       7.010   5.233  14.504  0.00  0.00    +0.000 C 
ATOM     13  C   UNL     1       5.066   4.253  15.709  0.00  0.00    +0.000 C 
ENDBRANCH   6  10
BRANCH   1  14
ATOM     14  C   UNL     1       9.253  10.134  19.380  0.00  0.00    +0.000 C 
BRANCH  14  18
ATOM     15  C   UNL     1      10.780  13.500  17.125  0.00  0.00    +0.000 A 
ATOM     16  C   UNL     1      11.607  12.435  17.478  0.00  0.00    +0.000 A 
ATOM     17  C   UNL     1      11.103  11.350  18.200  0.00  0.00    +0.000 A 
ATOM     18  C   UNL     1       9.762  11.327  18.606  0.00  0.00    +0.000 A 
ATOM     19  C   UNL     1       8.930  12.389  18.223  0.00  0.00    +0.000 A 
ATOM     20  C   UNL     1       9.436  13.473  17.501  0.00  0.00    +0.000 A 
BRANCH  15  22
ATOM     21  C   UNL     1      11.549  15.739  17.139  0.00  0.00    +0.000 C 
ATOM     22  O   UNL     1      11.395  14.509  16.440  0.00  0.00    +0.000 OA
ENDBRANCH  15  22
ENDBRANCH  14  18
ENDBRANCH   1  14
TORSDOF 4
ENDMDL
MODEL 5
REMARK VINA RESULT:      -6.8      6.529      8.893
REMARK  Name = 
REMARK  8 active torsions:
REMARK  status: ('A' for Active; 'I' for Inactive)
REMARK    1  A    between atoms: C_1  and  O_2
REMARK    2  A    between atoms: O_2  and  C_3
REMARK    3  A    between atoms: C_6  and  C_7
REMARK    4  A    between atoms: C_7  and  C_8
REMARK    5  A    between atoms: C_13  and  C_14
REMARK    6  A    between atoms: C_14  and  C_15
REMARK    7  A    between atoms: C_14  and  C_16
REMARK    8  A    between atoms: C_14  and  C_17
REMARK                            x       y       z     vdW  Elec       q    Type
REMARK                         _______ _______ _______ _____ _____    ______ ____
ROOT
ATOM      1  C   UNL     1       2.447   6.671  19.649  0.00  0.00    +0.000 C 
ATOM      2  O   UNL     1       2.314   7.174  18.535  0.00  0.00    +0.000 OA
ATOM      3  N   UNL     1       2.006   7.193  20.851  0.00  0.00    +0.000 N 
ATOM      4  C   UNL     1       1.335   8.384  20.879  0.00  0.00    +0.000 A 
ATOM      5  N   UNL     1       0.871   9.059  19.868  0.00  0.00    +0.000 NA
ATOM      6  C   UNL     1       0.331  10.262  20.281  0.00  0.00    +0.000 A 
ATOM      7  C   UNL     1       0.366  10.442  21.656  0.00  0.00    +0.000 A 
ATOM      8  S   UNL     1       1.089   9.073  22.416  0.00  0.00    +0.000 S 
ATOM      9  H   UNL     1       2.290   6.792  21.734  0.00  0.00    +0.000 HD
ENDROOT
BRANCH   6  10
ATOM     10  C   UNL     1      -0.237  11.178  19.208  0.00  0.00    +0.000 C 
ATOM     11  C   UNL     1      -0.761  10.330  18.035  0.00  0.00    +0.000 C 
ATOM     12  C   UNL     1      -1.380  12.052  19.754  0.00  0.00    +0.000 C 
ATOM     13  C   UNL     1       0.859  12.127  18.670  0.00  0.00    +0.000 C 
ENDBRANCH   6  10
BRANCH   1  14
ATOM     14  C   UNL     1       3.210   5.371  19.798  0.00  0.00    +0.000 C 
BRANCH  14  18
ATOM     15  C   UNL     1       6.302   4.695  16.843  0.00  0.00    +0.000 A 
ATOM     16  C   UNL     1       6.594   5.295  18.067  0.00  0.00    +0.000 A 
ATOM     17  C   UNL     1       5.591   5.503  19.017  0.00  0.00    +0.000 A 
ATOM     18  C   UNL     1       4.267   5.136  18.744  0.00  0.00    +0.000 A 
ATOM     19  C   UNL     1       3.986   4.507  17.522  0.00  0.00    +0.000 A 
ATOM     20  C   UNL     1       4.991   4.301  16.573  0.00  0.00    +0.000 A 
BRANCH  15  22
ATOM     21  C   UNL     1       7.095   4.801  14.615  0.00  0.00    +0.000 C 
ATOM     22  O   UNL     1       7.364   4.568  15.992  0.00  0.00    +0.000 OA
ENDBRANCH  15  22
ENDBRANCH  14  18
ENDBRANCH   1  14
TORSDOF 4
ENDMDL
MODEL 6
REMARK VINA RESULT:      -6.8      7.390     10.677
REMARK  Name = 
REMARK  8 active torsions:
REMARK  status: ('A' for Active; 'I' for Inactive)
REMARK    1  A    between atoms: C_1  and  O_2
REMARK    2  A    between atoms: O_2  and  C_3
REMARK    3  A    between atoms: C_6  and  C_7
REMARK    4  A    between atoms: C_7  and  C_8
REMARK    5  A    between atoms: C_13  and  C_14
REMARK    6  A    between atoms: C_14  and  C_15
REMARK    7  A    between atoms: C_14  and  C_16
REMARK    8  A    between atoms: C_14  and  C_17
REMARK                            x       y       z     vdW  Elec       q    Type
REMARK                         _______ _______ _______ _____ _____    ______ ____
ROOT
ATOM      1  C   UNL     1       2.193   8.443  18.184  0.00  0.00    +0.000 C 
ATOM      2  O   UNL     1       1.949   9.234  17.275  0.00  0.00    +0.000 OA
ATOM      3  N   UNL     1       1.708   8.491  19.477  0.00  0.00    +0.000 N 
ATOM      4  C   UNL     1       0.852   9.490  19.853  0.00  0.00    +0.000 A 
ATOM      5  N   UNL     1       0.257  10.358  19.088  0.00  0.00    +0.000 NA
ATOM      6  C   UNL     1      -0.460  11.271  19.837  0.00  0.00    +0.000 A 
ATOM      7  C   UNL     1      -0.415  11.024  21.201  0.00  0.00    +0.000 A 
ATOM      8  S   UNL     1       0.541   9.626  21.521  0.00  0.00    +0.000 S 
ATOM      9  H   UNL     1       2.077   7.892  20.200  0.00  0.00    +0.000 HD
ENDROOT
BRANCH   6  10
ATOM     10  C   UNL     1      -1.200  12.366  19.084  0.00  0.00    +0.000 C 
ATOM     11  C   UNL     1      -2.103  13.141  20.062  0.00  0.00    +0.000 C 
ATOM     12  C   UNL     1      -0.227  13.346  18.406  0.00  0.00    +0.000 C 
ATOM     13  C   UNL     1      -2.093  11.756  17.979  0.00  0.00    +0.000 C 
ENDBRANCH   6  10
BRANCH   1  14
ATOM     14  C   UNL     1       3.161   7.302  17.944  0.00  0.00    +0.000 C 
BRANCH  14  18
ATOM     15  C   UNL     1       1.920   3.531  19.671  0.00  0.00    +0.000 A 
ATOM     16  C   UNL     1       2.741   4.410  20.376  0.00  0.00    +0.000 A 
ATOM     17  C   UNL     1       3.130   5.628  19.813  0.00  0.00    +0.000 A 
ATOM     18  C   UNL     1       2.725   5.974  18.517  0.00  0.00    +0.000 A 
ATOM     19  C   UNL     1       1.877   5.097  17.826  0.00  0.00    +0.000 A 
ATOM     20  C   UNL     1       1.488   3.880  18.390  0.00  0.00    +0.000 A 
BRANCH  15  22
ATOM     21  C   UNL     1       1.580   2.433  21.741  0.00  0.00    +0.000 C 
ATOM     22  O   UNL     1       1.627   2.365  20.320  0.00  0.00    +0.000 OA
ENDBRANCH  15  22
ENDBRANCH  14  18
ENDBRANCH   1  14
TORSDOF 4
ENDMDL
MODEL 7
REMARK VINA RESULT:      -6.7      6.257      8.927
REMARK  Name = 
REMARK  8 active torsions:
REMARK  status: ('A' for Active; 'I' for Inactive)
REMARK    1  A    between atoms: C_1  and  O_2
REMARK    2  A    between atoms: O_2  and  C_3
REMARK    3  A    between atoms: C_6  and  C_7
REMARK    4  A    between atoms: C_7  and  C_8
REMARK    5  A    between atoms: C_13  and  C_14
REMARK    6  A    between atoms: C_14  and  C_15
REMARK    7  A    between atoms: C_14  and  C_16
REMARK    8  A    between atoms: C_14  and  C_17
REMARK                            x       y       z     vdW  Elec       q    Type
REMARK                         _______ _______ _______ _____ _____    ______ ____
ROOT
ATOM      1  C   UNL     1       2.451   7.043  19.177  0.00  0.00    +0.000 C 
ATOM      2  O   UNL     1       2.161   7.594  18.118  0.00  0.00    +0.000 OA
ATOM      3  N   UNL     1       2.092   7.448  20.449  0.00  0.00    +0.000 N 
ATOM      4  C   UNL     1       1.324   8.567  20.622  0.00  0.00    +0.000 A 
ATOM      5  N   UNL     1       0.701   9.254  19.709  0.00  0.00    +0.000 NA
ATOM      6  C   UNL     1       0.102  10.373  20.253  0.00  0.00    +0.000 A 
ATOM      7  C   UNL     1       0.262  10.475  21.626  0.00  0.00    +0.000 A 
ATOM      8  S   UNL     1       1.177   9.139  22.218  0.00  0.00    +0.000 S 
ATOM      9  H   UNL     1       2.498   7.026  21.271  0.00  0.00    +0.000 HD
ENDROOT
BRANCH   6  10
ATOM     10  C   UNL     1      -0.652  11.293  19.304  0.00  0.00    +0.000 C 
ATOM     11  C   UNL     1      -1.205  10.471  18.125  0.00  0.00    +0.000 C 
ATOM     12  C   UNL     1      -1.815  12.011  20.012  0.00  0.00    +0.000 C 
ATOM     13  C   UNL     1       0.291  12.380  18.739  0.00  0.00    +0.000 C 
ENDBRANCH   6  10
BRANCH   1  14
ATOM     14  C   UNL     1       3.337   5.813  19.163  0.00  0.00    +0.000 C 
BRANCH  14  18
ATOM     15  C   UNL     1       5.886   5.450  15.682  0.00  0.00    +0.000 A 
ATOM     16  C   UNL     1       4.982   4.444  16.021  0.00  0.00    +0.000 A 
ATOM     17  C   UNL     1       4.159   4.574  17.142  0.00  0.00    +0.000 A 
ATOM     18  C   UNL     1       4.248   5.707  17.962  0.00  0.00    +0.000 A 
ATOM     19  C   UNL     1       5.139   6.726  17.599  0.00  0.00    +0.000 A 
ATOM     20  C   UNL     1       5.961   6.596  16.477  0.00  0.00    +0.000 A 
BRANCH  15  22
ATOM     21  C   UNL     1       6.325   4.016  13.850  0.00  0.00    +0.000 C 
ATOM     22  O   UNL     1       6.648   5.196  14.577  0.00  0.00    +0.000 OA
ENDBRANCH  15  22
ENDBRANCH  14  18
ENDBRANCH   1  14
TORSDOF 4
ENDMDL
MODEL 8
REMARK VINA RESULT:      -6.7      7.230     10.472
REMARK  Name = 
REMARK  8 active torsions:
REMARK  status: ('A' for Active; 'I' for Inactive)
REMARK    1  A    between atoms: C_1  and  O_2
REMARK    2  A    between atoms: O_2  and  C_3
REMARK    3  A    between atoms: C_6  and  C_7
REMARK    4  A    between atoms: C_7  and  C_8
REMARK    5  A    between atoms: C_13  and  C_14
REMARK    6  A    between atoms: C_14  and  C_15
REMARK    7  A    between atoms: C_14  and  C_16
REMARK    8  A    between atoms: C_14  and  C_17
REMARK                            x       y       z     vdW  Elec       q    Type
REMARK                         _______ _______ _______ _____ _____    ______ ____
ROOT
ATOM      1  C   UNL     1       2.338   8.442  18.019  0.00  0.00    +0.000 C 
ATOM      2  O   UNL     1       2.115   9.286  17.154  0.00  0.00    +0.000 OA
ATOM      3  N   UNL     1       1.815   8.409  19.298  0.00  0.00    +0.000 N 
ATOM      4  C   UNL     1       0.943   9.379  19.710  0.00  0.00    +0.000 A 
ATOM      5  N   UNL     1       0.365  10.290  18.982  0.00  0.00    +0.000 NA
ATOM      6  C   UNL     1      -0.379  11.152  19.765  0.00  0.00    +0.000 A 
ATOM      7  C   UNL     1      -0.372  10.823  21.112  0.00  0.00    +0.000 A 
ATOM      8  S   UNL     1       0.584   9.411  21.373  0.00  0.00    +0.000 S 
ATOM      9  H   UNL     1       2.167   7.768  19.994  0.00  0.00    +0.000 HD
ENDROOT
BRANCH   6  10
ATOM     10  C   UNL     1      -1.102  12.289  19.060  0.00  0.00    +0.000 C 
ATOM     11  C   UNL     1      -2.098  12.945  20.034  0.00  0.00    +0.000 C 
ATOM     12  C   UNL     1      -0.120  13.354  18.542  0.00  0.00    +0.000 C 
ATOM     13  C   UNL     1      -1.895  11.755  17.843  0.00  0.00    +0.000 C 
ENDBRANCH   6  10
BRANCH   1  14
ATOM     14  C   UNL     1       3.319   7.322  17.738  0.00  0.00    +0.000 C 
BRANCH  14  18
ATOM     15  C   UNL     1       2.398   3.563  19.680  0.00  0.00    +0.000 A 
ATOM     16  C   UNL     1       1.675   3.997  18.569  0.00  0.00    +0.000 A 
ATOM     17  C   UNL     1       1.984   5.208  17.945  0.00  0.00    +0.000 A 
ATOM     18  C   UNL     1       3.010   6.022  18.443  0.00  0.00    +0.000 A 
ATOM     19  C   UNL     1       3.750   5.566  19.543  0.00  0.00    +0.000 A 
ATOM     20  C   UNL     1       3.440   4.355  20.166  0.00  0.00    +0.000 A 
BRANCH  15  22
ATOM     21  C   UNL     1       1.572   2.407  21.573  0.00  0.00    +0.000 C 
ATOM     22  O   UNL     1       1.985   2.374  20.212  0.00  0.00    +0.000 OA
ENDBRANCH  15  22
ENDBRANCH  14  18
ENDBRANCH   1  14
TORSDOF 4
ENDMDL
MODEL 9
REMARK VINA RESULT:      -6.7      6.459      8.902
REMARK  Name = 
REMARK  8 active torsions:
REMARK  status: ('A' for Active; 'I' for Inactive)
REMARK    1  A    between atoms: C_1  and  O_2
REMARK    2  A    between atoms: O_2  and  C_3
REMARK    3  A    between atoms: C_6  and  C_7
REMARK    4  A    between atoms: C_7  and  C_8
REMARK    5  A    between atoms: C_13  and  C_14
REMARK    6  A    between atoms: C_14  and  C_15
REMARK    7  A    between atoms: C_14  and  C_16
REMARK    8  A    between atoms: C_14  and  C_17
REMARK                            x       y       z     vdW  Elec       q    Type
REMARK                         _______ _______ _______ _____ _____    ______ ____
ROOT
ATOM      1  C   UNL     1       2.420   6.892  19.569  0.00  0.00    +0.000 C 
ATOM      2  O   UNL     1       2.587   7.556  18.549  0.00  0.00    +0.000 OA
ATOM      3  N   UNL     1       1.784   7.298  20.727  0.00  0.00    +0.000 N 
ATOM      4  C   UNL     1       1.250   8.554  20.814  0.00  0.00    +0.000 A 
ATOM      5  N   UNL     1       1.092   9.420  19.855  0.00  0.00    +0.000 NA
ATOM      6  C   UNL     1       0.602  10.616  20.343  0.00  0.00    +0.000 A 
ATOM      7  C   UNL     1       0.354  10.598  21.707  0.00  0.00    +0.000 A 
ATOM      8  S   UNL     1       0.747   9.052  22.362  0.00  0.00    +0.000 S 
ATOM      9  H   UNL     1       1.824   6.745  21.571  0.00  0.00    +0.000 HD
ENDROOT
BRANCH   6  10
ATOM     10  C   UNL     1       0.381  11.740  19.342  0.00  0.00    +0.000 C 
ATOM     11  C   UNL     1       1.685  11.998  18.565  0.00  0.00    +0.000 C 
ATOM     12  C   UNL     1      -0.745  11.404  18.348  0.00  0.00    +0.000 C 
ATOM     13  C   UNL     1      -0.016  13.045  20.072  0.00  0.00    +0.000 C 
ENDBRANCH   6  10
BRANCH   1  14
ATOM     14  C   UNL     1       2.993   5.492  19.653  0.00  0.00    +0.000 C 
BRANCH  14  18
ATOM     15  C   UNL     1       6.384   4.809  17.049  0.00  0.00    +0.000 A 
ATOM     16  C   UNL     1       5.080   4.601  16.603  0.00  0.00    +0.000 A 
ATOM     17  C   UNL     1       3.992   4.830  17.448  0.00  0.00    +0.000 A 
ATOM     18  C   UNL     1       4.194   5.248  18.771  0.00  0.00    +0.000 A 
ATOM     19  C   UNL     1       5.507   5.482  19.203  0.00  0.00    +0.000 A 
ATOM     20  C   UNL     1       6.595   5.252  18.356  0.00  0.00    +0.000 A 
BRANCH  15  22
ATOM     21  C   UNL     1       7.040   4.789  14.774  0.00  0.00    +0.000 C 
ATOM     22  O   UNL     1       7.361   4.529  16.136  0.00  0.00    +0.000 OA
ENDBRANCH  15  22
ENDBRANCH  14  18
ENDBRANCH   1  14
TORSDOF 4
ENDMDL
