MODEL 1
REMARK VINA RESULT:      -7.7      0.000      0.000
REMARK  Name = 
REMARK  8 active torsions:
REMARK  status: ('A' for Active; 'I' for Inactive)
REMARK    1  A    between atoms: C_1  and  C_2
REMARK    2  A    between atoms: C_2  and  C_3
REMARK    3  A    between atoms: C_2  and  N_4
REMARK    4  A    between atoms: C_5  and  C_7
REMARK    5  A    between atoms: C_7  and  O_8
REMARK    6  A    between atoms: O_8  and  C_9
REMARK    7  A    between atoms: C_9  and  C_10
REMARK    8  A    between atoms: C_12  and  C_13
REMARK                            x       y       z     vdW  Elec       q    Type
REMARK                         _______ _______ _______ _____ _____    ______ ____
ROOT
ATOM      1  C   UNL     1       7.578   6.710  17.922  0.00  0.00    +0.000 A 
ATOM      2  C   UNL     1       8.358   7.467  18.824  0.00  0.00    +0.000 A 
ATOM      3  C   UNL     1       8.330   8.744  18.319  0.00  0.00    +0.000 A 
ATOM      4  O   UNL     1       7.568   8.746  17.186  0.00  0.00    +0.000 OA
ATOM      5  N   UNL     1       7.094   7.473  16.934  0.00  0.00    +0.000 NA
ENDROOT
BRANCH   3   6
ATOM      6  C   UNL     1       8.938  10.011  18.700  0.00  0.00    +0.000 A 
ATOM      7  C   UNL     1       9.346  10.251  20.033  0.00  0.00    +0.000 A 
ATOM      8  C   UNL     1       9.855  11.492  20.428  0.00  0.00    +0.000 A 
ATOM      9  C   UNL     1       9.943  12.478  19.472  0.00  0.00    +0.000 A 
ATOM     10  C   UNL     1       9.574  12.253  18.168  0.00  0.00    +0.000 A 
ATOM     11  C   UNL     1       9.082  11.035  17.748  0.00  0.00    +0.000 A 
ATOM     12  O   UNL     1       9.729  13.356  17.388  0.00  0.00    +0.000 OA
ATOM     13  C   UNL     1      10.179  14.316  18.365  0.00  0.00    +0.000 C 
ATOM     14  O   UNL     1      10.374  13.751  19.678  0.00  0.00    +0.000 OA
ENDBRANCH   3   6
BRANCH   1  15
ATOM     15  C   UNL     1       7.214   5.270  18.019  0.00  0.00    +0.000 C 
BRANCH  15  16
ATOM     16  O   UNL     1       6.509   4.953  19.230  0.00  0.00    +0.000 OA
BRANCH  16  17
ATOM     17  C   UNL     1       5.089   5.041  19.061  0.00  0.00    +0.000 C 
BRANCH  17  19
ATOM     18  N   UNL     1       3.014   3.879  19.590  0.00  0.00    +0.000 N 
ATOM     19  C   UNL     1       4.384   3.764  19.509  0.00  0.00    +0.000 C 
ATOM     20  O   UNL     1       4.998   2.726  19.747  0.00  0.00    +0.000 OA
ATOM     21  H   UNL     1       2.640   4.821  19.513  0.00  0.00    +0.000 HD
BRANCH  18  23
ATOM     22  C   UNL     1       1.839   2.930  21.525  0.00  0.00    +0.000 C 
ATOM     23  C   UNL     1       2.170   2.786  20.042  0.00  0.00    +0.000 C 
ATOM     24  C   UNL     1       0.899   2.718  19.206  0.00  0.00    +0.000 C 
ENDBRANCH  18  23
ENDBRANCH  17  19
ENDBRANCH  16  17
ENDBRANCH  15  16
ENDBRANCH   1  15
TORSDOF 6
ENDMDL
MODEL 2
REMARK VINA RESULT:      -7.6      0.865      1.510
REMARK  Name = 
REMARK  8 active torsions:
REMARK  status: ('A' for Active; 'I' for Inactive)
REMARK    1  A    between atoms: C_1  and  C_2
REMARK    2  A    between atoms: C_2  and  C_3
REMARK    3  A    between atoms: C_2  and  N_4
REMARK    4  A    between atoms: C_5  and  C_7
REMARK    5  A    between atoms: C_7  and  O_8
REMARK    6  A    between atoms: O_8  and  C_9
REMARK    7  A    between atoms: C_9  and  C_10
REMARK    8  A    between atoms: C_12  and  C_13
REMARK                            x       y       z     vdW  Elec       q    Type
REMARK                         _______ _______ _______ _____ _____    ______ ____
ROOT
ATOM      1  C   UNL     1       7.693   6.466  17.922  0.00  0.00    +0.000 A 
ATOM      2  C   UNL     1       8.385   7.378  18.750  0.00  0.00    +0.000 A 
ATOM      3  C   UNL     1       8.180   8.603  18.164  0.00  0.00    +0.000 A 
ATOM      4  O   UNL     1       7.403   8.430  17.055  0.00  0.00    +0.000 OA
ATOM      5  N   UNL     1       7.095   7.091  16.901  0.00  0.00    +0.000 NA
ENDROOT
BRANCH   3   6
ATOM      6  C   UNL     1       8.625   9.961  18.445  0.00  0.00    +0.000 A 
ATOM      7  C   UNL     1       8.337  11.021  17.552  0.00  0.00    +0.000 A 
ATOM      8  C   UNL     1       8.828  12.311  17.769  0.00  0.00    +0.000 A 
ATOM      9  C   UNL     1       9.608  12.517  18.884  0.00  0.00    +0.000 A 
ATOM     10  C   UNL     1       9.876  11.505  19.774  0.00  0.00    +0.000 A 
ATOM     11  C   UNL     1       9.393  10.226  19.591  0.00  0.00    +0.000 A 
ATOM     12  O   UNL     1      10.670  11.912  20.799  0.00  0.00    +0.000 OA
ATOM     13  C   UNL     1      10.919  13.281  20.419  0.00  0.00    +0.000 C 
ATOM     14  O   UNL     1      10.201  13.688  19.237  0.00  0.00    +0.000 OA
ENDBRANCH   3   6
BRANCH   1  15
ATOM     15  C   UNL     1       7.522   5.002  18.123  0.00  0.00    +0.000 C 
BRANCH  15  16
ATOM     16  O   UNL     1       6.404   4.680  18.966  0.00  0.00    +0.000 OA
BRANCH  16  17
ATOM     17  C   UNL     1       5.315   4.125  18.219  0.00  0.00    +0.000 C 
BRANCH  17  19
ATOM     18  N   UNL     1       3.036   3.812  19.021  0.00  0.00    +0.000 N 
ATOM     19  C   UNL     1       4.337   3.373  19.118  0.00  0.00    +0.000 C 
ATOM     20  O   UNL     1       4.693   2.443  19.839  0.00  0.00    +0.000 OA
ATOM     21  H   UNL     1       2.894   4.677  18.507  0.00  0.00    +0.000 HD
BRANCH  18  23
ATOM     22  C   UNL     1       1.171   4.357  20.522  0.00  0.00    +0.000 C 
ATOM     23  C   UNL     1       1.966   3.252  19.831  0.00  0.00    +0.000 C 
ATOM     24  C   UNL     1       1.056   2.380  18.976  0.00  0.00    +0.000 C 
ENDBRANCH  18  23
ENDBRANCH  17  19
ENDBRANCH  16  17
ENDBRANCH  15  16
ENDBRANCH   1  15
TORSDOF 6
ENDMDL
MODEL 3
REMARK VINA RESULT:      -7.4      1.246      1.887
REMARK  Name = 
REMARK  8 active torsions:
REMARK  status: ('A' for Active; 'I' for Inactive)
REMARK    1  A    between atoms: C_1  and  C_2
REMARK    2  A    between atoms: C_2  and  C_3
REMARK    3  A    between atoms: C_2  and  N_4
REMARK    4  A    between atoms: C_5  and  C_7
REMARK    5  A    between atoms: C_7  and  O_8
REMARK    6  A    between atoms: O_8  and  C_9
REMARK    7  A    between atoms: C_9  and  C_10
REMARK    8  A    between atoms: C_12  and  C_13
REMARK                            x       y       z     vdW  Elec       q    Type
REMARK                         _______ _______ _______ _____ _____    ______ ____
ROOT
ATOM      1  C   UNL     1       7.587   6.481  17.834  0.00  0.00    +0.000 A 
ATOM      2  C   UNL     1       8.340   7.361  18.643  0.00  0.00    +0.000 A 
ATOM      3  C   UNL     1       8.124   8.603  18.096  0.00  0.00    +0.000 A 
ATOM      4  O   UNL     1       7.284   8.468  17.029  0.00  0.00    +0.000 OA
ATOM      5  N   UNL     1       6.945   7.139  16.862  0.00  0.00    +0.000 NA
ENDROOT
BRANCH   3   6
ATOM      6  C   UNL     1       8.607   9.947  18.382  0.00  0.00    +0.000 A 
ATOM      7  C   UNL     1       8.260  11.038  17.549  0.00  0.00    +0.000 A 
ATOM      8  C   UNL     1       8.784  12.316  17.766  0.00  0.00    +0.000 A 
ATOM      9  C   UNL     1       9.654  12.477  18.819  0.00  0.00    +0.000 A 
ATOM     10  C   UNL     1       9.981  11.435  19.652  0.00  0.00    +0.000 A 
ATOM     11  C   UNL     1       9.469  10.167  19.469  0.00  0.00    +0.000 A 
ATOM     12  O   UNL     1      10.861  11.801  20.621  0.00  0.00    +0.000 OA
ATOM     13  C   UNL     1      11.096  13.178  20.265  0.00  0.00    +0.000 C 
ATOM     14  O   UNL     1      10.289  13.631  19.159  0.00  0.00    +0.000 OA
ENDBRANCH   3   6
BRANCH   1  15
ATOM     15  C   UNL     1       7.403   5.015  18.012  0.00  0.00    +0.000 C 
BRANCH  15  16
ATOM     16  O   UNL     1       6.180   4.683  18.688  0.00  0.00    +0.000 OA
BRANCH  16  17
ATOM     17  C   UNL     1       5.270   3.980  17.833  0.00  0.00    +0.000 C 
BRANCH  17  19
ATOM     18  N   UNL     1       3.079   3.561  18.814  0.00  0.00    +0.000 N 
ATOM     19  C   UNL     1       3.827   4.428  18.050  0.00  0.00    +0.000 C 
ATOM     20  O   UNL     1       3.396   5.486  17.595  0.00  0.00    +0.000 OA
ATOM     21  H   UNL     1       3.501   2.657  19.004  0.00  0.00    +0.000 HD
BRANCH  18  23
ATOM     22  C   UNL     1       0.854   2.526  18.844  0.00  0.00    +0.000 C 
ATOM     23  C   UNL     1       1.671   3.791  19.092  0.00  0.00    +0.000 C 
ATOM     24  C   UNL     1       1.489   4.284  20.522  0.00  0.00    +0.000 C 
ENDBRANCH  18  23
ENDBRANCH  17  19
ENDBRANCH  16  17
ENDBRANCH  15  16
ENDBRANCH   1  15
TORSDOF 6
ENDMDL
MODEL 4
REMARK VINA RESULT:      -7.2      4.586      7.214
REMARK  Name = 
REMARK  8 active torsions:
REMARK  status: ('A' for Active; 'I' for Inactive)
REMARK    1  A    between atoms: C_1  and  C_2
REMARK    2  A    between atoms: C_2  and  C_3
REMARK    3  A    between atoms: C_2  and  N_4
REMARK    4  A    between atoms: C_5  and  C_7
REMARK    5  A    between atoms: C_7  and  O_8
REMARK    6  A    between atoms: O_8  and  C_9
REMARK    7  A    between atoms: C_9  and  C_10
REMARK    8  A    between atoms: C_12  and  C_13
REMARK                            x       y       z     vdW  Elec       q    Type
REMARK                         _______ _______ _______ _____ _____    ______ ____
ROOT
ATOM      1  C   UNL     1       3.200   4.667  18.065  0.00  0.00    +0.000 A 
ATOM      2  C   UNL     1       2.247   5.707  17.980  0.00  0.00    +0.000 A 
ATOM      3  C   UNL     1       2.525   6.520  19.052  0.00  0.00    +0.000 A 
ATOM      4  O   UNL     1       3.589   5.997  19.729  0.00  0.00    +0.000 OA
ATOM      5  N   UNL     1       4.015   4.836  19.112  0.00  0.00    +0.000 NA
ENDROOT
BRANCH   3   6
ATOM      6  C   UNL     1       1.932   7.731  19.602  0.00  0.00    +0.000 A 
ATOM      7  C   UNL     1       1.544   7.800  20.961  0.00  0.00    +0.000 A 
ATOM      8  C   UNL     1       0.900   8.927  21.480  0.00  0.00    +0.000 A 
ATOM      9  C   UNL     1       0.650   9.970  20.618  0.00  0.00    +0.000 A 
ATOM     10  C   UNL     1       1.042   9.929  19.302  0.00  0.00    +0.000 A 
ATOM     11  C   UNL     1       1.692   8.835  18.768  0.00  0.00    +0.000 A 
ATOM     12  O   UNL     1       0.693  11.052  18.621  0.00  0.00    +0.000 OA
ATOM     13  C   UNL     1      -0.017  11.778  19.646  0.00  0.00    +0.000 C 
ATOM     14  O   UNL     1       0.003  11.124  20.931  0.00  0.00    +0.000 OA
ENDBRANCH   3   6
BRANCH   1  15
ATOM     15  C   UNL     1       3.404   3.541  17.115  0.00  0.00    +0.000 C 
BRANCH  15  16
ATOM     16  O   UNL     1       4.792   3.271  16.856  0.00  0.00    +0.000 OA
BRANCH  16  17
ATOM     17  C   UNL     1       5.298   4.064  15.776  0.00  0.00    +0.000 C 
BRANCH  17  19
ATOM     18  N   UNL     1       6.585   5.313  17.425  0.00  0.00    +0.000 N 
ATOM     19  C   UNL     1       6.591   4.780  16.156  0.00  0.00    +0.000 C 
ATOM     20  O   UNL     1       7.553   4.843  15.393  0.00  0.00    +0.000 OA
ATOM     21  H   UNL     1       5.686   5.325  17.899  0.00  0.00    +0.000 HD
BRANCH  18  23
ATOM     22  C   UNL     1       7.557   7.557  17.638  0.00  0.00    +0.000 C 
ATOM     23  C   UNL     1       7.707   6.071  17.953  0.00  0.00    +0.000 C 
ATOM     24  C   UNL     1       7.839   5.845  19.454  0.00  0.00    +0.000 C 
ENDBRANCH  18  23
ENDBRANCH  17  19
ENDBRANCH  16  17
ENDBRANCH  15  16
ENDBRANCH   1  15
TORSDOF 6
ENDMDL
MODEL 5
REMARK VINA RESULT:      -7.1      1.853      2.240
REMARK  Name = 
REMARK  8 active torsions:
REMARK  status: ('A' for Active; 'I' for Inactive)
REMARK    1  A    between atoms: C_1  and  C_2
REMARK    2  A    between atoms: C_2  and  C_3
REMARK    3  A    between atoms: C_2  and  N_4
REMARK    4  A    between atoms: C_5  and  C_7
REMARK    5  A    between atoms: C_7  and  O_8
REMARK    6  A    between atoms: O_8  and  C_9
REMARK    7  A    between atoms: C_9  and  C_10
REMARK    8  A    between atoms: C_12  and  C_13
REMARK                            x       y       z     vdW  Elec       q    Type
REMARK                         _______ _______ _______ _____ _____    ______ ____
ROOT
ATOM      1  C   UNL     1       7.431   6.281  17.659  0.00  0.00    +0.000 A 
ATOM      2  C   UNL     1       8.257   7.079  18.481  0.00  0.00    +0.000 A 
ATOM      3  C   UNL     1       8.046   8.364  18.042  0.00  0.00    +0.000 A 
ATOM      4  O   UNL     1       7.139   8.330  17.022  0.00  0.00    +0.000 OA
ATOM      5  N   UNL     1       6.751   7.026  16.780  0.00  0.00    +0.000 NA
ENDROOT
BRANCH   3   6
ATOM      6  C   UNL     1       8.585   9.670  18.394  0.00  0.00    +0.000 A 
ATOM      7  C   UNL     1       9.354   9.847  19.569  0.00  0.00    +0.000 A 
ATOM      8  C   UNL     1       9.807  11.111  19.960  0.00  0.00    +0.000 A 
ATOM      9  C   UNL     1       9.475  12.182  19.163  0.00  0.00    +0.000 A 
ATOM     10  C   UNL     1       8.749  12.023  18.007  0.00  0.00    +0.000 A 
ATOM     11  C   UNL     1       8.302  10.786  17.590  0.00  0.00    +0.000 A 
ATOM     12  O   UNL     1       8.521  13.203  17.371  0.00  0.00    +0.000 OA
ATOM     13  C   UNL     1       9.133  14.128  18.294  0.00  0.00    +0.000 C 
ATOM     14  O   UNL     1       9.791  13.482  19.402  0.00  0.00    +0.000 OA
ENDBRANCH   3   6
BRANCH   1  15
ATOM     15  C   UNL     1       7.215   4.812  17.740  0.00  0.00    +0.000 C 
BRANCH  15  16
ATOM     16  O   UNL     1       5.956   4.464  18.339  0.00  0.00    +0.000 OA
BRANCH  16  17
ATOM     17  C   UNL     1       4.966   4.143  17.355  0.00  0.00    +0.000 C 
BRANCH  17  19
ATOM     18  N   UNL     1       3.689   6.145  17.899  0.00  0.00    +0.000 N 
ATOM     19  C   UNL     1       3.620   4.789  17.673  0.00  0.00    +0.000 C 
ATOM     20  O   UNL     1       2.573   4.144  17.695  0.00  0.00    +0.000 OA
ATOM     21  H   UNL     1       4.623   6.534  17.999  0.00  0.00    +0.000 HD
BRANCH  18  23
ATOM     22  C   UNL     1       2.319   6.940  19.774  0.00  0.00    +0.000 C 
ATOM     23  C   UNL     1       2.522   6.931  18.261  0.00  0.00    +0.000 C 
ATOM     24  C   UNL     1       2.651   8.350  17.721  0.00  0.00    +0.000 C 
ENDBRANCH  18  23
ENDBRANCH  17  19
ENDBRANCH  16  17
ENDBRANCH  15  16
ENDBRANCH   1  15
TORSDOF 6
ENDMDL
MODEL 6
REMARK VINA RESULT:      -7.1      1.108      1.152
REMARK  Name = 
REMARK  8 active torsions:
REMARK  status: ('A' for Active; 'I' for Inactive)
REMARK    1  A    between atoms: C_1  and  C_2
REMARK    2  A    between atoms: C_2  and  C_3
REMARK    3  A    between atoms: C_2  and  N_4
REMARK    4  A    between atoms: C_5  and  C_7
REMARK    5  A    between atoms: C_7  and  O_8
REMARK    6  A    between atoms: O_8  and  C_9
REMARK    7  A    between atoms: C_9  and  C_10
REMARK    8  A    between atoms: C_12  and  C_13
REMARK                            x       y       z     vdW  Elec       q    Type
REMARK                         _______ _______ _______ _____ _____    ______ ____
ROOT
ATOM      1  C   UNL     1       7.519   6.822  17.942  0.00  0.00    +0.000 A 
ATOM      2  C   UNL     1       8.351   7.512  18.850  0.00  0.00    +0.000 A 
ATOM      3  C   UNL     1       8.414   8.793  18.358  0.00  0.00    +0.000 A 
ATOM      4  O   UNL     1       7.654   8.861  17.226  0.00  0.00    +0.000 OA
ATOM      5  N   UNL     1       7.090   7.627  16.963  0.00  0.00    +0.000 NA
ENDROOT
BRANCH   3   6
ATOM      6  C   UNL     1       9.111  10.010  18.752  0.00  0.00    +0.000 A 
ATOM      7  C   UNL     1       9.261  10.355  20.116  0.00  0.00    +0.000 A 
ATOM      8  C   UNL     1       9.855  11.560  20.503  0.00  0.00    +0.000 A 
ATOM      9  C   UNL     1      10.287  12.405  19.507  0.00  0.00    +0.000 A 
ATOM     10  C   UNL     1      10.172  12.074  18.178  0.00  0.00    +0.000 A 
ATOM     11  C   UNL     1       9.602  10.886  17.769  0.00  0.00    +0.000 A 
ATOM     12  O   UNL     1      10.650  13.047  17.358  0.00  0.00    +0.000 OA
ATOM     13  C   UNL     1      11.023  14.053  18.322  0.00  0.00    +0.000 C 
ATOM     14  O   UNL     1      10.851  13.629  19.690  0.00  0.00    +0.000 OA
ENDBRANCH   3   6
BRANCH   1  15
ATOM     15  C   UNL     1       7.053   5.411  18.025  0.00  0.00    +0.000 C 
BRANCH  15  16
ATOM     16  O   UNL     1       5.649   5.301  18.308  0.00  0.00    +0.000 OA
BRANCH  16  17
ATOM     17  C   UNL     1       5.051   4.192  17.625  0.00  0.00    +0.000 C 
BRANCH  17  19
ATOM     18  N   UNL     1       3.529   3.946  19.510  0.00  0.00    +0.000 N 
ATOM     19  C   UNL     1       3.645   3.902  18.140  0.00  0.00    +0.000 C 
ATOM     20  O   UNL     1       2.704   3.675  17.381  0.00  0.00    +0.000 OA
ATOM     21  H   UNL     1       4.400   3.996  20.030  0.00  0.00    +0.000 HD
BRANCH  18  23
ATOM     22  C   UNL     1       2.521   2.775  21.418  0.00  0.00    +0.000 C 
ATOM     23  C   UNL     1       2.279   3.652  20.193  0.00  0.00    +0.000 C 
ATOM     24  C   UNL     1       1.572   4.945  20.581  0.00  0.00    +0.000 C 
ENDBRANCH  18  23
ENDBRANCH  17  19
ENDBRANCH  16  17
ENDBRANCH  15  16
ENDBRANCH   1  15
TORSDOF 6
ENDMDL
MODEL 7
REMARK VINA RESULT:      -7.1      5.991      7.726
REMARK  Name = 
REMARK  8 active torsions:
REMARK  status: ('A' for Active; 'I' for Inactive)
REMARK    1  A    between atoms: C_1  and  C_2
REMARK    2  A    between atoms: C_2  and  C_3
REMARK    3  A    between atoms: C_2  and  N_4
REMARK    4  A    between atoms: C_5  and  C_7
REMARK    5  A    between atoms: C_7  and  O_8
REMARK    6  A    between atoms: O_8  and  C_9
REMARK    7  A    between atoms: C_9  and  C_10
REMARK    8  A    between atoms: C_12  and  C_13
REMARK                            x       y       z     vdW  Elec       q    Type
REMARK                         _______ _______ _______ _____ _____    ______ ____
ROOT
ATOM      1  C   UNL     1       4.196   5.494  17.829  0.00  0.00    +0.000 A 
ATOM      2  C   UNL     1       3.203   5.801  18.786  0.00  0.00    +0.000 A 
ATOM      3  C   UNL     1       2.884   7.115  18.544  0.00  0.00    +0.000 A 
ATOM      4  O   UNL     1       3.638   7.559  17.496  0.00  0.00    +0.000 OA
ATOM      5  N   UNL     1       4.461   6.545  17.045  0.00  0.00    +0.000 NA
ENDROOT
BRANCH   3   6
ATOM      6  C   UNL     1       1.987   8.083  19.161  0.00  0.00    +0.000 A 
ATOM      7  C   UNL     1       1.666   8.004  20.537  0.00  0.00    +0.000 A 
ATOM      8  C   UNL     1       0.744   8.877  21.121  0.00  0.00    +0.000 A 
ATOM      9  C   UNL     1       0.153   9.817  20.308  0.00  0.00    +0.000 A 
ATOM     10  C   UNL     1       0.471   9.922  18.976  0.00  0.00    +0.000 A 
ATOM     11  C   UNL     1       1.388   9.083  18.377  0.00  0.00    +0.000 A 
ATOM     12  O   UNL     1      -0.229  10.905  18.351  0.00  0.00    +0.000 OA
ATOM     13  C   UNL     1      -1.069  11.364  19.430  0.00  0.00    +0.000 C 
ATOM     14  O   UNL     1      -0.791  10.719  20.689  0.00  0.00    +0.000 OA
ENDBRANCH   3   6
BRANCH   1  15
ATOM     15  C   UNL     1       4.855   4.181  17.590  0.00  0.00    +0.000 C 
BRANCH  15  16
ATOM     16  O   UNL     1       5.036   3.891  16.195  0.00  0.00    +0.000 OA
BRANCH  16  17
ATOM     17  C   UNL     1       6.409   3.996  15.801  0.00  0.00    +0.000 C 
BRANCH  17  19
ATOM     18  N   UNL     1       5.904   3.314  13.517  0.00  0.00    +0.000 N 
ATOM     19  C   UNL     1       6.551   4.242  14.301  0.00  0.00    +0.000 C 
ATOM     20  O   UNL     1       7.171   5.204  13.852  0.00  0.00    +0.000 OA
ATOM     21  H   UNL     1       5.555   2.490  13.998  0.00  0.00    +0.000 HD
BRANCH  18  23
ATOM     22  C   UNL     1       6.832   2.221  11.525  0.00  0.00    +0.000 C 
ATOM     23  C   UNL     1       5.961   3.351  12.065  0.00  0.00    +0.000 C 
ATOM     24  C   UNL     1       4.556   3.283  11.479  0.00  0.00    +0.000 C 
ENDBRANCH  18  23
ENDBRANCH  17  19
ENDBRANCH  16  17
ENDBRANCH  15  16
ENDBRANCH   1  15
TORSDOF 6
ENDMDL
MODEL 8
REMARK VINA RESULT:      -7.1      4.348      7.384
REMARK  Name = 
REMARK  8 active torsions:
REMARK  status: ('A' for Active; 'I' for Inactive)
REMARK    1  A    between atoms: C_1  and  C_2
REMARK    2  A    between atoms: C_2  and  C_3
REMARK    3  A    between atoms: C_2  and  N_4
REMARK    4  A    between atoms: C_5  and  C_7
REMARK    5  A    between atoms: C_7  and  O_8
REMARK    6  A    between atoms: O_8  and  C_9
REMARK    7  A    between atoms: C_9  and  C_10
REMARK    8  A    between atoms: C_12  and  C_13
REMARK                            x       y       z     vdW  Elec       q    Type
REMARK                         _______ _______ _______ _____ _____    ______ ____
ROOT
ATOM      1  C   UNL     1       3.970   4.618  17.787  0.00  0.00    +0.000 A 
ATOM      2  C   UNL     1       3.475   5.912  17.513  0.00  0.00    +0.000 A 
ATOM      3  C   UNL     1       2.891   6.316  18.689  0.00  0.00    +0.000 A 
ATOM      4  O   UNL     1       3.039   5.320  19.611  0.00  0.00    +0.000 OA
ATOM      5  N   UNL     1       3.716   4.254  19.049  0.00  0.00    +0.000 NA
ENDROOT
BRANCH   3   6
ATOM      6  C   UNL     1       2.159   7.499  19.118  0.00  0.00    +0.000 A 
ATOM      7  C   UNL     1       1.936   8.579  18.230  0.00  0.00    +0.000 A 
ATOM      8  C   UNL     1       1.307   9.753  18.653  0.00  0.00    +0.000 A 
ATOM      9  C   UNL     1       0.915   9.827  19.970  0.00  0.00    +0.000 A 
ATOM     10  C   UNL     1       1.103   8.779  20.839  0.00  0.00    +0.000 A 
ATOM     11  C   UNL     1       1.707   7.603  20.444  0.00  0.00    +0.000 A 
ATOM     12  O   UNL     1       0.655   9.056  22.092  0.00  0.00    +0.000 OA
ATOM     13  C   UNL     1       0.220  10.422  21.925  0.00  0.00    +0.000 C 
ATOM     14  O   UNL     1       0.328  10.897  20.568  0.00  0.00    +0.000 OA
ENDBRANCH   3   6
BRANCH   1  15
ATOM     15  C   UNL     1       4.757   3.735  16.884  0.00  0.00    +0.000 C 
BRANCH  15  16
ATOM     16  O   UNL     1       5.059   4.351  15.622  0.00  0.00    +0.000 OA
BRANCH  16  17
ATOM     17  C   UNL     1       6.450   4.249  15.296  0.00  0.00    +0.000 C 
BRANCH  17  19
ATOM     18  N   UNL     1       7.128   6.146  16.665  0.00  0.00    +0.000 N 
ATOM     19  C   UNL     1       7.335   4.811  16.404  0.00  0.00    +0.000 C 
ATOM     20  O   UNL     1       8.140   4.111  17.018  0.00  0.00    +0.000 OA
ATOM     21  H   UNL     1       6.548   6.646  15.997  0.00  0.00    +0.000 HD
BRANCH  18  23
ATOM     22  C   UNL     1       7.599   8.368  17.597  0.00  0.00    +0.000 C 
ATOM     23  C   UNL     1       7.906   6.874  17.654  0.00  0.00    +0.000 C 
ATOM     24  C   UNL     1       7.643   6.317  19.048  0.00  0.00    +0.000 C 
ENDBRANCH  18  23
ENDBRANCH  17  19
ENDBRANCH  16  17
ENDBRANCH  15  16
ENDBRANCH   1  15
TORSDOF 6
ENDMDL
MODEL 9
REMARK VINA RESULT:      -7.0      5.944      7.170
REMARK  Name = 
REMARK  8 active torsions:
REMARK  status: ('A' for Active; 'I' for Inactive)
REMARK    1  A    between atoms: C_1  and  C_2
REMARK    2  A    between atoms: C_2  and  C_3
REMARK    3  A    between atoms: C_2  and  N_4
REMARK    4  A    between atoms: C_5  and  C_7
REMARK    5  A    between atoms: C_7  and  O_8
REMARK    6  A    between atoms: O_8  and  C_9
REMARK    7  A    between atoms: C_9  and  C_10
REMARK    8  A    between atoms: C_12  and  C_13
REMARK                            x       y       z     vdW  Elec       q    Type
REMARK                         _______ _______ _______ _____ _____    ______ ____
ROOT
ATOM      1  C   UNL     1       2.762   4.626  20.393  0.00  0.00    +0.000 A 
ATOM      2  C   UNL     1       1.707   5.543  20.597  0.00  0.00    +0.000 A 
ATOM      3  C   UNL     1       2.170   6.726  20.075  0.00  0.00    +0.000 A 
ATOM      4  O   UNL     1       3.425   6.520  19.580  0.00  0.00    +0.000 OA
ATOM      5  N   UNL     1       3.799   5.204  19.777  0.00  0.00    +0.000 NA
ENDROOT
BRANCH   3   6
ATOM      6  C   UNL     1       1.644   8.080  19.978  0.00  0.00    +0.000 A 
ATOM      7  C   UNL     1       1.643   8.775  18.745  0.00  0.00    +0.000 A 
ATOM      8  C   UNL     1       1.216  10.103  18.657  0.00  0.00    +0.000 A 
ATOM      9  C   UNL     1       0.799  10.717  19.816  0.00  0.00    +0.000 A 
ATOM     10  C   UNL     1       0.771  10.049  21.016  0.00  0.00    +0.000 A 
ATOM     11  C   UNL     1       1.173   8.734  21.129  0.00  0.00    +0.000 A 
ATOM     12  O   UNL     1       0.337  10.834  22.037  0.00  0.00    +0.000 OA
ATOM     13  C   UNL     1       0.154  12.090  21.351  0.00  0.00    +0.000 C 
ATOM     14  O   UNL     1       0.389  12.008  19.930  0.00  0.00    +0.000 OA
ENDBRANCH   3   6
BRANCH   1  15
ATOM     15  C   UNL     1       2.777   3.172  20.708  0.00  0.00    +0.000 C 
BRANCH  15  16
ATOM     16  O   UNL     1       2.239   2.364  19.649  0.00  0.00    +0.000 OA
BRANCH  16  17
ATOM     17  C   UNL     1       3.254   1.933  18.736  0.00  0.00    +0.000 C 
BRANCH  17  19
ATOM     18  N   UNL     1       4.587   3.269  17.195  0.00  0.00    +0.000 N 
ATOM     19  C   UNL     1       3.320   2.824  17.498  0.00  0.00    +0.000 C 
ATOM     20  O   UNL     1       2.323   3.089  16.829  0.00  0.00    +0.000 OA
ATOM     21  H   UNL     1       5.298   3.105  17.902  0.00  0.00    +0.000 HD
BRANCH  18  23
ATOM     22  C   UNL     1       4.895   5.617  16.548  0.00  0.00    +0.000 C 
ATOM     23  C   UNL     1       4.847   4.165  16.080  0.00  0.00    +0.000 C 
ATOM     24  C   UNL     1       6.144   3.776  15.381  0.00  0.00    +0.000 C 
ENDBRANCH  18  23
ENDBRANCH  17  19
ENDBRANCH  16  17
ENDBRANCH  15  16
ENDBRANCH   1  15
TORSDOF 6
ENDMDL
