MODEL 1
REMARK VINA RESULT:      -9.5      0.000      0.000
REMARK  Name = 
REMARK  10 active torsions:
REMARK  status: ('A' for Active; 'I' for Inactive)
REMARK    1  A    between atoms: C_1  and  C_2
REMARK    2  A    between atoms: C_7  and  N_8
REMARK    3  A    between atoms: C_9  and  C_11
REMARK    4  A    between atoms: C_11  and  O_12
REMARK    5  A    between atoms: O_12  and  C_13
REMARK    6  A    between atoms: C_13  and  C_15
REMARK    7  A    between atoms: N_23  and  C_24
REMARK    8  A    between atoms: C_24  and  C_25
REMARK    9  A    between atoms: C_25  and  C_26
REMARK   10  A    between atoms: C_26  and  N_27
REMARK                            x       y       z     vdW  Elec       q    Type
REMARK                         _______ _______ _______ _____ _____    ______ ____
ROOT
ATOM      1  C   UNL     1       1.811   4.359  18.976  0.00  0.00    +0.000 A 
ATOM      2  C   UNL     1       1.849   4.450  20.388  0.00  0.00    +0.000 A 
ATOM      3  C   UNL     1       1.909   5.717  21.017  0.00  0.00    +0.000 A 
ATOM      4  C   UNL     1       2.022   6.827  20.194  0.00  0.00    +0.000 A 
ATOM      5  C   UNL     1       2.311   6.660  18.863  0.00  0.00    +0.000 A 
ATOM      6  C   UNL     1       2.102   5.480  18.206  0.00  0.00    +0.000 A 
ATOM      7  C   UNL     1       2.338   7.941  18.213  0.00  0.00    +0.000 C 
ATOM      8  O   UNL     1       2.908   8.148  17.163  0.00  0.00    +0.000 OA
ATOM      9  N   UNL     1       1.580   8.743  19.010  0.00  0.00    +0.000 N 
ATOM     10  C   UNL     1       1.511   8.235  20.275  0.00  0.00    +0.000 C 
ATOM     11  O   UNL     1       1.030   8.709  21.283  0.00  0.00    +0.000 OA
ENDROOT
BRANCH   1  12
ATOM     12  C   UNL     1       1.350   3.135  18.267  0.00  0.00    +0.000 C 
ATOM     13  O   UNL     1       0.271   2.591  18.405  0.00  0.00    +0.000 OA
BRANCH  12  14
ATOM     14  O   UNL     1       2.339   2.750  17.427  0.00  0.00    +0.000 OA
BRANCH  14  15
ATOM     15  C   UNL     1       3.468   2.046  17.940  0.00  0.00    +0.000 C 
BRANCH  15  17
ATOM     16  N   UNL     1       4.981   3.931  17.650  0.00  0.00    +0.000 N 
ATOM     17  C   UNL     1       4.526   2.966  18.536  0.00  0.00    +0.000 C 
ATOM     18  O   UNL     1       4.912   2.794  19.694  0.00  0.00    +0.000 OA
ATOM     19  H   UNL     1       4.622   3.876  16.699  0.00  0.00    +0.000 HD
BRANCH  16  26
ATOM     20  C   UNL     1       5.256   6.144  15.754  0.00  0.00    +0.000 C 
ATOM     21  C   UNL     1       6.110   5.990  16.989  0.00  0.00    +0.000 A 
ATOM     22  C   UNL     1       7.106   6.953  17.216  0.00  0.00    +0.000 A 
ATOM     23  C   UNL     1       7.934   6.880  18.332  0.00  0.00    +0.000 A 
ATOM     24  C   UNL     1       7.766   5.847  19.242  0.00  0.00    +0.000 A 
ATOM     25  C   UNL     1       6.784   4.879  19.026  0.00  0.00    +0.000 A 
ATOM     26  C   UNL     1       5.959   4.920  17.895  0.00  0.00    +0.000 A 
ENDBRANCH  16  26
ENDBRANCH  15  17
ENDBRANCH  14  15
ENDBRANCH  12  14
ENDBRANCH   1  12
BRANCH   9  27
ATOM     27  C   UNL     1       0.941   9.918  18.425  0.00  0.00    +0.000 C 
BRANCH  27  28
ATOM     28  C   UNL     1      -0.383  10.364  19.156  0.00  0.00    +0.000 C 
BRANCH  28  29
ATOM     29  C   UNL     1      -1.447  10.915  18.182  0.00  0.00    +0.000 C 
BRANCH  29  30
ATOM     30  N   UNL     1      -2.590  10.066  17.791  0.00  0.00    +0.000 NA
ATOM     31  C   UNL     1      -2.455   9.666  16.364  0.00  0.00    +0.000 C 
ATOM     32  C   UNL     1      -2.874  10.769  15.377  0.00  0.00    +0.000 C 
ATOM     33  O   UNL     1      -4.251  11.104  15.556  0.00  0.00    +0.000 OA
ATOM     34  C   UNL     1      -4.487  11.569  16.892  0.00  0.00    +0.000 C 
ATOM     35  C   UNL     1      -3.964  10.592  17.972  0.00  0.00    +0.000 C 
ENDBRANCH  29  30
ENDBRANCH  28  29
ENDBRANCH  27  28
ENDBRANCH   9  27
TORSDOF 9
ENDMDL
MODEL 2
REMARK VINA RESULT:      -9.0      2.261      2.828
REMARK  Name = 
REMARK  10 active torsions:
REMARK  status: ('A' for Active; 'I' for Inactive)
REMARK    1  A    between atoms: C_1  and  C_2
REMARK    2  A    between atoms: C_7  and  N_8
REMARK    3  A    between atoms: C_9  and  C_11
REMARK    4  A    between atoms: C_11  and  O_12
REMARK    5  A    between atoms: O_12  and  C_13
REMARK    6  A    between atoms: C_13  and  C_15
REMARK    7  A    between atoms: N_23  and  C_24
REMARK    8  A    between atoms: C_24  and  C_25
REMARK    9  A    between atoms: C_25  and  C_26
REMARK   10  A    between atoms: C_26  and  N_27
REMARK                            x       y       z     vdW  Elec       q    Type
REMARK                         _______ _______ _______ _____ _____    ______ ____
ROOT
ATOM      1  C   UNL     1       1.791   4.415  18.991  0.00  0.00    +0.000 A 
ATOM      2  C   UNL     1       1.837   4.513  20.403  0.00  0.00    +0.000 A 
ATOM      3  C   UNL     1       1.886   5.783  21.026  0.00  0.00    +0.000 A 
ATOM      4  C   UNL     1       1.981   6.891  20.198  0.00  0.00    +0.000 A 
ATOM      5  C   UNL     1       2.263   6.722  18.866  0.00  0.00    +0.000 A 
ATOM      6  C   UNL     1       2.065   5.536  18.215  0.00  0.00    +0.000 A 
ATOM      7  C   UNL     1       2.272   8.000  18.210  0.00  0.00    +0.000 C 
ATOM      8  O   UNL     1       2.832   8.210  17.156  0.00  0.00    +0.000 OA
ATOM      9  N   UNL     1       1.508   8.796  19.009  0.00  0.00    +0.000 N 
ATOM     10  C   UNL     1       1.453   8.292  20.276  0.00  0.00    +0.000 C 
ATOM     11  O   UNL     1       0.973   8.765  21.285  0.00  0.00    +0.000 OA
ENDROOT
BRANCH   1  12
ATOM     12  C   UNL     1       1.341   3.183  18.291  0.00  0.00    +0.000 C 
ATOM     13  O   UNL     1       0.273   2.621  18.444  0.00  0.00    +0.000 OA
BRANCH  12  14
ATOM     14  O   UNL     1       2.324   2.813  17.437  0.00  0.00    +0.000 OA
BRANCH  14  15
ATOM     15  C   UNL     1       3.455   2.097  17.930  0.00  0.00    +0.000 C 
BRANCH  15  17
ATOM     16  N   UNL     1       4.980   3.974  17.653  0.00  0.00    +0.000 N 
ATOM     17  C   UNL     1       4.521   3.005  18.531  0.00  0.00    +0.000 C 
ATOM     18  O   UNL     1       4.909   2.819  19.686  0.00  0.00    +0.000 OA
ATOM     19  H   UNL     1       4.617   3.931  16.703  0.00  0.00    +0.000 HD
BRANCH  16  26
ATOM     20  C   UNL     1       5.238   6.225  15.798  0.00  0.00    +0.000 C 
ATOM     21  C   UNL     1       6.109   6.043  17.018  0.00  0.00    +0.000 A 
ATOM     22  C   UNL     1       7.111   6.996  17.251  0.00  0.00    +0.000 A 
ATOM     23  C   UNL     1       7.954   6.898  18.354  0.00  0.00    +0.000 A 
ATOM     24  C   UNL     1       7.794   5.847  19.246  0.00  0.00    +0.000 A 
ATOM     25  C   UNL     1       6.805   4.887  19.023  0.00  0.00    +0.000 A 
ATOM     26  C   UNL     1       5.965   4.954  17.904  0.00  0.00    +0.000 A 
ENDBRANCH  16  26
ENDBRANCH  15  17
ENDBRANCH  14  15
ENDBRANCH  12  14
ENDBRANCH   1  12
BRANCH   9  27
ATOM     27  C   UNL     1       0.852   9.961  18.422  0.00  0.00    +0.000 C 
BRANCH  27  28
ATOM     28  C   UNL     1       1.623  11.317  18.651  0.00  0.00    +0.000 C 
BRANCH  28  29
ATOM     29  C   UNL     1       1.201  12.032  19.953  0.00  0.00    +0.000 C 
BRANCH  29  30
ATOM     30  N   UNL     1      -0.211  12.415  20.152  0.00  0.00    +0.000 NA
ATOM     31  C   UNL     1      -0.289  13.825  20.623  0.00  0.00    +0.000 C 
ATOM     32  C   UNL     1       0.015  13.987  22.122  0.00  0.00    +0.000 C 
ATOM     33  O   UNL     1      -0.934  13.264  22.906  0.00  0.00    +0.000 OA
ATOM     34  C   UNL     1      -0.900  11.868  22.580  0.00  0.00    +0.000 C 
ATOM     35  C   UNL     1      -1.050  11.601  21.063  0.00  0.00    +0.000 C 
ENDBRANCH  29  30
ENDBRANCH  28  29
ENDBRANCH  27  28
ENDBRANCH   9  27
TORSDOF 9
ENDMDL
MODEL 3
REMARK VINA RESULT:      -9.0      2.046      2.289
REMARK  Name = 
REMARK  10 active torsions:
REMARK  status: ('A' for Active; 'I' for Inactive)
REMARK    1  A    between atoms: C_1  and  C_2
REMARK    2  A    between atoms: C_7  and  N_8
REMARK    3  A    between atoms: C_9  and  C_11
REMARK    4  A    between atoms: C_11  and  O_12
REMARK    5  A    between atoms: O_12  and  C_13
REMARK    6  A    between atoms: C_13  and  C_15
REMARK    7  A    between atoms: N_23  and  C_24
REMARK    8  A    between atoms: C_24  and  C_25
REMARK    9  A    between atoms: C_25  and  C_26
REMARK   10  A    between atoms: C_26  and  N_27
REMARK                            x       y       z     vdW  Elec       q    Type
REMARK                         _______ _______ _______ _____ _____    ______ ____
ROOT
ATOM      1  C   UNL     1       1.760   4.100  19.093  0.00  0.00    +0.000 A 
ATOM      2  C   UNL     1       1.577   4.340  20.476  0.00  0.00    +0.000 A 
ATOM      3  C   UNL     1       1.642   5.661  20.982  0.00  0.00    +0.000 A 
ATOM      4  C   UNL     1       1.981   6.665  20.088  0.00  0.00    +0.000 A 
ATOM      5  C   UNL     1       2.465   6.336  18.847  0.00  0.00    +0.000 A 
ATOM      6  C   UNL     1       2.266   5.108  18.281  0.00  0.00    +0.000 A 
ATOM      7  C   UNL     1       2.706   7.534  18.092  0.00  0.00    +0.000 C 
ATOM      8  O   UNL     1       3.454   7.588  17.139  0.00  0.00    +0.000 OA
ATOM      9  N   UNL     1       1.899   8.467  18.669  0.00  0.00    +0.000 N 
ATOM     10  C   UNL     1       1.584   8.104  19.947  0.00  0.00    +0.000 C 
ATOM     11  O   UNL     1       0.989   8.717  20.808  0.00  0.00    +0.000 OA
ENDROOT
BRANCH   1  12
ATOM     12  C   UNL     1       1.318   2.841  18.436  0.00  0.00    +0.000 C 
ATOM     13  O   UNL     1       0.195   2.373  18.467  0.00  0.00    +0.000 OA
BRANCH  12  14
ATOM     14  O   UNL     1       2.383   2.322  17.782  0.00  0.00    +0.000 OA
BRANCH  14  15
ATOM     15  C   UNL     1       3.421   1.678  18.520  0.00  0.00    +0.000 C 
BRANCH  15  17
ATOM     16  N   UNL     1       4.855   3.570  17.982  0.00  0.00    +0.000 N 
ATOM     17  C   UNL     1       4.529   2.632  18.949  0.00  0.00    +0.000 C 
ATOM     18  O   UNL     1       5.058   2.505  20.055  0.00  0.00    +0.000 OA
ATOM     19  H   UNL     1       4.382   3.477  17.085  0.00  0.00    +0.000 HD
BRANCH  16  26
ATOM     20  C   UNL     1       5.502   5.125  15.587  0.00  0.00    +0.000 C 
ATOM     21  C   UNL     1       6.169   5.334  16.925  0.00  0.00    +0.000 A 
ATOM     22  C   UNL     1       7.172   6.312  17.008  0.00  0.00    +0.000 A 
ATOM     23  C   UNL     1       7.833   6.564  18.205  0.00  0.00    +0.000 A 
ATOM     24  C   UNL     1       7.489   5.845  19.341  0.00  0.00    +0.000 A 
ATOM     25  C   UNL     1       6.497   4.865  19.273  0.00  0.00    +0.000 A 
ATOM     26  C   UNL     1       5.840   4.578  18.070  0.00  0.00    +0.000 A 
ENDBRANCH  16  26
ENDBRANCH  15  17
ENDBRANCH  14  15
ENDBRANCH  12  14
ENDBRANCH   1  12
BRANCH   9  27
ATOM     27  C   UNL     1       1.466   9.613  17.874  0.00  0.00    +0.000 C 
BRANCH  27  28
ATOM     28  C   UNL     1       2.191  10.963  18.242  0.00  0.00    +0.000 C 
BRANCH  28  29
ATOM     29  C   UNL     1       1.354  11.853  19.186  0.00  0.00    +0.000 C 
BRANCH  29  30
ATOM     30  N   UNL     1      -0.108  11.944  18.999  0.00  0.00    +0.000 NA
ATOM     31  C   UNL     1      -0.453  13.240  18.353  0.00  0.00    +0.000 C 
ATOM     32  C   UNL     1      -0.456  14.429  19.329  0.00  0.00    +0.000 C 
ATOM     33  O   UNL     1      -1.434  14.233  20.352  0.00  0.00    +0.000 OA
ATOM     34  C   UNL     1      -1.160  13.035  21.090  0.00  0.00    +0.000 C 
ATOM     35  C   UNL     1      -0.990  11.794  20.181  0.00  0.00    +0.000 C 
ENDBRANCH  29  30
ENDBRANCH  28  29
ENDBRANCH  27  28
ENDBRANCH   9  27
TORSDOF 9
ENDMDL
MODEL 4
REMARK VINA RESULT:      -8.6      1.620      1.949
REMARK  Name = 
REMARK  10 active torsions:
REMARK  status: ('A' for Active; 'I' for Inactive)
REMARK    1  A    between atoms: C_1  and  C_2
REMARK    2  A    between atoms: C_7  and  N_8
REMARK    3  A    between atoms: C_9  and  C_11
REMARK    4  A    between atoms: C_11  and  O_12
REMARK    5  A    between atoms: O_12  and  C_13
REMARK    6  A    between atoms: C_13  and  C_15
REMARK    7  A    between atoms: N_23  and  C_24
REMARK    8  A    between atoms: C_24  and  C_25
REMARK    9  A    between atoms: C_25  and  C_26
REMARK   10  A    between atoms: C_26  and  N_27
REMARK                            x       y       z     vdW  Elec       q    Type
REMARK                         _______ _______ _______ _____ _____    ______ ____
ROOT
ATOM      1  C   UNL     1       1.904   4.469  19.218  0.00  0.00    +0.000 A 
ATOM      2  C   UNL     1       1.869   4.685  20.617  0.00  0.00    +0.000 A 
ATOM      3  C   UNL     1       1.903   6.003  21.133  0.00  0.00    +0.000 A 
ATOM      4  C   UNL     1       2.064   7.036  20.221  0.00  0.00    +0.000 A 
ATOM      5  C   UNL     1       2.420   6.751  18.928  0.00  0.00    +0.000 A 
ATOM      6  C   UNL     1       2.240   5.517  18.369  0.00  0.00    +0.000 A 
ATOM      7  C   UNL     1       2.487   7.969  18.169  0.00  0.00    +0.000 C 
ATOM      8  O   UNL     1       3.112   8.082  17.136  0.00  0.00    +0.000 OA
ATOM      9  N   UNL     1       1.692   8.838  18.851  0.00  0.00    +0.000 N 
ATOM     10  C   UNL     1       1.555   8.445  20.151  0.00  0.00    +0.000 C 
ATOM     11  O   UNL     1       1.025   9.007  21.086  0.00  0.00    +0.000 OA
ENDROOT
BRANCH   1  12
ATOM     12  C   UNL     1       1.474   3.187  18.598  0.00  0.00    +0.000 C 
ATOM     13  O   UNL     1       0.545   3.040  17.827  0.00  0.00    +0.000 OA
BRANCH  12  14
ATOM     14  O   UNL     1       2.316   2.219  19.030  0.00  0.00    +0.000 OA
BRANCH  14  15
ATOM     15  C   UNL     1       3.570   2.030  18.377  0.00  0.00    +0.000 C 
BRANCH  15  17
ATOM     16  N   UNL     1       5.033   3.914  17.892  0.00  0.00    +0.000 N 
ATOM     17  C   UNL     1       4.646   2.997  18.856  0.00  0.00    +0.000 C 
ATOM     18  O   UNL     1       5.101   2.897  19.997  0.00  0.00    +0.000 OA
ATOM     19  H   UNL     1       4.620   3.800  16.968  0.00  0.00    +0.000 HD
BRANCH  16  26
ATOM     20  C   UNL     1       5.325   5.876  15.739  0.00  0.00    +0.000 C 
ATOM     21  C   UNL     1       6.167   5.879  16.992  0.00  0.00    +0.000 A 
ATOM     22  C   UNL     1       7.159   6.864  17.108  0.00  0.00    +0.000 A 
ATOM     23  C   UNL     1       7.975   6.932  18.232  0.00  0.00    +0.000 A 
ATOM     24  C   UNL     1       7.800   6.019  19.262  0.00  0.00    +0.000 A 
ATOM     25  C   UNL     1       6.821   5.029  19.158  0.00  0.00    +0.000 A 
ATOM     26  C   UNL     1       6.008   4.928  18.022  0.00  0.00    +0.000 A 
ENDBRANCH  16  26
ENDBRANCH  15  17
ENDBRANCH  14  15
ENDBRANCH  12  14
ENDBRANCH   1  12
BRANCH   9  27
ATOM     27  C   UNL     1       1.090   9.957  18.131  0.00  0.00    +0.000 C 
BRANCH  27  28
ATOM     28  C   UNL     1      -0.465   9.819  17.909  0.00  0.00    +0.000 C 
BRANCH  28  29
ATOM     29  C   UNL     1      -1.289  10.544  18.995  0.00  0.00    +0.000 C 
BRANCH  29  30
ATOM     30  N   UNL     1      -2.004  11.792  18.659  0.00  0.00    +0.000 NA
ATOM     31  C   UNL     1      -1.026  12.840  18.261  0.00  0.00    +0.000 C 
ATOM     32  C   UNL     1      -0.324  13.508  19.456  0.00  0.00    +0.000 C 
ATOM     33  O   UNL     1      -1.278  14.165  20.292  0.00  0.00    +0.000 OA
ATOM     34  C   UNL     1      -2.242  13.228  20.792  0.00  0.00    +0.000 C 
ATOM     35  C   UNL     1      -2.905  12.392  19.671  0.00  0.00    +0.000 C 
ENDBRANCH  29  30
ENDBRANCH  28  29
ENDBRANCH  27  28
ENDBRANCH   9  27
TORSDOF 9
ENDMDL
MODEL 5
REMARK VINA RESULT:      -8.3      2.525      3.659
REMARK  Name = 
REMARK  10 active torsions:
REMARK  status: ('A' for Active; 'I' for Inactive)
REMARK    1  A    between atoms: C_1  and  C_2
REMARK    2  A    between atoms: C_7  and  N_8
REMARK    3  A    between atoms: C_9  and  C_11
REMARK    4  A    between atoms: C_11  and  O_12
REMARK    5  A    between atoms: O_12  and  C_13
REMARK    6  A    between atoms: C_13  and  C_15
REMARK    7  A    between atoms: N_23  and  C_24
REMARK    8  A    between atoms: C_24  and  C_25
REMARK    9  A    between atoms: C_25  and  C_26
REMARK   10  A    between atoms: C_26  and  N_27
REMARK                            x       y       z     vdW  Elec       q    Type
REMARK                         _______ _______ _______ _____ _____    ______ ____
ROOT
ATOM      1  C   UNL     1       1.981   5.559  18.940  0.00  0.00    +0.000 A 
ATOM      2  C   UNL     1       1.976   5.564  20.356  0.00  0.00    +0.000 A 
ATOM      3  C   UNL     1       1.731   6.768  21.061  0.00  0.00    +0.000 A 
ATOM      4  C   UNL     1       1.595   7.925  20.309  0.00  0.00    +0.000 A 
ATOM      5  C   UNL     1       1.934   7.916  18.980  0.00  0.00    +0.000 A 
ATOM      6  C   UNL     1       2.016   6.764  18.248  0.00  0.00    +0.000 A 
ATOM      7  C   UNL     1       1.673   9.208  18.408  0.00  0.00    +0.000 C 
ATOM      8  O   UNL     1       2.195   9.608  17.390  0.00  0.00    +0.000 OA
ATOM      9  N   UNL     1       0.737   9.759  19.229  0.00  0.00    +0.000 N 
ATOM     10  C   UNL     1       0.769   9.168  20.459  0.00  0.00    +0.000 C 
ATOM     11  O   UNL     1       0.176   9.452  21.478  0.00  0.00    +0.000 OA
ENDROOT
BRANCH   1  12
ATOM     12  C   UNL     1       1.828   4.310  18.147  0.00  0.00    +0.000 C 
ATOM     13  O   UNL     1       1.152   4.176  17.145  0.00  0.00    +0.000 OA
BRANCH  12  14
ATOM     14  O   UNL     1       2.593   3.357  18.729  0.00  0.00    +0.000 OA
BRANCH  14  15
ATOM     15  C   UNL     1       3.593   2.688  17.963  0.00  0.00    +0.000 C 
BRANCH  15  17
ATOM     16  N   UNL     1       5.065   4.564  18.454  0.00  0.00    +0.000 N 
ATOM     17  C   UNL     1       4.717   3.611  17.509  0.00  0.00    +0.000 C 
ATOM     18  O   UNL     1       5.205   3.481  16.385  0.00  0.00    +0.000 OA
ATOM     19  H   UNL     1       4.497   4.590  19.299  0.00  0.00    +0.000 HD
BRANCH  16  26
ATOM     20  C   UNL     1       4.701   6.676  16.459  0.00  0.00    +0.000 C 
ATOM     21  C   UNL     1       5.900   6.586  17.372  0.00  0.00    +0.000 A 
ATOM     22  C   UNL     1       6.902   7.558  17.231  0.00  0.00    +0.000 A 
ATOM     23  C   UNL     1       8.037   7.543  18.035  0.00  0.00    +0.000 A 
ATOM     24  C   UNL     1       8.177   6.558  19.002  0.00  0.00    +0.000 A 
ATOM     25  C   UNL     1       7.191   5.581  19.151  0.00  0.00    +0.000 A 
ATOM     26  C   UNL     1       6.055   5.563  18.332  0.00  0.00    +0.000 A 
ENDBRANCH  16  26
ENDBRANCH  15  17
ENDBRANCH  14  15
ENDBRANCH  12  14
ENDBRANCH   1  12
BRANCH   9  27
ATOM     27  C   UNL     1      -0.148  10.790  18.696  0.00  0.00    +0.000 C 
BRANCH  27  28
ATOM     28  C   UNL     1      -0.390  12.001  19.676  0.00  0.00    +0.000 C 
BRANCH  28  29
ATOM     29  C   UNL     1       0.626  13.146  19.474  0.00  0.00    +0.000 C 
BRANCH  29  30
ATOM     30  N   UNL     1       2.073  12.853  19.508  0.00  0.00    +0.000 NA
ATOM     31  C   UNL     1       2.698  13.536  20.674  0.00  0.00    +0.000 C 
ATOM     32  C   UNL     1       2.958  15.034  20.439  0.00  0.00    +0.000 C 
ATOM     33  O   UNL     1       3.864  15.219  19.350  0.00  0.00    +0.000 OA
ATOM     34  C   UNL     1       3.330  14.652  18.147  0.00  0.00    +0.000 C 
ATOM     35  C   UNL     1       2.895  13.176  18.318  0.00  0.00    +0.000 C 
ENDBRANCH  29  30
ENDBRANCH  28  29
ENDBRANCH  27  28
ENDBRANCH   9  27
TORSDOF 9
ENDMDL
MODEL 6
REMARK VINA RESULT:      -8.3      6.069      8.597
REMARK  Name = 
REMARK  10 active torsions:
REMARK  status: ('A' for Active; 'I' for Inactive)
REMARK    1  A    between atoms: C_1  and  C_2
REMARK    2  A    between atoms: C_7  and  N_8
REMARK    3  A    between atoms: C_9  and  C_11
REMARK    4  A    between atoms: C_11  and  O_12
REMARK    5  A    between atoms: O_12  and  C_13
REMARK    6  A    between atoms: C_13  and  C_15
REMARK    7  A    between atoms: N_23  and  C_24
REMARK    8  A    between atoms: C_24  and  C_25
REMARK    9  A    between atoms: C_25  and  C_26
REMARK   10  A    between atoms: C_26  and  N_27
REMARK                            x       y       z     vdW  Elec       q    Type
REMARK                         _______ _______ _______ _____ _____    ______ ____
ROOT
ATOM      1  C   UNL     1       9.105  10.074  18.740  0.00  0.00    +0.000 A 
ATOM      2  C   UNL     1       9.253  10.245  20.137  0.00  0.00    +0.000 A 
ATOM      3  C   UNL     1       9.772  11.457  20.654  0.00  0.00    +0.000 A 
ATOM      4  C   UNL     1      10.205  12.402  19.735  0.00  0.00    +0.000 A 
ATOM      5  C   UNL     1      10.343  12.054  18.416  0.00  0.00    +0.000 A 
ATOM      6  C   UNL     1       9.712  10.972  17.869  0.00  0.00    +0.000 A 
ATOM      7  C   UNL     1      10.762  13.200  17.658  0.00  0.00    +0.000 C 
ATOM      8  O   UNL     1      11.307  13.127  16.577  0.00  0.00    +0.000 OA
ATOM      9  N   UNL     1      10.365  14.266  18.407  0.00  0.00    +0.000 N 
ATOM     10  C   UNL     1      10.202  13.901  19.712  0.00  0.00    +0.000 C 
ATOM     11  O   UNL     1       9.968  14.580  20.690  0.00  0.00    +0.000 OA
ENDROOT
BRANCH   1  12
ATOM     12  C   UNL     1       8.219   9.033  18.153  0.00  0.00    +0.000 C 
ATOM     13  O   UNL     1       7.470   9.181  17.206  0.00  0.00    +0.000 OA
BRANCH  12  14
ATOM     14  O   UNL     1       8.413   7.889  18.849  0.00  0.00    +0.000 OA
BRANCH  14  15
ATOM     15  C   UNL     1       8.155   6.631  18.228  0.00  0.00    +0.000 C 
BRANCH  15  17
ATOM     16  N   UNL     1       5.803   6.074  17.937  0.00  0.00    +0.000 N 
ATOM     17  C   UNL     1       6.906   5.943  18.766  0.00  0.00    +0.000 C 
ATOM     18  O   UNL     1       6.940   5.366  19.854  0.00  0.00    +0.000 OA
ATOM     19  H   UNL     1       5.924   6.662  17.114  0.00  0.00    +0.000 HD
BRANCH  16  26
ATOM     20  C   UNL     1       4.897   3.792  16.342  0.00  0.00    +0.000 C 
ATOM     21  C   UNL     1       4.049   4.467  17.394  0.00  0.00    +0.000 A 
ATOM     22  C   UNL     1       2.747   3.983  17.591  0.00  0.00    +0.000 A 
ATOM     23  C   UNL     1       1.905   4.551  18.540  0.00  0.00    +0.000 A 
ATOM     24  C   UNL     1       2.361   5.608  19.315  0.00  0.00    +0.000 A 
ATOM     25  C   UNL     1       3.653   6.104  19.127  0.00  0.00    +0.000 A 
ATOM     26  C   UNL     1       4.505   5.563  18.157  0.00  0.00    +0.000 A 
ENDBRANCH  16  26
ENDBRANCH  15  17
ENDBRANCH  14  15
ENDBRANCH  12  14
ENDBRANCH   1  12
BRANCH   9  27
ATOM     27  C   UNL     1      10.126  15.544  17.742  0.00  0.00    +0.000 C 
BRANCH  27  28
ATOM     28  C   UNL     1       8.831  16.295  18.237  0.00  0.00    +0.000 C 
BRANCH  28  29
ATOM     29  C   UNL     1       7.529  15.631  17.738  0.00  0.00    +0.000 C 
BRANCH  29  30
ATOM     30  N   UNL     1       6.647  14.938  18.699  0.00  0.00    +0.000 NA
ATOM     31  C   UNL     1       5.364  14.580  18.036  0.00  0.00    +0.000 C 
ATOM     32  C   UNL     1       4.386  15.761  17.918  0.00  0.00    +0.000 C 
ATOM     33  O   UNL     1       4.031  16.248  19.214  0.00  0.00    +0.000 OA
ATOM     34  C   UNL     1       5.196  16.686  19.925  0.00  0.00    +0.000 C 
ATOM     35  C   UNL     1       6.310  15.613  19.974  0.00  0.00    +0.000 C 
ENDBRANCH  29  30
ENDBRANCH  28  29
ENDBRANCH  27  28
ENDBRANCH   9  27
TORSDOF 9
ENDMDL
MODEL 7
REMARK VINA RESULT:      -8.2      2.066      2.561
REMARK  Name = 
REMARK  10 active torsions:
REMARK  status: ('A' for Active; 'I' for Inactive)
REMARK    1  A    between atoms: C_1  and  C_2
REMARK    2  A    between atoms: C_7  and  N_8
REMARK    3  A    between atoms: C_9  and  C_11
REMARK    4  A    between atoms: C_11  and  O_12
REMARK    5  A    between atoms: O_12  and  C_13
REMARK    6  A    between atoms: C_13  and  C_15
REMARK    7  A    between atoms: N_23  and  C_24
REMARK    8  A    between atoms: C_24  and  C_25
REMARK    9  A    between atoms: C_25  and  C_26
REMARK   10  A    between atoms: C_26  and  N_27
REMARK                            x       y       z     vdW  Elec       q    Type
REMARK                         _______ _______ _______ _____ _____    ______ ____
ROOT
ATOM      1  C   UNL     1       1.880   4.272  19.264  0.00  0.00    +0.000 A 
ATOM      2  C   UNL     1       1.812   4.482  20.663  0.00  0.00    +0.000 A 
ATOM      3  C   UNL     1       1.848   5.796  21.187  0.00  0.00    +0.000 A 
ATOM      4  C   UNL     1       2.045   6.832  20.286  0.00  0.00    +0.000 A 
ATOM      5  C   UNL     1       2.431   6.549  19.000  0.00  0.00    +0.000 A 
ATOM      6  C   UNL     1       2.251   5.320  18.430  0.00  0.00    +0.000 A 
ATOM      7  C   UNL     1       2.533   7.770  18.250  0.00  0.00    +0.000 C 
ATOM      8  O   UNL     1       3.185   7.881  17.234  0.00  0.00    +0.000 OA
ATOM      9  N   UNL     1       1.730   8.646  18.916  0.00  0.00    +0.000 N 
ATOM     10  C   UNL     1       1.555   8.247  20.210  0.00  0.00    +0.000 C 
ATOM     11  O   UNL     1       1.008   8.811  21.134  0.00  0.00    +0.000 OA
ENDROOT
BRANCH   1  12
ATOM     12  C   UNL     1       1.452   2.999  18.627  0.00  0.00    +0.000 C 
ATOM     13  O   UNL     1       0.499   2.854  17.885  0.00  0.00    +0.000 OA
BRANCH  12  14
ATOM     14  O   UNL     1       2.326   2.036  19.003  0.00  0.00    +0.000 OA
BRANCH  14  15
ATOM     15  C   UNL     1       3.571   1.905  18.321  0.00  0.00    +0.000 C 
BRANCH  15  17
ATOM     16  N   UNL     1       5.022   3.805  17.858  0.00  0.00    +0.000 N 
ATOM     17  C   UNL     1       4.630   2.883  18.816  0.00  0.00    +0.000 C 
ATOM     18  O   UNL     1       5.069   2.786  19.963  0.00  0.00    +0.000 OA
ATOM     19  H   UNL     1       4.623   3.687  16.928  0.00  0.00    +0.000 HD
BRANCH  16  26
ATOM     20  C   UNL     1       5.373   5.730  15.680  0.00  0.00    +0.000 C 
ATOM     21  C   UNL     1       6.172   5.761  16.961  0.00  0.00    +0.000 A 
ATOM     22  C   UNL     1       7.152   6.756  17.093  0.00  0.00    +0.000 A 
ATOM     23  C   UNL     1       7.929   6.851  18.243  0.00  0.00    +0.000 A 
ATOM     24  C   UNL     1       7.725   5.955  19.283  0.00  0.00    +0.000 A 
ATOM     25  C   UNL     1       6.756   4.956  19.163  0.00  0.00    +0.000 A 
ATOM     26  C   UNL     1       5.984   4.828  18.002  0.00  0.00    +0.000 A 
ENDBRANCH  16  26
ENDBRANCH  15  17
ENDBRANCH  14  15
ENDBRANCH  12  14
ENDBRANCH   1  12
BRANCH   9  27
ATOM     27  C   UNL     1       1.161   9.775  18.187  0.00  0.00    +0.000 C 
BRANCH  27  28
ATOM     28  C   UNL     1      -0.107  10.413  18.874  0.00  0.00    +0.000 C 
BRANCH  28  29
ATOM     29  C   UNL     1      -0.217  11.934  18.630  0.00  0.00    +0.000 C 
BRANCH  29  30
ATOM     30  N   UNL     1       0.410  12.874  19.579  0.00  0.00    +0.000 NA
ATOM     31  C   UNL     1      -0.500  13.105  20.734  0.00  0.00    +0.000 C 
ATOM     32  C   UNL     1      -1.637  14.096  20.430  0.00  0.00    +0.000 C 
ATOM     33  O   UNL     1      -1.105  15.378  20.093  0.00  0.00    +0.000 OA
ATOM     34  C   UNL     1      -0.256  15.286  18.941  0.00  0.00    +0.000 C 
ATOM     35  C   UNL     1       0.841  14.204  19.087  0.00  0.00    +0.000 C 
ENDBRANCH  29  30
ENDBRANCH  28  29
ENDBRANCH  27  28
ENDBRANCH   9  27
TORSDOF 9
ENDMDL
MODEL 8
REMARK VINA RESULT:      -8.1      2.207      2.766
REMARK  Name = 
REMARK  10 active torsions:
REMARK  status: ('A' for Active; 'I' for Inactive)
REMARK    1  A    between atoms: C_1  and  C_2
REMARK    2  A    between atoms: C_7  and  N_8
REMARK    3  A    between atoms: C_9  and  C_11
REMARK    4  A    between atoms: C_11  and  O_12
REMARK    5  A    between atoms: O_12  and  C_13
REMARK    6  A    between atoms: C_13  and  C_15
REMARK    7  A    between atoms: N_23  and  C_24
REMARK    8  A    between atoms: C_24  and  C_25
REMARK    9  A    between atoms: C_25  and  C_26
REMARK   10  A    between atoms: C_26  and  N_27
REMARK                            x       y       z     vdW  Elec       q    Type
REMARK                         _______ _______ _______ _____ _____    ______ ____
ROOT
ATOM      1  C   UNL     1       1.911   4.915  19.044  0.00  0.00    +0.000 A 
ATOM      2  C   UNL     1       1.893   4.976  20.458  0.00  0.00    +0.000 A 
ATOM      3  C   UNL     1       1.805   6.227  21.115  0.00  0.00    +0.000 A 
ATOM      4  C   UNL     1       1.832   7.362  20.318  0.00  0.00    +0.000 A 
ATOM      5  C   UNL     1       2.179   7.257  18.995  0.00  0.00    +0.000 A 
ATOM      6  C   UNL     1       2.112   6.077  18.308  0.00  0.00    +0.000 A 
ATOM      7  C   UNL     1       2.099   8.549  18.373  0.00  0.00    +0.000 C 
ATOM      8  O   UNL     1       2.679   8.837  17.348  0.00  0.00    +0.000 OA
ATOM      9  N   UNL     1       1.238   9.251  19.159  0.00  0.00    +0.000 N 
ATOM     10  C   UNL     1       1.179   8.709  20.411  0.00  0.00    +0.000 C 
ATOM     11  O   UNL     1       0.620   9.109  21.410  0.00  0.00    +0.000 OA
ENDROOT
BRANCH   1  12
ATOM     12  C   UNL     1       1.599   3.668  18.295  0.00  0.00    +0.000 C 
ATOM     13  O   UNL     1       1.234   3.600  17.137  0.00  0.00    +0.000 OA
BRANCH  12  14
ATOM     14  O   UNL     1       1.815   2.624  19.128  0.00  0.00    +0.000 OA
BRANCH  14  15
ATOM     15  C   UNL     1       2.979   1.816  18.963  0.00  0.00    +0.000 C 
BRANCH  15  17
ATOM     16  N   UNL     1       4.493   3.565  18.202  0.00  0.00    +0.000 N 
ATOM     17  C   UNL     1       4.277   2.590  19.164  0.00  0.00    +0.000 C 
ATOM     18  O   UNL     1       5.026   2.305  20.100  0.00  0.00    +0.000 OA
ATOM     19  H   UNL     1       3.816   3.608  17.443  0.00  0.00    +0.000 HD
BRANCH  16  26
ATOM     20  C   UNL     1       5.639   4.108  15.563  0.00  0.00    +0.000 C 
ATOM     21  C   UNL     1       6.169   4.707  16.844  0.00  0.00    +0.000 A 
ATOM     22  C   UNL     1       7.289   5.547  16.756  0.00  0.00    +0.000 A 
ATOM     23  C   UNL     1       7.835   6.136  17.891  0.00  0.00    +0.000 A 
ATOM     24  C   UNL     1       7.258   5.900  19.131  0.00  0.00    +0.000 A 
ATOM     25  C   UNL     1       6.146   5.062  19.234  0.00  0.00    +0.000 A 
ATOM     26  C   UNL     1       5.599   4.437  18.106  0.00  0.00    +0.000 A 
ENDBRANCH  16  26
ENDBRANCH  15  17
ENDBRANCH  14  15
ENDBRANCH  12  14
ENDBRANCH   1  12
BRANCH   9  27
ATOM     27  C   UNL     1       0.504  10.370  18.576  0.00  0.00    +0.000 C 
BRANCH  27  28
ATOM     28  C   UNL     1       1.035  11.788  19.015  0.00  0.00    +0.000 C 
BRANCH  28  29
ATOM     29  C   UNL     1      -0.092  12.723  19.505  0.00  0.00    +0.000 C 
BRANCH  29  30
ATOM     30  N   UNL     1      -1.110  12.211  20.444  0.00  0.00    +0.000 NA
ATOM     31  C   UNL     1      -2.366  12.997  20.302  0.00  0.00    +0.000 C 
ATOM     32  C   UNL     1      -2.321  14.357  21.019  0.00  0.00    +0.000 C 
ATOM     33  O   UNL     1      -2.133  14.177  22.423  0.00  0.00    +0.000 OA
ATOM     34  C   UNL     1      -0.907  13.481  22.683  0.00  0.00    +0.000 C 
ATOM     35  C   UNL     1      -0.785  12.158  21.889  0.00  0.00    +0.000 C 
ENDBRANCH  29  30
ENDBRANCH  28  29
ENDBRANCH  27  28
ENDBRANCH   9  27
TORSDOF 9
ENDMDL
MODEL 9
REMARK VINA RESULT:      -8.1      3.713      5.709
REMARK  Name = 
REMARK  10 active torsions:
REMARK  status: ('A' for Active; 'I' for Inactive)
REMARK    1  A    between atoms: C_1  and  C_2
REMARK    2  A    between atoms: C_7  and  N_8
REMARK    3  A    between atoms: C_9  and  C_11
REMARK    4  A    between atoms: C_11  and  O_12
REMARK    5  A    between atoms: O_12  and  C_13
REMARK    6  A    between atoms: C_13  and  C_15
REMARK    7  A    between atoms: N_23  and  C_24
REMARK    8  A    between atoms: C_24  and  C_25
REMARK    9  A    between atoms: C_25  and  C_26
REMARK   10  A    between atoms: C_26  and  N_27
REMARK                            x       y       z     vdW  Elec       q    Type
REMARK                         _______ _______ _______ _____ _____    ______ ____
ROOT
ATOM      1  C   UNL     1       5.897   5.763  17.809  0.00  0.00    +0.000 A 
ATOM      2  C   UNL     1       5.460   6.535  16.706  0.00  0.00    +0.000 A 
ATOM      3  C   UNL     1       4.171   7.121  16.716  0.00  0.00    +0.000 A 
ATOM      4  C   UNL     1       3.350   6.825  17.794  0.00  0.00    +0.000 A 
ATOM      5  C   UNL     1       3.699   5.820  18.659  0.00  0.00    +0.000 A 
ATOM      6  C   UNL     1       4.980   5.357  18.771  0.00  0.00    +0.000 A 
ATOM      7  C   UNL     1       2.722   5.726  19.708  0.00  0.00    +0.000 C 
ATOM      8  O   UNL     1       2.558   4.735  20.386  0.00  0.00    +0.000 OA
ATOM      9  N   UNL     1       2.140   6.957  19.739  0.00  0.00    +0.000 N 
ATOM     10  C   UNL     1       2.308   7.598  18.546  0.00  0.00    +0.000 C 
ATOM     11  O   UNL     1       1.847   8.649  18.152  0.00  0.00    +0.000 OA
ENDROOT
BRANCH   1  12
ATOM     12  C   UNL     1       7.334   5.464  18.053  0.00  0.00    +0.000 C 
ATOM     13  O   UNL     1       7.794   4.392  18.398  0.00  0.00    +0.000 OA
BRANCH  12  14
ATOM     14  O   UNL     1       8.037   6.593  17.803  0.00  0.00    +0.000 OA
BRANCH  14  15
ATOM     15  C   UNL     1       8.376   7.468  18.876  0.00  0.00    +0.000 C 
BRANCH  15  17
ATOM     16  N   UNL     1       9.394   9.660  19.169  0.00  0.00    +0.000 N 
ATOM     17  C   UNL     1       8.457   8.930  18.454  0.00  0.00    +0.000 C 
ATOM     18  O   UNL     1       7.712   9.358  17.571  0.00  0.00    +0.000 OA
ATOM     19  H   UNL     1       9.863   9.172  19.929  0.00  0.00    +0.000 HD
BRANCH  16  26
ATOM     20  C   UNL     1       8.967  11.452  21.444  0.00  0.00    +0.000 C 
ATOM     21  C   UNL     1       9.493  11.911  20.105  0.00  0.00    +0.000 A 
ATOM     22  C   UNL     1       9.764  13.279  19.946  0.00  0.00    +0.000 A 
ATOM     23  C   UNL     1      10.252  13.779  18.743  0.00  0.00    +0.000 A 
ATOM     24  C   UNL     1      10.485  12.911  17.685  0.00  0.00    +0.000 A 
ATOM     25  C   UNL     1      10.215  11.549  17.827  0.00  0.00    +0.000 A 
ATOM     26  C   UNL     1       9.698  11.031  19.022  0.00  0.00    +0.000 A 
ENDBRANCH  16  26
ENDBRANCH  15  17
ENDBRANCH  14  15
ENDBRANCH  12  14
ENDBRANCH   1  12
BRANCH   9  27
ATOM     27  C   UNL     1       1.516   7.410  20.979  0.00  0.00    +0.000 C 
BRANCH  27  28
ATOM     28  C   UNL     1       1.498   8.976  21.157  0.00  0.00    +0.000 C 
BRANCH  28  29
ATOM     29  C   UNL     1       0.088   9.581  20.985  0.00  0.00    +0.000 C 
BRANCH  29  30
ATOM     30  N   UNL     1      -0.094  11.045  21.057  0.00  0.00    +0.000 NA
ATOM     31  C   UNL     1      -1.215  11.457  20.169  0.00  0.00    +0.000 C 
ATOM     32  C   UNL     1      -0.825  11.530  18.683  0.00  0.00    +0.000 C 
ATOM     33  O   UNL     1       0.204  12.501  18.484  0.00  0.00    +0.000 OA
ATOM     34  C   UNL     1       1.370  12.166  19.249  0.00  0.00    +0.000 C 
ATOM     35  C   UNL     1       1.058  11.923  20.745  0.00  0.00    +0.000 C 
ENDBRANCH  29  30
ENDBRANCH  28  29
ENDBRANCH  27  28
ENDBRANCH   9  27
TORSDOF 9
ENDMDL
