MODEL 1
REMARK VINA RESULT:      -9.2      0.000      0.000
REMARK  Name = 
REMARK  4 active torsions:
REMARK  status: ('A' for Active; 'I' for Inactive)
REMARK    1  A    between atoms: C_2  and  C_5
REMARK    2  A    between atoms: C_10  and  C_11
REMARK    3  A    between atoms: C_13  and  C_14
REMARK    4  A    between atoms: C_20  and  C_21
REMARK                            x       y       z     vdW  Elec       q    Type
REMARK                         _______ _______ _______ _____ _____    ______ ____
ROOT
ATOM      1  C   UNL     1       4.194   6.153  17.772  0.00  0.00    +0.000 A 
ATOM      2  C   UNL     1       3.659   5.343  18.806  0.00  0.00    +0.000 A 
ATOM      3  C   UNL     1       2.623   5.736  19.667  0.00  0.00    +0.000 A 
ATOM      4  C   UNL     1       2.231   7.064  19.543  0.00  0.00    +0.000 A 
ATOM      5  N   UNL     1       1.329   7.781  20.268  0.00  0.00    +0.000 N 
ATOM      6  C   UNL     1       1.225   9.046  19.750  0.00  0.00    +0.000 A 
ATOM      7  N   UNL     1       2.039   9.179  18.712  0.00  0.00    +0.000 NA
ATOM      8  C   UNL     1       2.698   7.947  18.583  0.00  0.00    +0.000 A 
ATOM      9  C   UNL     1       3.672   7.470  17.662  0.00  0.00    +0.000 A 
ATOM     10  H   UNL     1       0.795   7.472  21.067  0.00  0.00    +0.000 HD
ENDROOT
BRANCH   6  11
ATOM     11  C   UNL     1       0.291   9.956  20.362  0.00  0.00    +0.000 C 
ATOM     12  N   UNL     1      -0.189   9.627  21.522  0.00  0.00    +0.000 NA
ATOM     13  O   UNL     1      -1.133  10.591  21.897  0.00  0.00    +0.000 OA
ATOM     14  C   UNL     1      -1.008  11.730  21.023  0.00  0.00    +0.000 C 
ATOM     15  C   UNL     1      -2.434  12.206  20.720  0.00  0.00    +0.000 C 
ATOM     16  C   UNL     1      -3.105  12.757  21.978  0.00  0.00    +0.000 C 
ATOM     17  O   UNL     1      -2.314  13.796  22.552  0.00  0.00    +0.000 OA
ATOM     18  C   UNL     1      -1.040  13.316  22.981  0.00  0.00    +0.000 C 
ATOM     19  C   UNL     1      -0.234  12.816  21.785  0.00  0.00    +0.000 C 
ATOM     20  C   UNL     1      -0.267  11.204  19.787  0.00  0.00    +0.000 C 
ENDBRANCH   6  11
BRANCH   1  26
ATOM     21  C   UNL     1       6.567   5.253  17.127  0.00  0.00    +0.000 A 
ATOM     22  C   UNL     1       7.353   4.531  16.183  0.00  0.00    +0.000 A 
ATOM     23  C   UNL     1       6.825   4.047  14.989  0.00  0.00    +0.000 A 
ATOM     24  C   UNL     1       5.503   4.306  14.691  0.00  0.00    +0.000 A 
ATOM     25  C   UNL     1       4.726   5.044  15.589  0.00  0.00    +0.000 A 
ATOM     26  C   UNL     1       5.203   5.515  16.848  0.00  0.00    +0.000 A 
BRANCH  21  28
ATOM     27  F   UNL     1       8.427   4.974  18.623  0.00  0.00    +0.000 F 
ATOM     28  C   UNL     1       7.267   5.664  18.402  0.00  0.00    +0.000 C 
ATOM     29  F   UNL     1       6.517   5.463  19.519  0.00  0.00    +0.000 F 
ATOM     30  F   UNL     1       7.642   6.972  18.408  0.00  0.00    +0.000 F 
ENDBRANCH  21  28
ENDBRANCH   1  26
BRANCH   3  31
ATOM     31  C   UNL     1       1.941   4.774  20.597  0.00  0.00    +0.000 C 
ATOM     32  F   UNL     1       2.400   4.816  21.875  0.00  0.00    +0.000 F 
ATOM     33  F   UNL     1       0.597   4.975  20.660  0.00  0.00    +0.000 F 
ATOM     34  F   UNL     1       2.099   3.483  20.185  0.00  0.00    +0.000 F 
ENDBRANCH   3  31
TORSDOF 4
ENDMDL
MODEL 2
REMARK VINA RESULT:      -9.1      0.934      1.396
REMARK  Name = 
REMARK  4 active torsions:
REMARK  status: ('A' for Active; 'I' for Inactive)
REMARK    1  A    between atoms: C_2  and  C_5
REMARK    2  A    between atoms: C_10  and  C_11
REMARK    3  A    between atoms: C_13  and  C_14
REMARK    4  A    between atoms: C_20  and  C_21
REMARK                            x       y       z     vdW  Elec       q    Type
REMARK                         _______ _______ _______ _____ _____    ______ ____
ROOT
ATOM      1  C   UNL     1       4.216   6.405  17.575  0.00  0.00    +0.000 A 
ATOM      2  C   UNL     1       3.616   5.698  18.648  0.00  0.00    +0.000 A 
ATOM      3  C   UNL     1       2.557   6.187  19.429  0.00  0.00    +0.000 A 
ATOM      4  C   UNL     1       2.209   7.509  19.180  0.00  0.00    +0.000 A 
ATOM      5  N   UNL     1       1.299   8.307  19.804  0.00  0.00    +0.000 N 
ATOM      6  C   UNL     1       1.253   9.526  19.181  0.00  0.00    +0.000 A 
ATOM      7  N   UNL     1       2.112   9.553  18.171  0.00  0.00    +0.000 NA
ATOM      8  C   UNL     1       2.740   8.298  18.172  0.00  0.00    +0.000 A 
ATOM      9  C   UNL     1       3.737   7.721  17.336  0.00  0.00    +0.000 A 
ATOM     10  H   UNL     1       0.724   8.079  20.602  0.00  0.00    +0.000 HD
ENDROOT
BRANCH   6  11
ATOM     11  C   UNL     1       0.322  10.508  19.675  0.00  0.00    +0.000 C 
ATOM     12  N   UNL     1      -0.928  10.355  19.360  0.00  0.00    +0.000 NA
ATOM     13  O   UNL     1      -1.644  11.451  19.858  0.00  0.00    +0.000 OA
ATOM     14  C   UNL     1      -0.806  12.176  20.779  0.00  0.00    +0.000 C 
ATOM     15  C   UNL     1      -1.065  13.666  20.526  0.00  0.00    +0.000 C 
ATOM     16  C   UNL     1      -2.492  14.047  20.920  0.00  0.00    +0.000 C 
ATOM     17  O   UNL     1      -2.745  13.692  22.279  0.00  0.00    +0.000 OA
ATOM     18  C   UNL     1      -2.660  12.282  22.482  0.00  0.00    +0.000 C 
ATOM     19  C   UNL     1      -1.241  11.793  22.202  0.00  0.00    +0.000 C 
ATOM     20  C   UNL     1       0.626  11.741  20.441  0.00  0.00    +0.000 C 
ENDBRANCH   6  11
BRANCH   1  26
ATOM     21  C   UNL     1       6.557   5.313  17.146  0.00  0.00    +0.000 A 
ATOM     22  C   UNL     1       7.358   4.507  16.285  0.00  0.00    +0.000 A 
ATOM     23  C   UNL     1       6.890   4.029  15.064  0.00  0.00    +0.000 A 
ATOM     24  C   UNL     1       5.619   4.378  14.654  0.00  0.00    +0.000 A 
ATOM     25  C   UNL     1       4.833   5.197  15.469  0.00  0.00    +0.000 A 
ATOM     26  C   UNL     1       5.243   5.667  16.752  0.00  0.00    +0.000 A 
BRANCH  21  28
ATOM     27  F   UNL     1       6.372   5.460  19.537  0.00  0.00    +0.000 F 
ATOM     28  C   UNL     1       7.183   5.707  18.464  0.00  0.00    +0.000 C 
ATOM     29  F   UNL     1       7.484   7.030  18.545  0.00  0.00    +0.000 F 
ATOM     30  F   UNL     1       8.327   5.023  18.738  0.00  0.00    +0.000 F 
ENDBRANCH  21  28
ENDBRANCH   1  26
BRANCH   3  31
ATOM     31  C   UNL     1       1.810   5.323  20.404  0.00  0.00    +0.000 C 
ATOM     32  F   UNL     1       1.019   4.384  19.822  0.00  0.00    +0.000 F 
ATOM     33  F   UNL     1       2.639   4.659  21.254  0.00  0.00    +0.000 F 
ATOM     34  F   UNL     1       0.987   6.065  21.200  0.00  0.00    +0.000 F 
ENDBRANCH   3  31
TORSDOF 4
ENDMDL
MODEL 3
REMARK VINA RESULT:      -9.1      1.066      1.327
REMARK  Name = 
REMARK  4 active torsions:
REMARK  status: ('A' for Active; 'I' for Inactive)
REMARK    1  A    between atoms: C_2  and  C_5
REMARK    2  A    between atoms: C_10  and  C_11
REMARK    3  A    between atoms: C_13  and  C_14
REMARK    4  A    between atoms: C_20  and  C_21
REMARK                            x       y       z     vdW  Elec       q    Type
REMARK                         _______ _______ _______ _____ _____    ______ ____
ROOT
ATOM      1  C   UNL     1       4.200   6.434  17.566  0.00  0.00    +0.000 A 
ATOM      2  C   UNL     1       3.595   5.766  18.661  0.00  0.00    +0.000 A 
ATOM      3  C   UNL     1       2.534   6.281  19.419  0.00  0.00    +0.000 A 
ATOM      4  C   UNL     1       2.186   7.594  19.123  0.00  0.00    +0.000 A 
ATOM      5  N   UNL     1       1.274   8.413  19.715  0.00  0.00    +0.000 N 
ATOM      6  C   UNL     1       1.230   9.610  19.049  0.00  0.00    +0.000 A 
ATOM      7  N   UNL     1       2.094   9.601  18.043  0.00  0.00    +0.000 NA
ATOM      8  C   UNL     1       2.722   8.347  18.090  0.00  0.00    +0.000 A 
ATOM      9  C   UNL     1       3.722   7.742  17.279  0.00  0.00    +0.000 A 
ATOM     10  H   UNL     1       0.696   8.213  20.518  0.00  0.00    +0.000 HD
ENDROOT
BRANCH   6  11
ATOM     11  C   UNL     1       0.297  10.608  19.505  0.00  0.00    +0.000 C 
ATOM     12  N   UNL     1       0.308  10.900  20.770  0.00  0.00    +0.000 NA
ATOM     13  O   UNL     1      -0.722  11.816  21.018  0.00  0.00    +0.000 OA
ATOM     14  C   UNL     1      -1.208  12.323  19.760  0.00  0.00    +0.000 C 
ATOM     15  C   UNL     1      -2.734  12.421  19.889  0.00  0.00    +0.000 C 
ATOM     16  C   UNL     1      -3.128  13.485  20.913  0.00  0.00    +0.000 C 
ATOM     17  O   UNL     1      -2.547  14.743  20.573  0.00  0.00    +0.000 OA
ATOM     18  C   UNL     1      -1.120  14.694  20.608  0.00  0.00    +0.000 C 
ATOM     19  C   UNL     1      -0.600  13.719  19.556  0.00  0.00    +0.000 C 
ATOM     20  C   UNL     1      -0.751  11.298  18.715  0.00  0.00    +0.000 C 
ENDBRANCH   6  11
BRANCH   1  26
ATOM     21  C   UNL     1       6.551   5.349  17.176  0.00  0.00    +0.000 A 
ATOM     22  C   UNL     1       7.355   4.511  16.350  0.00  0.00    +0.000 A 
ATOM     23  C   UNL     1       6.885   3.968  15.157  0.00  0.00    +0.000 A 
ATOM     24  C   UNL     1       5.608   4.281  14.739  0.00  0.00    +0.000 A 
ATOM     25  C   UNL     1       4.818   5.131  15.518  0.00  0.00    +0.000 A 
ATOM     26  C   UNL     1       5.230   5.668  16.773  0.00  0.00    +0.000 A 
BRANCH  21  28
ATOM     27  F   UNL     1       7.463   7.152  18.475  0.00  0.00    +0.000 F 
ATOM     28  C   UNL     1       7.180   5.815  18.469  0.00  0.00    +0.000 C 
ATOM     29  F   UNL     1       8.361   5.201  18.747  0.00  0.00    +0.000 F 
ATOM     30  F   UNL     1       6.375   5.631  19.551  0.00  0.00    +0.000 F 
ENDBRANCH  21  28
ENDBRANCH   1  26
BRANCH   3  31
ATOM     31  C   UNL     1       1.783   5.452  20.421  0.00  0.00    +0.000 C 
ATOM     32  F   UNL     1       0.930   6.164  21.204  0.00  0.00    +0.000 F 
ATOM     33  F   UNL     1       1.045   4.470  19.837  0.00  0.00    +0.000 F 
ATOM     34  F   UNL     1       2.631   4.813  21.277  0.00  0.00    +0.000 F 
ENDBRANCH   3  31
TORSDOF 4
ENDMDL
MODEL 4
REMARK VINA RESULT:      -8.9      0.898      1.320
REMARK  Name = 
REMARK  4 active torsions:
REMARK  status: ('A' for Active; 'I' for Inactive)
REMARK    1  A    between atoms: C_2  and  C_5
REMARK    2  A    between atoms: C_10  and  C_11
REMARK    3  A    between atoms: C_13  and  C_14
REMARK    4  A    between atoms: C_20  and  C_21
REMARK                            x       y       z     vdW  Elec       q    Type
REMARK                         _______ _______ _______ _____ _____    ______ ____
ROOT
ATOM      1  C   UNL     1       4.266   6.032  17.436  0.00  0.00    +0.000 A 
ATOM      2  C   UNL     1       3.746   5.223  18.479  0.00  0.00    +0.000 A 
ATOM      3  C   UNL     1       2.788   5.648  19.412  0.00  0.00    +0.000 A 
ATOM      4  C   UNL     1       2.468   7.000  19.348  0.00  0.00    +0.000 A 
ATOM      5  N   UNL     1       1.655   7.745  20.146  0.00  0.00    +0.000 N 
ATOM      6  C   UNL     1       1.595   9.029  19.670  0.00  0.00    +0.000 A 
ATOM      7  N   UNL     1       2.353   9.147  18.588  0.00  0.00    +0.000 NA
ATOM      8  C   UNL     1       2.929   7.883  18.386  0.00  0.00    +0.000 A 
ATOM      9  C   UNL     1       3.817   7.380  17.394  0.00  0.00    +0.000 A 
ATOM     10  H   UNL     1       1.152   7.443  20.968  0.00  0.00    +0.000 HD
ENDROOT
BRANCH   6  11
ATOM     11  C   UNL     1       0.756   9.972  20.362  0.00  0.00    +0.000 C 
ATOM     12  N   UNL     1       1.199  11.187  20.483  0.00  0.00    +0.000 NA
ATOM     13  O   UNL     1       0.283  11.914  21.254  0.00  0.00    +0.000 OA
ATOM     14  C   UNL     1      -0.935  11.153  21.371  0.00  0.00    +0.000 C 
ATOM     15  C   UNL     1      -1.425  11.334  22.814  0.00  0.00    +0.000 C 
ATOM     16  C   UNL     1      -1.846  12.781  23.070  0.00  0.00    +0.000 C 
ATOM     17  O   UNL     1      -2.834  13.188  22.124  0.00  0.00    +0.000 OA
ATOM     18  C   UNL     1      -2.327  13.172  20.790  0.00  0.00    +0.000 C 
ATOM     19  C   UNL     1      -1.951  11.749  20.385  0.00  0.00    +0.000 C 
ATOM     20  C   UNL     1      -0.536   9.710  21.041  0.00  0.00    +0.000 C 
ENDBRANCH   6  11
BRANCH   1  26
ATOM     21  C   UNL     1       6.513   4.940  16.652  0.00  0.00    +0.000 A 
ATOM     22  C   UNL     1       7.194   4.216  15.631  0.00  0.00    +0.000 A 
ATOM     23  C   UNL     1       6.589   3.885  14.421  0.00  0.00    +0.000 A 
ATOM     24  C   UNL     1       5.297   4.306  14.185  0.00  0.00    +0.000 A 
ATOM     25  C   UNL     1       4.625   5.048  15.160  0.00  0.00    +0.000 A 
ATOM     26  C   UNL     1       5.179   5.365  16.436  0.00  0.00    +0.000 A 
BRANCH  21  28
ATOM     27  F   UNL     1       8.387   4.376  18.045  0.00  0.00    +0.000 F 
ATOM     28  C   UNL     1       7.282   5.173  17.932  0.00  0.00    +0.000 C 
ATOM     29  F   UNL     1       6.552   4.928  19.053  0.00  0.00    +0.000 F 
ATOM     30  F   UNL     1       7.763   6.441  18.042  0.00  0.00    +0.000 F 
ENDBRANCH  21  28
ENDBRANCH   1  26
BRANCH   3  31
ATOM     31  C   UNL     1       2.106   4.699  20.356  0.00  0.00    +0.000 C 
ATOM     32  F   UNL     1       0.750   4.726  20.287  0.00  0.00    +0.000 F 
ATOM     33  F   UNL     1       2.480   3.407  20.155  0.00  0.00    +0.000 F 
ATOM     34  F   UNL     1       2.421   4.974  21.655  0.00  0.00    +0.000 F 
ENDBRANCH   3  31
TORSDOF 4
ENDMDL
MODEL 5
REMARK VINA RESULT:      -8.7      0.860      1.293
REMARK  Name = 
REMARK  4 active torsions:
REMARK  status: ('A' for Active; 'I' for Inactive)
REMARK    1  A    between atoms: C_2  and  C_5
REMARK    2  A    between atoms: C_10  and  C_11
REMARK    3  A    between atoms: C_13  and  C_14
REMARK    4  A    between atoms: C_20  and  C_21
REMARK                            x       y       z     vdW  Elec       q    Type
REMARK                         _______ _______ _______ _____ _____    ______ ____
ROOT
ATOM      1  C   UNL     1       4.222   6.155  17.541  0.00  0.00    +0.000 A 
ATOM      2  C   UNL     1       3.641   5.375  18.573  0.00  0.00    +0.000 A 
ATOM      3  C   UNL     1       2.649   5.833  19.453  0.00  0.00    +0.000 A 
ATOM      4  C   UNL     1       2.356   7.188  19.351  0.00  0.00    +0.000 A 
ATOM      5  N   UNL     1       1.520   7.962  20.097  0.00  0.00    +0.000 N 
ATOM      6  C   UNL     1       1.505   9.237  19.595  0.00  0.00    +0.000 A 
ATOM      7  N   UNL     1       2.313   9.322  18.547  0.00  0.00    +0.000 NA
ATOM      8  C   UNL     1       2.876   8.046  18.395  0.00  0.00    +0.000 A 
ATOM      9  C   UNL     1       3.800   7.509  17.454  0.00  0.00    +0.000 A 
ATOM     10  H   UNL     1       0.975   7.683  20.899  0.00  0.00    +0.000 HD
ENDROOT
BRANCH   6  11
ATOM     11  C   UNL     1       0.651  10.207  20.230  0.00  0.00    +0.000 C 
ATOM     12  N   UNL     1       1.075  11.434  20.278  0.00  0.00    +0.000 NA
ATOM     13  O   UNL     1       0.149  12.191  21.006  0.00  0.00    +0.000 OA
ATOM     14  C   UNL     1      -1.058  11.420  21.169  0.00  0.00    +0.000 C 
ATOM     15  C   UNL     1      -1.550  11.678  22.599  0.00  0.00    +0.000 C 
ATOM     16  C   UNL     1      -1.994  13.131  22.769  0.00  0.00    +0.000 C 
ATOM     17  O   UNL     1      -2.987  13.467  21.802  0.00  0.00    +0.000 OA
ATOM     18  C   UNL     1      -2.480  13.379  20.470  0.00  0.00    +0.000 C 
ATOM     19  C   UNL     1      -2.082  11.941  20.150  0.00  0.00    +0.000 C 
ATOM     20  C   UNL     1      -0.637   9.966  20.925  0.00  0.00    +0.000 C 
ENDBRANCH   6  11
BRANCH   1  26
ATOM     21  C   UNL     1       6.500   5.054  16.866  0.00  0.00    +0.000 A 
ATOM     22  C   UNL     1       7.216   4.292  15.897  0.00  0.00    +0.000 A 
ATOM     23  C   UNL     1       6.648   3.903  14.688  0.00  0.00    +0.000 A 
ATOM     24  C   UNL     1       5.358   4.299  14.399  0.00  0.00    +0.000 A 
ATOM     25  C   UNL     1       4.653   5.077  15.321  0.00  0.00    +0.000 A 
ATOM     26  C   UNL     1       5.169   5.455  16.597  0.00  0.00    +0.000 A 
BRANCH  21  28
ATOM     27  F   UNL     1       7.572   6.669  18.287  0.00  0.00    +0.000 F 
ATOM     28  C   UNL     1       7.231   5.351  18.155  0.00  0.00    +0.000 C 
ATOM     29  F   UNL     1       8.401   4.668  18.283  0.00  0.00    +0.000 F 
ATOM     30  F   UNL     1       6.491   5.077  19.264  0.00  0.00    +0.000 F 
ENDBRANCH  21  28
ENDBRANCH   1  26
BRANCH   3  31
ATOM     31  C   UNL     1       1.909   4.913  20.381  0.00  0.00    +0.000 C 
ATOM     32  F   UNL     1       2.580   4.619  21.525  0.00  0.00    +0.000 F 
ATOM     33  F   UNL     1       0.702   5.415  20.758  0.00  0.00    +0.000 F 
ATOM     34  F   UNL     1       1.638   3.716  19.787  0.00  0.00    +0.000 F 
ENDBRANCH   3  31
TORSDOF 4
ENDMDL
MODEL 6
REMARK VINA RESULT:      -8.7      0.998      1.481
REMARK  Name = 
REMARK  4 active torsions:
REMARK  status: ('A' for Active; 'I' for Inactive)
REMARK    1  A    between atoms: C_2  and  C_5
REMARK    2  A    between atoms: C_10  and  C_11
REMARK    3  A    between atoms: C_13  and  C_14
REMARK    4  A    between atoms: C_20  and  C_21
REMARK                            x       y       z     vdW  Elec       q    Type
REMARK                         _______ _______ _______ _____ _____    ______ ____
ROOT
ATOM      1  C   UNL     1       4.073   6.387  17.584  0.00  0.00    +0.000 A 
ATOM      2  C   UNL     1       3.532   5.619  18.646  0.00  0.00    +0.000 A 
ATOM      3  C   UNL     1       2.521   6.061  19.513  0.00  0.00    +0.000 A 
ATOM      4  C   UNL     1       2.163   7.396  19.362  0.00  0.00    +0.000 A 
ATOM      5  N   UNL     1       1.292   8.155  20.082  0.00  0.00    +0.000 N 
ATOM      6  C   UNL     1       1.215   9.409  19.535  0.00  0.00    +0.000 A 
ATOM      7  N   UNL     1       2.016   9.494  18.481  0.00  0.00    +0.000 NA
ATOM      8  C   UNL     1       2.639   8.242  18.374  0.00  0.00    +0.000 A 
ATOM      9  C   UNL     1       3.586   7.716  17.450  0.00  0.00    +0.000 A 
ATOM     10  H   UNL     1       0.763   7.880  20.896  0.00  0.00    +0.000 HD
ENDROOT
BRANCH   6  11
ATOM     11  C   UNL     1       0.316  10.359  20.137  0.00  0.00    +0.000 C 
ATOM     12  N   UNL     1      -0.942  10.267  19.830  0.00  0.00    +0.000 NA
ATOM     13  O   UNL     1      -1.623  11.326  20.444  0.00  0.00    +0.000 OA
ATOM     14  C   UNL     1      -0.753  11.938  21.416  0.00  0.00    +0.000 C 
ATOM     15  C   UNL     1      -0.979  13.452  21.312  0.00  0.00    +0.000 C 
ATOM     16  C   UNL     1      -2.390  13.826  21.766  0.00  0.00    +0.000 C 
ATOM     17  O   UNL     1      -2.631  13.348  23.088  0.00  0.00    +0.000 OA
ATOM     18  C   UNL     1      -2.578  11.923  23.154  0.00  0.00    +0.000 C 
ATOM     19  C   UNL     1      -1.177  11.430  22.803  0.00  0.00    +0.000 C 
ATOM     20  C   UNL     1       0.662  11.506  21.013  0.00  0.00    +0.000 C 
ENDBRANCH   6  11
BRANCH   1  26
ATOM     21  C   UNL     1       6.447   5.922  16.581  0.00  0.00    +0.000 A 
ATOM     22  C   UNL     1       7.243   5.097  15.736  0.00  0.00    +0.000 A 
ATOM     23  C   UNL     1       6.703   4.051  14.991  0.00  0.00    +0.000 A 
ATOM     24  C   UNL     1       5.343   3.829  15.044  0.00  0.00    +0.000 A 
ATOM     25  C   UNL     1       4.540   4.652  15.839  0.00  0.00    +0.000 A 
ATOM     26  C   UNL     1       5.050   5.699  16.663  0.00  0.00    +0.000 A 
BRANCH  21  28
ATOM     27  F   UNL     1       6.452   8.118  17.556  0.00  0.00    +0.000 F 
ATOM     28  C   UNL     1       7.185   6.979  17.371  0.00  0.00    +0.000 C 
ATOM     29  F   UNL     1       8.337   7.391  16.777  0.00  0.00    +0.000 F 
ATOM     30  F   UNL     1       7.511   6.575  18.629  0.00  0.00    +0.000 F 
ENDBRANCH  21  28
ENDBRANCH   1  26
BRANCH   3  31
ATOM     31  C   UNL     1       1.827   5.141  20.476  0.00  0.00    +0.000 C 
ATOM     32  F   UNL     1       0.590   5.559  20.851  0.00  0.00    +0.000 F 
ATOM     33  F   UNL     1       1.678   3.883  19.981  0.00  0.00    +0.000 F 
ATOM     34  F   UNL     1       2.539   4.998  21.631  0.00  0.00    +0.000 F 
ENDBRANCH   3  31
TORSDOF 4
ENDMDL
MODEL 7
REMARK VINA RESULT:      -8.6      3.501      4.321
REMARK  Name = 
REMARK  4 active torsions:
REMARK  status: ('A' for Active; 'I' for Inactive)
REMARK    1  A    between atoms: C_2  and  C_5
REMARK    2  A    between atoms: C_10  and  C_11
REMARK    3  A    between atoms: C_13  and  C_14
REMARK    4  A    between atoms: C_20  and  C_21
REMARK                            x       y       z     vdW  Elec       q    Type
REMARK                         _______ _______ _______ _____ _____    ______ ____
ROOT
ATOM      1  C   UNL     1       2.301   7.206  18.408  0.00  0.00    +0.000 A 
ATOM      2  C   UNL     1       1.708   7.400  19.681  0.00  0.00    +0.000 A 
ATOM      3  C   UNL     1       1.284   8.641  20.180  0.00  0.00    +0.000 A 
ATOM      4  C   UNL     1       1.620   9.735  19.390  0.00  0.00    +0.000 A 
ATOM      5  N   UNL     1       1.439  11.066  19.615  0.00  0.00    +0.000 N 
ATOM      6  C   UNL     1       1.877  11.779  18.530  0.00  0.00    +0.000 A 
ATOM      7  N   UNL     1       2.347  10.953  17.605  0.00  0.00    +0.000 NA
ATOM      8  C   UNL     1       2.215   9.663  18.141  0.00  0.00    +0.000 A 
ATOM      9  C   UNL     1       2.529   8.373  17.629  0.00  0.00    +0.000 A 
ATOM     10  H   UNL     1       1.046  11.504  20.435  0.00  0.00    +0.000 HD
ENDROOT
BRANCH   6  11
ATOM     11  C   UNL     1       1.742  13.212  18.558  0.00  0.00    +0.000 C 
ATOM     12  N   UNL     1       0.551  13.695  18.748  0.00  0.00    +0.000 NA
ATOM     13  O   UNL     1       0.623  15.090  18.654  0.00  0.00    +0.000 OA
ATOM     14  C   UNL     1       2.007  15.489  18.685  0.00  0.00    +0.000 C 
ATOM     15  C   UNL     1       2.157  16.625  17.665  0.00  0.00    +0.000 C 
ATOM     16  C   UNL     1       1.386  17.867  18.114  0.00  0.00    +0.000 C 
ATOM     17  O   UNL     1       1.805  18.270  19.416  0.00  0.00    +0.000 OA
ATOM     18  C   UNL     1       1.520  17.273  20.397  0.00  0.00    +0.000 C 
ATOM     19  C   UNL     1       2.310  16.001  20.101  0.00  0.00    +0.000 C 
ATOM     20  C   UNL     1       2.794  14.228  18.309  0.00  0.00    +0.000 C 
ENDBRANCH   6  11
BRANCH   1  26
ATOM     21  C   UNL     1       3.742   5.274  17.383  0.00  0.00    +0.000 A 
ATOM     22  C   UNL     1       3.865   3.874  17.148  0.00  0.00    +0.000 A 
ATOM     23  C   UNL     1       2.868   2.969  17.501  0.00  0.00    +0.000 A 
ATOM     24  C   UNL     1       1.702   3.446  18.065  0.00  0.00    +0.000 A 
ATOM     25  C   UNL     1       1.549   4.820  18.270  0.00  0.00    +0.000 A 
ATOM     26  C   UNL     1       2.560   5.783  17.977  0.00  0.00    +0.000 A 
BRANCH  21  28
ATOM     27  F   UNL     1       5.991   5.386  16.547  0.00  0.00    +0.000 F 
ATOM     28  C   UNL     1       4.931   6.123  16.998  0.00  0.00    +0.000 C 
ATOM     29  F   UNL     1       5.425   6.860  18.028  0.00  0.00    +0.000 F 
ATOM     30  F   UNL     1       4.663   6.990  15.984  0.00  0.00    +0.000 F 
ENDBRANCH  21  28
ENDBRANCH   1  26
BRANCH   3  31
ATOM     31  C   UNL     1       0.465   8.769  21.432  0.00  0.00    +0.000 C 
ATOM     32  F   UNL     1       1.200   8.852  22.571  0.00  0.00    +0.000 F 
ATOM     33  F   UNL     1      -0.348   9.860  21.414  0.00  0.00    +0.000 F 
ATOM     34  F   UNL     1      -0.364   7.698  21.599  0.00  0.00    +0.000 F 
ENDBRANCH   3  31
TORSDOF 4
ENDMDL
MODEL 8
REMARK VINA RESULT:      -8.6      0.875      1.257
REMARK  Name = 
REMARK  4 active torsions:
REMARK  status: ('A' for Active; 'I' for Inactive)
REMARK    1  A    between atoms: C_2  and  C_5
REMARK    2  A    between atoms: C_10  and  C_11
REMARK    3  A    between atoms: C_13  and  C_14
REMARK    4  A    between atoms: C_20  and  C_21
REMARK                            x       y       z     vdW  Elec       q    Type
REMARK                         _______ _______ _______ _____ _____    ______ ____
ROOT
ATOM      1  C   UNL     1       4.008   6.126  17.804  0.00  0.00    +0.000 A 
ATOM      2  C   UNL     1       3.530   5.260  18.819  0.00  0.00    +0.000 A 
ATOM      3  C   UNL     1       2.591   5.623  19.797  0.00  0.00    +0.000 A 
ATOM      4  C   UNL     1       2.247   6.970  19.807  0.00  0.00    +0.000 A 
ATOM      5  N   UNL     1       1.444   7.662  20.661  0.00  0.00    +0.000 N 
ATOM      6  C   UNL     1       1.351   8.966  20.249  0.00  0.00    +0.000 A 
ATOM      7  N   UNL     1       2.077   9.149  19.155  0.00  0.00    +0.000 NA
ATOM      8  C   UNL     1       2.667   7.907  18.877  0.00  0.00    +0.000 A 
ATOM      9  C   UNL     1       3.536   7.467  17.839  0.00  0.00    +0.000 A 
ATOM     10  H   UNL     1       0.969   7.312  21.480  0.00  0.00    +0.000 HD
ENDROOT
BRANCH   6  11
ATOM     11  C   UNL     1       0.515   9.860  21.008  0.00  0.00    +0.000 C 
ATOM     12  N   UNL     1       0.746   9.954  22.282  0.00  0.00    +0.000 NA
ATOM     13  O   UNL     1      -0.222  10.798  22.843  0.00  0.00    +0.000 OA
ATOM     14  C   UNL     1      -0.917  11.480  21.781  0.00  0.00    +0.000 C 
ATOM     15  C   UNL     1      -2.396  11.521  22.184  0.00  0.00    +0.000 C 
ATOM     16  C   UNL     1      -2.603  12.407  23.413  0.00  0.00    +0.000 C 
ATOM     17  O   UNL     1      -2.085  13.715  23.178  0.00  0.00    +0.000 OA
ATOM     18  C   UNL     1      -0.674  13.694  22.959  0.00  0.00    +0.000 C 
ATOM     19  C   UNL     1      -0.348  12.904  21.694  0.00  0.00    +0.000 C 
ATOM     20  C   UNL     1      -0.652  10.638  20.527  0.00  0.00    +0.000 C 
ENDBRANCH   6  11
BRANCH   1  26
ATOM     21  C   UNL     1       6.270   5.822  16.521  0.00  0.00    +0.000 A 
ATOM     22  C   UNL     1       7.003   5.071  15.556  0.00  0.00    +0.000 A 
ATOM     23  C   UNL     1       6.430   4.028  14.833  0.00  0.00    +0.000 A 
ATOM     24  C   UNL     1       5.097   3.734  15.028  0.00  0.00    +0.000 A 
ATOM     25  C   UNL     1       4.353   4.484  15.943  0.00  0.00    +0.000 A 
ATOM     26  C   UNL     1       4.904   5.525  16.749  0.00  0.00    +0.000 A 
BRANCH  21  28
ATOM     27  F   UNL     1       7.242   6.577  18.585  0.00  0.00    +0.000 F 
ATOM     28  C   UNL     1       7.044   6.885  17.267  0.00  0.00    +0.000 C 
ATOM     29  F   UNL     1       6.427   8.097  17.275  0.00  0.00    +0.000 F 
ATOM     30  F   UNL     1       8.295   7.082  16.771  0.00  0.00    +0.000 F 
ENDBRANCH  21  28
ENDBRANCH   1  26
BRANCH   3  31
ATOM     31  C   UNL     1       1.951   4.618  20.711  0.00  0.00    +0.000 C 
ATOM     32  F   UNL     1       0.597   4.712  20.779  0.00  0.00    +0.000 F 
ATOM     33  F   UNL     1       2.233   3.336  20.356  0.00  0.00    +0.000 F 
ATOM     34  F   UNL     1       2.400   4.751  21.992  0.00  0.00    +0.000 F 
ENDBRANCH   3  31
TORSDOF 4
ENDMDL
MODEL 9
REMARK VINA RESULT:      -8.5      4.643     10.155
REMARK  Name = 
REMARK  4 active torsions:
REMARK  status: ('A' for Active; 'I' for Inactive)
REMARK    1  A    between atoms: C_2  and  C_5
REMARK    2  A    between atoms: C_10  and  C_11
REMARK    3  A    between atoms: C_13  and  C_14
REMARK    4  A    between atoms: C_20  and  C_21
REMARK                            x       y       z     vdW  Elec       q    Type
REMARK                         _______ _______ _______ _____ _____    ______ ____
ROOT
ATOM      1  C   UNL     1      -0.667  12.294  21.781  0.00  0.00    +0.000 A 
ATOM      2  C   UNL     1      -1.148  12.186  20.451  0.00  0.00    +0.000 A 
ATOM      3  C   UNL     1      -0.899  11.098  19.601  0.00  0.00    +0.000 A 
ATOM      4  C   UNL     1      -0.002  10.160  20.099  0.00  0.00    +0.000 A 
ATOM      5  N   UNL     1       0.517   9.047  19.511  0.00  0.00    +0.000 N 
ATOM      6  C   UNL     1       1.321   8.389  20.403  0.00  0.00    +0.000 A 
ATOM      7  N   UNL     1       1.351   9.043  21.556  0.00  0.00    +0.000 NA
ATOM      8  C   UNL     1       0.542  10.175  21.373  0.00  0.00    +0.000 A 
ATOM      9  C   UNL     1       0.174  11.244  22.238  0.00  0.00    +0.000 A 
ATOM     10  H   UNL     1       0.359   8.718  18.570  0.00  0.00    +0.000 HD
ENDROOT
BRANCH   6  11
ATOM     11  C   UNL     1       1.944   7.161  19.980  0.00  0.00    +0.000 C 
ATOM     12  N   UNL     1       1.774   6.117  20.734  0.00  0.00    +0.000 NA
ATOM     13  O   UNL     1       2.525   5.062  20.199  0.00  0.00    +0.000 OA
ATOM     14  C   UNL     1       2.956   5.423  18.872  0.00  0.00    +0.000 C 
ATOM     15  C   UNL     1       4.397   4.917  18.729  0.00  0.00    +0.000 C 
ATOM     16  C   UNL     1       4.443   3.389  18.748  0.00  0.00    +0.000 C 
ATOM     17  O   UNL     1       3.593   2.852  17.736  0.00  0.00    +0.000 OA
ATOM     18  C   UNL     1       2.225   3.192  17.958  0.00  0.00    +0.000 C 
ATOM     19  C   UNL     1       2.036   4.704  17.874  0.00  0.00    +0.000 C 
ATOM     20  C   UNL     1       2.841   6.952  18.818  0.00  0.00    +0.000 C 
ENDBRANCH   6  11
BRANCH   1  26
ATOM     21  C   UNL     1      -2.312  13.511  23.416  0.00  0.00    +0.000 A 
ATOM     22  C   UNL     1      -2.561  14.661  24.219  0.00  0.00    +0.000 A 
ATOM     23  C   UNL     1      -1.694  15.750  24.251  0.00  0.00    +0.000 A 
ATOM     24  C   UNL     1      -0.571  15.732  23.449  0.00  0.00    +0.000 A 
ATOM     25  C   UNL     1      -0.329  14.627  22.627  0.00  0.00    +0.000 A 
ATOM     26  C   UNL     1      -1.155  13.465  22.599  0.00  0.00    +0.000 A 
BRANCH  21  28
ATOM     27  F   UNL     1      -2.735  11.178  23.807  0.00  0.00    +0.000 F 
ATOM     28  C   UNL     1      -3.314  12.386  23.531  0.00  0.00    +0.000 C 
ATOM     29  F   UNL     1      -4.032  12.183  22.394  0.00  0.00    +0.000 F 
ATOM     30  F   UNL     1      -4.212  12.571  24.538  0.00  0.00    +0.000 F 
ENDBRANCH  21  28
ENDBRANCH   1  26
BRANCH   3  31
ATOM     31  C   UNL     1      -1.605  10.925  18.287  0.00  0.00    +0.000 C 
ATOM     32  F   UNL     1      -2.712  10.139  18.351  0.00  0.00    +0.000 F 
ATOM     33  F   UNL     1      -2.001  12.109  17.747  0.00  0.00    +0.000 F 
ATOM     34  F   UNL     1      -0.792  10.351  17.354  0.00  0.00    +0.000 F 
ENDBRANCH   3  31
TORSDOF 4
ENDMDL
