MODEL 1
REMARK VINA RESULT:      -7.8      0.000      0.000
REMARK  Name = 
REMARK  9 active torsions:
REMARK  status: ('A' for Active; 'I' for Inactive)
REMARK    1  A    between atoms: C_1  and  O_2
REMARK    2  A    between atoms: O_2  and  C_3
REMARK    3  A    between atoms: C_5  and  C_6
REMARK    4  A    between atoms: N_8  and  C_9
REMARK    5  A    between atoms: C_16  and  C_17
REMARK    6  A    between atoms: C_21  and  O_22
REMARK    7  A    between atoms: O_22  and  C_23
REMARK    8  A    between atoms: C_24  and  O_25
REMARK    9  A    between atoms: O_25  and  C_26
REMARK                            x       y       z     vdW  Elec       q    Type
REMARK                         _______ _______ _______ _____ _____    ______ ____
ROOT
ATOM      1  C   UNL     1       2.285   6.524  19.586  0.00  0.00    +0.000 C 
ATOM      2  O   UNL     1       1.589   5.827  20.325  0.00  0.00    +0.000 OA
ATOM      3  N   UNL     1       2.203   7.910  19.515  0.00  0.00    +0.000 N 
ATOM      4  H   UNL     1       2.711   8.399  18.778  0.00  0.00    +0.000 HD
ENDROOT
BRANCH   3   5
ATOM      5  C   UNL     1       1.336   8.730  20.295  0.00  0.00    +0.000 A 
ATOM      6  C   UNL     1       1.240   8.575  21.689  0.00  0.00    +0.000 A 
ATOM      7  C   UNL     1       0.381   9.363  22.438  0.00  0.00    +0.000 A 
ATOM      8  F   UNL     1       0.288   9.165  23.759  0.00  0.00    +0.000 F 
ATOM      9  C   UNL     1      -0.369  10.353  21.829  0.00  0.00    +0.000 A 
ATOM     10  F   UNL     1      -1.189  11.131  22.556  0.00  0.00    +0.000 F 
ATOM     11  C   UNL     1      -0.291  10.549  20.455  0.00  0.00    +0.000 A 
ATOM     12  C   UNL     1       0.539   9.724  19.676  0.00  0.00    +0.000 A 
BRANCH  12  13
ATOM     13  C   UNL     1       0.537   9.899  18.192  0.00  0.00    +0.000 C 
ATOM     14  N   UNL     1      -0.673  10.098  17.587  0.00  0.00    +0.000 N 
ATOM     15  O   UNL     1       1.570   9.797  17.542  0.00  0.00    +0.000 OA
ATOM     16  H   UNL     1      -1.563   9.937  18.044  0.00  0.00    +0.000 HD
ATOM     17  H   UNL     1      -0.678  10.122  16.574  0.00  0.00    +0.000 HD
ENDBRANCH  12  13
ENDBRANCH   3   5
BRANCH   1  20
ATOM     18  C   UNL     1       5.123   6.055  17.170  0.00  0.00    +0.000 A 
ATOM     19  C   UNL     1       4.083   6.610  17.925  0.00  0.00    +0.000 A 
ATOM     20  C   UNL     1       3.177   5.813  18.632  0.00  0.00    +0.000 A 
ATOM     21  C   UNL     1       3.217   4.437  18.451  0.00  0.00    +0.000 A 
ATOM     22  C   UNL     1       4.198   3.863  17.621  0.00  0.00    +0.000 A 
ATOM     23  C   UNL     1       5.169   4.665  16.969  0.00  0.00    +0.000 A 
BRANCH  18  25
ATOM     24  C   UNL     1       7.244   7.078  17.429  0.00  0.00    +0.000 C 
ATOM     25  O   UNL     1       6.077   6.876  16.624  0.00  0.00    +0.000 OA
ENDBRANCH  18  25
BRANCH  22  26
ATOM     26  O   UNL     1       4.062   2.498  17.519  0.00  0.00    +0.000 OA
ATOM     27  C   UNL     1       3.415   1.834  18.597  0.00  0.00    +0.000 C 
ENDBRANCH  22  26
BRANCH  23  28
ATOM     28  O   UNL     1       6.060   3.987  16.184  0.00  0.00    +0.000 OA
ATOM     29  C   UNL     1       5.932   3.981  14.773  0.00  0.00    +0.000 C 
ENDBRANCH  23  28
ENDBRANCH   1  20
TORSDOF 6
ENDMDL
MODEL 2
REMARK VINA RESULT:      -7.6      0.238      2.470
REMARK  Name = 
REMARK  9 active torsions:
REMARK  status: ('A' for Active; 'I' for Inactive)
REMARK    1  A    between atoms: C_1  and  O_2
REMARK    2  A    between atoms: O_2  and  C_3
REMARK    3  A    between atoms: C_5  and  C_6
REMARK    4  A    between atoms: N_8  and  C_9
REMARK    5  A    between atoms: C_16  and  C_17
REMARK    6  A    between atoms: C_21  and  O_22
REMARK    7  A    between atoms: O_22  and  C_23
REMARK    8  A    between atoms: C_24  and  O_25
REMARK    9  A    between atoms: O_25  and  C_26
REMARK                            x       y       z     vdW  Elec       q    Type
REMARK                         _______ _______ _______ _____ _____    ______ ____
ROOT
ATOM      1  C   UNL     1       2.382   6.589  19.658  0.00  0.00    +0.000 C 
ATOM      2  O   UNL     1       1.657   5.861  20.336  0.00  0.00    +0.000 OA
ATOM      3  N   UNL     1       2.269   7.973  19.606  0.00  0.00    +0.000 N 
ATOM      4  H   UNL     1       2.812   8.489  18.913  0.00  0.00    +0.000 HD
ENDROOT
BRANCH   3   5
ATOM      5  C   UNL     1       1.332   8.757  20.341  0.00  0.00    +0.000 A 
ATOM      6  C   UNL     1       1.186   8.611  21.731  0.00  0.00    +0.000 A 
ATOM      7  C   UNL     1       0.259   9.363  22.435  0.00  0.00    +0.000 A 
ATOM      8  F   UNL     1       0.121   9.173  23.754  0.00  0.00    +0.000 F 
ATOM      9  C   UNL     1      -0.513  10.308  21.784  0.00  0.00    +0.000 A 
ATOM     10  F   UNL     1      -1.400  11.052  22.468  0.00  0.00    +0.000 F 
ATOM     11  C   UNL     1      -0.389  10.494  20.413  0.00  0.00    +0.000 A 
ATOM     12  C   UNL     1       0.513   9.704  19.677  0.00  0.00    +0.000 A 
BRANCH  12  13
ATOM     13  C   UNL     1       0.563   9.864  18.192  0.00  0.00    +0.000 C 
ATOM     14  N   UNL     1      -0.630  10.008  17.538  0.00  0.00    +0.000 N 
ATOM     15  O   UNL     1       1.624   9.797  17.586  0.00  0.00    +0.000 OA
ATOM     16  H   UNL     1      -1.530   9.816  17.962  0.00  0.00    +0.000 HD
ATOM     17  H   UNL     1      -0.594  10.022  16.526  0.00  0.00    +0.000 HD
ENDBRANCH  12  13
ENDBRANCH   3   5
BRANCH   1  20
ATOM     18  C   UNL     1       3.879   3.829  17.596  0.00  0.00    +0.000 A 
ATOM     19  C   UNL     1       3.186   4.541  18.582  0.00  0.00    +0.000 A 
ATOM     20  C   UNL     1       3.353   5.919  18.754  0.00  0.00    +0.000 A 
ATOM     21  C   UNL     1       4.350   6.563  18.033  0.00  0.00    +0.000 A 
ATOM     22  C   UNL     1       5.123   5.846  17.102  0.00  0.00    +0.000 A 
ATOM     23  C   UNL     1       4.897   4.466  16.868  0.00  0.00    +0.000 A 
BRANCH  18  25
ATOM     24  C   UNL     1       3.480   1.689  18.533  0.00  0.00    +0.000 C 
ATOM     25  O   UNL     1       3.565   2.513  17.364  0.00  0.00    +0.000 OA
ENDBRANCH  18  25
BRANCH  22  26
ATOM     26  O   UNL     1       6.091   6.627  16.514  0.00  0.00    +0.000 OA
ATOM     27  C   UNL     1       7.254   6.899  17.286  0.00  0.00    +0.000 C 
ENDBRANCH  22  26
BRANCH  23  28
ATOM     28  O   UNL     1       5.722   3.883  15.946  0.00  0.00    +0.000 OA
ATOM     29  C   UNL     1       5.565   4.138  14.561  0.00  0.00    +0.000 C 
ENDBRANCH  23  28
ENDBRANCH   1  20
TORSDOF 6
ENDMDL
MODEL 3
REMARK VINA RESULT:      -7.3      2.226      4.021
REMARK  Name = 
REMARK  9 active torsions:
REMARK  status: ('A' for Active; 'I' for Inactive)
REMARK    1  A    between atoms: C_1  and  O_2
REMARK    2  A    between atoms: O_2  and  C_3
REMARK    3  A    between atoms: C_5  and  C_6
REMARK    4  A    between atoms: N_8  and  C_9
REMARK    5  A    between atoms: C_16  and  C_17
REMARK    6  A    between atoms: C_21  and  O_22
REMARK    7  A    between atoms: O_22  and  C_23
REMARK    8  A    between atoms: C_24  and  O_25
REMARK    9  A    between atoms: O_25  and  C_26
REMARK                            x       y       z     vdW  Elec       q    Type
REMARK                         _______ _______ _______ _____ _____    ______ ____
ROOT
ATOM      1  C   UNL     1       1.923   8.573  18.582  0.00  0.00    +0.000 C 
ATOM      2  O   UNL     1       2.129   9.301  17.610  0.00  0.00    +0.000 OA
ATOM      3  N   UNL     1       1.152   8.936  19.680  0.00  0.00    +0.000 N 
ATOM      4  H   UNL     1       1.148   8.335  20.503  0.00  0.00    +0.000 HD
ENDROOT
BRANCH   3   5
ATOM      5  C   UNL     1       0.463  10.175  19.836  0.00  0.00    +0.000 A 
ATOM      6  C   UNL     1       0.183  11.001  18.734  0.00  0.00    +0.000 A 
ATOM      7  C   UNL     1      -0.470  12.213  18.896  0.00  0.00    +0.000 A 
ATOM      8  F   UNL     1      -0.689  12.992  17.830  0.00  0.00    +0.000 F 
ATOM      9  C   UNL     1      -0.899  12.612  20.149  0.00  0.00    +0.000 A 
ATOM     10  F   UNL     1      -1.549  13.778  20.307  0.00  0.00    +0.000 F 
ATOM     11  C   UNL     1      -0.656  11.816  21.263  0.00  0.00    +0.000 A 
ATOM     12  C   UNL     1       0.048  10.608  21.120  0.00  0.00    +0.000 A 
BRANCH  12  13
ATOM     13  C   UNL     1       0.373   9.816  22.345  0.00  0.00    +0.000 C 
ATOM     14  N   UNL     1      -0.668   9.474  23.163  0.00  0.00    +0.000 N 
ATOM     15  O   UNL     1       1.532   9.548  22.634  0.00  0.00    +0.000 OA
ATOM     16  H   UNL     1      -1.592   9.885  23.099  0.00  0.00    +0.000 HD
ATOM     17  H   UNL     1      -0.430   9.020  24.036  0.00  0.00    +0.000 HD
ENDBRANCH  12  13
ENDBRANCH   3   5
BRANCH   1  20
ATOM     18  C   UNL     1       2.837   5.132  19.780  0.00  0.00    +0.000 A 
ATOM     19  C   UNL     1       2.399   6.461  19.726  0.00  0.00    +0.000 A 
ATOM     20  C   UNL     1       2.652   7.278  18.620  0.00  0.00    +0.000 A 
ATOM     21  C   UNL     1       3.496   6.807  17.622  0.00  0.00    +0.000 A 
ATOM     22  C   UNL     1       4.023   5.505  17.702  0.00  0.00    +0.000 A 
ATOM     23  C   UNL     1       3.700   4.646  18.783  0.00  0.00    +0.000 A 
BRANCH  18  25
ATOM     24  C   UNL     1       1.158   3.694  20.631  0.00  0.00    +0.000 C 
ATOM     25  O   UNL     1       2.431   4.326  20.813  0.00  0.00    +0.000 OA
ENDBRANCH  18  25
BRANCH  22  26
ATOM     26  O   UNL     1       4.872   5.221  16.657  0.00  0.00    +0.000 OA
ATOM     27  C   UNL     1       5.231   6.304  15.808  0.00  0.00    +0.000 C 
ENDBRANCH  22  26
BRANCH  23  28
ATOM     28  O   UNL     1       4.285   3.411  18.748  0.00  0.00    +0.000 OA
ATOM     29  C   UNL     1       3.623   2.305  18.160  0.00  0.00    +0.000 C 
ENDBRANCH  23  28
ENDBRANCH   1  20
TORSDOF 6
ENDMDL
MODEL 4
REMARK VINA RESULT:      -7.2      3.693      8.056
REMARK  Name = 
REMARK  9 active torsions:
REMARK  status: ('A' for Active; 'I' for Inactive)
REMARK    1  A    between atoms: C_1  and  O_2
REMARK    2  A    between atoms: O_2  and  C_3
REMARK    3  A    between atoms: C_5  and  C_6
REMARK    4  A    between atoms: N_8  and  C_9
REMARK    5  A    between atoms: C_16  and  C_17
REMARK    6  A    between atoms: C_21  and  O_22
REMARK    7  A    between atoms: O_22  and  C_23
REMARK    8  A    between atoms: C_24  and  O_25
REMARK    9  A    between atoms: O_25  and  C_26
REMARK                            x       y       z     vdW  Elec       q    Type
REMARK                         _______ _______ _______ _____ _____    ______ ____
ROOT
ATOM      1  C   UNL     1       2.175   8.418  18.090  0.00  0.00    +0.000 C 
ATOM      2  O   UNL     1       2.585   8.905  17.036  0.00  0.00    +0.000 OA
ATOM      3  N   UNL     1       2.550   7.169  18.570  0.00  0.00    +0.000 N 
ATOM      4  H   UNL     1       2.059   6.780  19.375  0.00  0.00    +0.000 HD
ENDROOT
BRANCH   3   5
ATOM      5  C   UNL     1       3.474   6.282  17.943  0.00  0.00    +0.000 A 
ATOM      6  C   UNL     1       4.744   6.721  17.530  0.00  0.00    +0.000 A 
ATOM      7  C   UNL     1       5.630   5.858  16.904  0.00  0.00    +0.000 A 
ATOM      8  F   UNL     1       6.818   6.318  16.492  0.00  0.00    +0.000 F 
ATOM      9  C   UNL     1       5.293   4.530  16.712  0.00  0.00    +0.000 A 
ATOM     10  F   UNL     1       6.157   3.687  16.122  0.00  0.00    +0.000 F 
ATOM     11  C   UNL     1       4.053   4.053  17.120  0.00  0.00    +0.000 A 
ATOM     12  C   UNL     1       3.126   4.928  17.712  0.00  0.00    +0.000 A 
BRANCH  12  13
ATOM     13  C   UNL     1       1.768   4.410  18.060  0.00  0.00    +0.000 C 
ATOM     14  N   UNL     1       1.539   4.083  19.368  0.00  0.00    +0.000 N 
ATOM     15  O   UNL     1       0.923   4.222  17.194  0.00  0.00    +0.000 OA
ATOM     16  H   UNL     1       2.274   3.982  20.059  0.00  0.00    +0.000 HD
ATOM     17  H   UNL     1       0.650   3.645  19.578  0.00  0.00    +0.000 HD
ENDBRANCH  12  13
ENDBRANCH   3   5
BRANCH   1  20
ATOM     18  C   UNL     1       0.498  10.123  20.987  0.00  0.00    +0.000 A 
ATOM     19  C   UNL     1       1.278   9.260  20.208  0.00  0.00    +0.000 A 
ATOM     20  C   UNL     1       1.126   9.177  18.820  0.00  0.00    +0.000 A 
ATOM     21  C   UNL     1       0.066   9.849  18.224  0.00  0.00    +0.000 A 
ATOM     22  C   UNL     1      -0.788  10.650  19.005  0.00  0.00    +0.000 A 
ATOM     23  C   UNL     1      -0.583  10.800  20.399  0.00  0.00    +0.000 A 
BRANCH  18  25
ATOM     24  C   UNL     1       0.023   9.472  23.215  0.00  0.00    +0.000 C 
ATOM     25  O   UNL     1       0.790  10.284  22.318  0.00  0.00    +0.000 OA
ENDBRANCH  18  25
BRANCH  22  26
ATOM     26  O   UNL     1      -1.806  11.203  18.263  0.00  0.00    +0.000 OA
ATOM     27  C   UNL     1      -2.699  10.300  17.623  0.00  0.00    +0.000 C 
ENDBRANCH  22  26
BRANCH  23  28
ATOM     28  O   UNL     1      -1.489  11.597  21.044  0.00  0.00    +0.000 OA
ATOM     29  C   UNL     1      -1.229  12.973  21.259  0.00  0.00    +0.000 C 
ENDBRANCH  23  28
ENDBRANCH   1  20
TORSDOF 6
ENDMDL
MODEL 5
REMARK VINA RESULT:      -7.2      4.218      5.916
REMARK  Name = 
REMARK  9 active torsions:
REMARK  status: ('A' for Active; 'I' for Inactive)
REMARK    1  A    between atoms: C_1  and  O_2
REMARK    2  A    between atoms: O_2  and  C_3
REMARK    3  A    between atoms: C_5  and  C_6
REMARK    4  A    between atoms: N_8  and  C_9
REMARK    5  A    between atoms: C_16  and  C_17
REMARK    6  A    between atoms: C_21  and  O_22
REMARK    7  A    between atoms: O_22  and  C_23
REMARK    8  A    between atoms: C_24  and  O_25
REMARK    9  A    between atoms: O_25  and  C_26
REMARK                            x       y       z     vdW  Elec       q    Type
REMARK                         _______ _______ _______ _____ _____    ______ ____
ROOT
ATOM      1  C   UNL     1       3.979   3.865  16.972  0.00  0.00    +0.000 C 
ATOM      2  O   UNL     1       2.900   3.519  16.489  0.00  0.00    +0.000 OA
ATOM      3  N   UNL     1       4.225   3.976  18.335  0.00  0.00    +0.000 N 
ATOM      4  H   UNL     1       5.096   4.403  18.648  0.00  0.00    +0.000 HD
ENDROOT
BRANCH   3   5
ATOM      5  C   UNL     1       3.292   3.681  19.372  0.00  0.00    +0.000 A 
ATOM      6  C   UNL     1       2.265   4.579  19.709  0.00  0.00    +0.000 A 
ATOM      7  C   UNL     1       1.373   4.294  20.731  0.00  0.00    +0.000 A 
ATOM      8  F   UNL     1       0.428   5.187  21.050  0.00  0.00    +0.000 F 
ATOM      9  C   UNL     1       1.454   3.094  21.414  0.00  0.00    +0.000 A 
ATOM     10  F   UNL     1       0.579   2.807  22.393  0.00  0.00    +0.000 F 
ATOM     11  C   UNL     1       2.446   2.172  21.101  0.00  0.00    +0.000 A 
ATOM     12  C   UNL     1       3.387   2.469  20.099  0.00  0.00    +0.000 A 
BRANCH  12  13
ATOM     13  C   UNL     1       4.495   1.499  19.845  0.00  0.00    +0.000 C 
ATOM     14  N   UNL     1       4.390   0.706  18.735  0.00  0.00    +0.000 N 
ATOM     15  O   UNL     1       5.421   1.377  20.636  0.00  0.00    +0.000 OA
ATOM     16  H   UNL     1       3.535   0.596  18.202  0.00  0.00    +0.000 HD
ATOM     17  H   UNL     1       5.096  -0.011  18.620  0.00  0.00    +0.000 HD
ENDBRANCH  12  13
ENDBRANCH   3   5
BRANCH   1  20
ATOM     18  C   UNL     1       7.000   5.732  15.746  0.00  0.00    +0.000 A 
ATOM     19  C   UNL     1       5.837   5.368  16.437  0.00  0.00    +0.000 A 
ATOM     20  C   UNL     1       5.033   4.303  16.019  0.00  0.00    +0.000 A 
ATOM     21  C   UNL     1       5.311   3.696  14.801  0.00  0.00    +0.000 A 
ATOM     22  C   UNL     1       6.423   4.109  14.045  0.00  0.00    +0.000 A 
ATOM     23  C   UNL     1       7.286   5.134  14.508  0.00  0.00    +0.000 A 
BRANCH  18  25
ATOM     24  C   UNL     1       7.425   7.216  17.544  0.00  0.00    +0.000 C 
ATOM     25  O   UNL     1       7.836   6.679  16.281  0.00  0.00    +0.000 OA
ENDBRANCH  18  25
BRANCH  22  26
ATOM     26  O   UNL     1       6.521   3.435  12.849  0.00  0.00    +0.000 OA
ATOM     27  C   UNL     1       5.322   3.274  12.102  0.00  0.00    +0.000 C 
ENDBRANCH  22  26
BRANCH  23  28
ATOM     28  O   UNL     1       8.324   5.450  13.675  0.00  0.00    +0.000 OA
ATOM     29  C   UNL     1       8.088   5.901  12.353  0.00  0.00    +0.000 C 
ENDBRANCH  23  28
ENDBRANCH   1  20
TORSDOF 6
ENDMDL
MODEL 6
REMARK VINA RESULT:      -7.1      3.762      7.952
REMARK  Name = 
REMARK  9 active torsions:
REMARK  status: ('A' for Active; 'I' for Inactive)
REMARK    1  A    between atoms: C_1  and  O_2
REMARK    2  A    between atoms: O_2  and  C_3
REMARK    3  A    between atoms: C_5  and  C_6
REMARK    4  A    between atoms: N_8  and  C_9
REMARK    5  A    between atoms: C_16  and  C_17
REMARK    6  A    between atoms: C_21  and  O_22
REMARK    7  A    between atoms: O_22  and  C_23
REMARK    8  A    between atoms: C_24  and  O_25
REMARK    9  A    between atoms: O_25  and  C_26
REMARK                            x       y       z     vdW  Elec       q    Type
REMARK                         _______ _______ _______ _____ _____    ______ ____
ROOT
ATOM      1  C   UNL     1       2.392   8.232  18.205  0.00  0.00    +0.000 C 
ATOM      2  O   UNL     1       2.602   8.652  17.067  0.00  0.00    +0.000 OA
ATOM      3  N   UNL     1       2.866   7.018  18.689  0.00  0.00    +0.000 N 
ATOM      4  H   UNL     1       2.531   6.679  19.590  0.00  0.00    +0.000 HD
ENDROOT
BRANCH   3   5
ATOM      5  C   UNL     1       3.680   6.098  17.965  0.00  0.00    +0.000 A 
ATOM      6  C   UNL     1       4.965   6.452  17.518  0.00  0.00    +0.000 A 
ATOM      7  C   UNL     1       5.743   5.559  16.798  0.00  0.00    +0.000 A 
ATOM      8  F   UNL     1       6.948   5.940  16.357  0.00  0.00    +0.000 F 
ATOM      9  C   UNL     1       5.282   4.279  16.544  0.00  0.00    +0.000 A 
ATOM     10  F   UNL     1       6.042   3.405  15.863  0.00  0.00    +0.000 F 
ATOM     11  C   UNL     1       4.024   3.884  16.983  0.00  0.00    +0.000 A 
ATOM     12  C   UNL     1       3.204   4.796  17.671  0.00  0.00    +0.000 A 
BRANCH  12  13
ATOM     13  C   UNL     1       1.823   4.374  18.053  0.00  0.00    +0.000 C 
ATOM     14  N   UNL     1       1.619   4.003  19.354  0.00  0.00    +0.000 N 
ATOM     15  O   UNL     1       0.931   4.299  17.217  0.00  0.00    +0.000 OA
ATOM     16  H   UNL     1       2.369   3.808  20.007  0.00  0.00    +0.000 HD
ATOM     17  H   UNL     1       0.706   3.630  19.583  0.00  0.00    +0.000 HD
ENDBRANCH  12  13
ENDBRANCH   3   5
BRANCH   1  20
ATOM     18  C   UNL     1       0.002  10.983  19.115  0.00  0.00    +0.000 A 
ATOM     19  C   UNL     1       1.034  10.245  18.524  0.00  0.00    +0.000 A 
ATOM     20  C   UNL     1       1.475   9.030  19.060  0.00  0.00    +0.000 A 
ATOM     21  C   UNL     1       0.984   8.631  20.296  0.00  0.00    +0.000 A 
ATOM     22  C   UNL     1       0.012   9.407  20.953  0.00  0.00    +0.000 A 
ATOM     23  C   UNL     1      -0.495  10.596  20.371  0.00  0.00    +0.000 A 
BRANCH  18  25
ATOM     24  C   UNL     1      -1.738  11.876  17.779  0.00  0.00    +0.000 C 
ATOM     25  O   UNL     1      -0.499  12.084  18.469  0.00  0.00    +0.000 OA
ENDBRANCH  18  25
BRANCH  22  26
ATOM     26  O   UNL     1      -0.326   8.890  22.183  0.00  0.00    +0.000 OA
ATOM     27  C   UNL     1       0.373   9.403  23.310  0.00  0.00    +0.000 C 
ENDBRANCH  22  26
BRANCH  23  28
ATOM     28  O   UNL     1      -1.428  11.264  21.115  0.00  0.00    +0.000 OA
ATOM     29  C   UNL     1      -1.079  12.420  21.856  0.00  0.00    +0.000 C 
ENDBRANCH  23  28
ENDBRANCH   1  20
TORSDOF 6
ENDMDL
MODEL 7
REMARK VINA RESULT:      -7.1      3.720      8.202
REMARK  Name = 
REMARK  9 active torsions:
REMARK  status: ('A' for Active; 'I' for Inactive)
REMARK    1  A    between atoms: C_1  and  O_2
REMARK    2  A    between atoms: O_2  and  C_3
REMARK    3  A    between atoms: C_5  and  C_6
REMARK    4  A    between atoms: N_8  and  C_9
REMARK    5  A    between atoms: C_16  and  C_17
REMARK    6  A    between atoms: C_21  and  O_22
REMARK    7  A    between atoms: O_22  and  C_23
REMARK    8  A    between atoms: C_24  and  O_25
REMARK    9  A    between atoms: O_25  and  C_26
REMARK                            x       y       z     vdW  Elec       q    Type
REMARK                         _______ _______ _______ _____ _____    ______ ____
ROOT
ATOM      1  C   UNL     1       2.067   8.477  18.246  0.00  0.00    +0.000 C 
ATOM      2  O   UNL     1       2.295   8.833  17.089  0.00  0.00    +0.000 OA
ATOM      3  N   UNL     1       2.488   7.269  18.787  0.00  0.00    +0.000 N 
ATOM      4  H   UNL     1       2.139   6.988  19.703  0.00  0.00    +0.000 HD
ENDROOT
BRANCH   3   5
ATOM      5  C   UNL     1       3.263   6.281  18.110  0.00  0.00    +0.000 A 
ATOM      6  C   UNL     1       4.298   6.640  17.230  0.00  0.00    +0.000 A 
ATOM      7  C   UNL     1       5.034   5.675  16.561  0.00  0.00    +0.000 A 
ATOM      8  F   UNL     1       5.990   6.051  15.702  0.00  0.00    +0.000 F 
ATOM      9  C   UNL     1       4.788   4.331  16.782  0.00  0.00    +0.000 A 
ATOM     10  F   UNL     1       5.513   3.393  16.149  0.00  0.00    +0.000 F 
ATOM     11  C   UNL     1       3.784   3.935  17.657  0.00  0.00    +0.000 A 
ATOM     12  C   UNL     1       2.997   4.903  18.306  0.00  0.00    +0.000 A 
BRANCH  12  13
ATOM     13  C   UNL     1       1.867   4.449  19.171  0.00  0.00    +0.000 C 
ATOM     14  N   UNL     1       1.059   3.461  18.679  0.00  0.00    +0.000 N 
ATOM     15  O   UNL     1       1.637   4.991  20.245  0.00  0.00    +0.000 OA
ATOM     16  H   UNL     1       1.057   3.168  17.708  0.00  0.00    +0.000 HD
ATOM     17  H   UNL     1       0.242   3.225  19.229  0.00  0.00    +0.000 HD
ENDBRANCH  12  13
ENDBRANCH   3   5
BRANCH   1  20
ATOM     18  C   UNL     1       0.655  10.085  21.333  0.00  0.00    +0.000 A 
ATOM     19  C   UNL     1       1.255   9.184  20.446  0.00  0.00    +0.000 A 
ATOM     20  C   UNL     1       1.185   9.354  19.059  0.00  0.00    +0.000 A 
ATOM     21  C   UNL     1       0.364  10.353  18.552  0.00  0.00    +0.000 A 
ATOM     22  C   UNL     1      -0.323  11.214  19.428  0.00  0.00    +0.000 A 
ATOM     23  C   UNL     1      -0.186  11.093  20.834  0.00  0.00    +0.000 A 
BRANCH  18  25
ATOM     24  C   UNL     1      -0.210   9.433  23.441  0.00  0.00    +0.000 C 
ATOM     25  O   UNL     1       0.883   9.962  22.680  0.00  0.00    +0.000 OA
ENDBRANCH  18  25
BRANCH  22  26
ATOM     26  O   UNL     1      -1.122  12.111  18.758  0.00  0.00    +0.000 OA
ATOM     27  C   UNL     1      -0.497  13.296  18.280  0.00  0.00    +0.000 C 
ENDBRANCH  22  26
BRANCH  23  28
ATOM     28  O   UNL     1      -0.914  11.983  21.574  0.00  0.00    +0.000 OA
ATOM     29  C   UNL     1      -0.333  13.183  22.052  0.00  0.00    +0.000 C 
ENDBRANCH  23  28
ENDBRANCH   1  20
TORSDOF 6
ENDMDL
MODEL 8
REMARK VINA RESULT:      -7.1      3.706      8.127
REMARK  Name = 
REMARK  9 active torsions:
REMARK  status: ('A' for Active; 'I' for Inactive)
REMARK    1  A    between atoms: C_1  and  O_2
REMARK    2  A    between atoms: O_2  and  C_3
REMARK    3  A    between atoms: C_5  and  C_6
REMARK    4  A    between atoms: N_8  and  C_9
REMARK    5  A    between atoms: C_16  and  C_17
REMARK    6  A    between atoms: C_21  and  O_22
REMARK    7  A    between atoms: O_22  and  C_23
REMARK    8  A    between atoms: C_24  and  O_25
REMARK    9  A    between atoms: O_25  and  C_26
REMARK                            x       y       z     vdW  Elec       q    Type
REMARK                         _______ _______ _______ _____ _____    ______ ____
ROOT
ATOM      1  C   UNL     1       1.879   8.750  18.389  0.00  0.00    +0.000 C 
ATOM      2  O   UNL     1       2.113   9.064  17.221  0.00  0.00    +0.000 OA
ATOM      3  N   UNL     1       2.299   7.563  18.977  0.00  0.00    +0.000 N 
ATOM      4  H   UNL     1       1.944   7.315  19.901  0.00  0.00    +0.000 HD
ENDROOT
BRANCH   3   5
ATOM      5  C   UNL     1       3.080   6.553  18.342  0.00  0.00    +0.000 A 
ATOM      6  C   UNL     1       4.018   6.872  17.346  0.00  0.00    +0.000 A 
ATOM      7  C   UNL     1       4.760   5.883  16.719  0.00  0.00    +0.000 A 
ATOM      8  F   UNL     1       5.620   6.218  15.749  0.00  0.00    +0.000 F 
ATOM      9  C   UNL     1       4.619   4.560  17.097  0.00  0.00    +0.000 A 
ATOM     10  F   UNL     1       5.351   3.601  16.505  0.00  0.00    +0.000 F 
ATOM     11  C   UNL     1       3.714   4.204  18.090  0.00  0.00    +0.000 A 
ATOM     12  C   UNL     1       2.919   5.191  18.699  0.00  0.00    +0.000 A 
BRANCH  12  13
ATOM     13  C   UNL     1       1.891   4.771  19.699  0.00  0.00    +0.000 C 
ATOM     14  N   UNL     1       1.060   3.743  19.347  0.00  0.00    +0.000 N 
ATOM     15  O   UNL     1       1.758   5.371  20.758  0.00  0.00    +0.000 OA
ATOM     16  H   UNL     1       0.968   3.393  18.401  0.00  0.00    +0.000 HD
ATOM     17  H   UNL     1       0.308   3.526  19.990  0.00  0.00    +0.000 HD
ENDBRANCH  12  13
ENDBRANCH   3   5
BRANCH   1  20
ATOM     18  C   UNL     1      -1.026  11.037  19.053  0.00  0.00    +0.000 A 
ATOM     19  C   UNL     1       0.012  10.335  18.430  0.00  0.00    +0.000 A 
ATOM     20  C   UNL     1       0.989   9.654  19.164  0.00  0.00    +0.000 A 
ATOM     21  C   UNL     1       1.017   9.813  20.543  0.00  0.00    +0.000 A 
ATOM     22  C   UNL     1       0.036  10.591  21.183  0.00  0.00    +0.000 A 
ATOM     23  C   UNL     1      -1.003  11.214  20.447  0.00  0.00    +0.000 A 
BRANCH  18  25
ATOM     24  C   UNL     1      -2.909  10.587  17.687  0.00  0.00    +0.000 C 
ATOM     25  O   UNL     1      -2.044  11.555  18.294  0.00  0.00    +0.000 OA
ENDBRANCH  18  25
BRANCH  22  26
ATOM     26  O   UNL     1       0.241  10.678  22.541  0.00  0.00    +0.000 OA
ATOM     27  C   UNL     1      -0.072   9.526  23.313  0.00  0.00    +0.000 C 
ENDBRANCH  22  26
BRANCH  23  28
ATOM     28  O   UNL     1      -1.888  11.951  21.186  0.00  0.00    +0.000 OA
ATOM     29  C   UNL     1      -1.749  13.356  21.302  0.00  0.00    +0.000 C 
ENDBRANCH  23  28
ENDBRANCH   1  20
TORSDOF 6
ENDMDL
MODEL 9
REMARK VINA RESULT:      -7.0      1.258      1.356
REMARK  Name = 
REMARK  9 active torsions:
REMARK  status: ('A' for Active; 'I' for Inactive)
REMARK    1  A    between atoms: C_1  and  O_2
REMARK    2  A    between atoms: O_2  and  C_3
REMARK    3  A    between atoms: C_5  and  C_6
REMARK    4  A    between atoms: N_8  and  C_9
REMARK    5  A    between atoms: C_16  and  C_17
REMARK    6  A    between atoms: C_21  and  O_22
REMARK    7  A    between atoms: O_22  and  C_23
REMARK    8  A    between atoms: C_24  and  O_25
REMARK    9  A    between atoms: O_25  and  C_26
REMARK                            x       y       z     vdW  Elec       q    Type
REMARK                         _______ _______ _______ _____ _____    ______ ____
ROOT
ATOM      1  C   UNL     1       2.125   6.720  20.212  0.00  0.00    +0.000 C 
ATOM      2  O   UNL     1       1.236   6.060  20.751  0.00  0.00    +0.000 OA
ATOM      3  N   UNL     1       2.161   8.109  20.188  0.00  0.00    +0.000 N 
ATOM      4  H   UNL     1       2.852   8.576  19.602  0.00  0.00    +0.000 HD
ENDROOT
BRANCH   3   5
ATOM      5  C   UNL     1       1.207   8.974  20.800  0.00  0.00    +0.000 A 
ATOM      6  C   UNL     1       0.867   8.846  22.157  0.00  0.00    +0.000 A 
ATOM      7  C   UNL     1      -0.076   9.678  22.740  0.00  0.00    +0.000 A 
ATOM      8  F   UNL     1      -0.402   9.506  24.027  0.00  0.00    +0.000 F 
ATOM      9  C   UNL     1      -0.670  10.685  22.000  0.00  0.00    +0.000 A 
ATOM     10  F   UNL     1      -1.571  11.505  22.567  0.00  0.00    +0.000 F 
ATOM     11  C   UNL     1      -0.350  10.855  20.659  0.00  0.00    +0.000 A 
ATOM     12  C   UNL     1       0.568   9.987  20.042  0.00  0.00    +0.000 A 
BRANCH  12  13
ATOM     13  C   UNL     1       0.827  10.136  18.578  0.00  0.00    +0.000 C 
ATOM     14  N   UNL     1       0.937  11.409  18.089  0.00  0.00    +0.000 N 
ATOM     15  O   UNL     1       0.869   9.159  17.841  0.00  0.00    +0.000 OA
ATOM     16  H   UNL     1       0.660  12.235  18.606  0.00  0.00    +0.000 HD
ATOM     17  H   UNL     1       1.019  11.504  17.084  0.00  0.00    +0.000 HD
ENDBRANCH  12  13
ENDBRANCH   3   5
BRANCH   1  20
ATOM     18  C   UNL     1       4.828   6.133  17.670  0.00  0.00    +0.000 A 
ATOM     19  C   UNL     1       3.705   6.629  18.342  0.00  0.00    +0.000 A 
ATOM     20  C   UNL     1       3.150   5.967  19.442  0.00  0.00    +0.000 A 
ATOM     21  C   UNL     1       3.631   4.706  19.774  0.00  0.00    +0.000 A 
ATOM     22  C   UNL     1       4.701   4.148  19.051  0.00  0.00    +0.000 A 
ATOM     23  C   UNL     1       5.318   4.855  17.988  0.00  0.00    +0.000 A 
BRANCH  18  25
ATOM     24  C   UNL     1       5.218   6.449  15.355  0.00  0.00    +0.000 C 
ATOM     25  O   UNL     1       5.428   6.896  16.700  0.00  0.00    +0.000 OA
ENDBRANCH  18  25
BRANCH  22  26
ATOM     26  O   UNL     1       5.017   2.880  19.482  0.00  0.00    +0.000 OA
ATOM     27  C   UNL     1       4.125   2.276  20.410  0.00  0.00    +0.000 C 
ENDBRANCH  22  26
BRANCH  23  28
ATOM     28  O   UNL     1       6.340   4.199  17.359  0.00  0.00    +0.000 OA
ATOM     29  C   UNL     1       7.692   4.527  17.627  0.00  0.00    +0.000 C 
ENDBRANCH  23  28
ENDBRANCH   1  20
TORSDOF 6
ENDMDL
