MODEL 1
REMARK VINA RESULT:      -8.4      0.000      0.000
REMARK  Name = 
REMARK  9 active torsions:
REMARK  status: ('A' for Active; 'I' for Inactive)
REMARK    1  A    between atoms: N_1  and  C_2
REMARK    2  A    between atoms: N_5  and  C_6
REMARK    3  A    between atoms: C_6  and  C_7
REMARK    4  A    between atoms: C_7  and  C_8
REMARK    5  A    between atoms: N_19  and  C1*_20
REMARK    6  A    between atoms: C4*_22  and  C5*_23
REMARK    7  A    between atoms: C5*_23  and  O5*_24
REMARK    8  A    between atoms: C3*_25  and  O3*_26
REMARK    9  A    between atoms: C2*_27  and  O2*_28
REMARK                            x       y       z     vdW  Elec       q    Type
REMARK                         _______ _______ _______ _____ _____    ______ ____
ROOT
ATOM      1  C   UNL     1       7.028   5.538  15.769  0.00  0.00    +0.000 A 
ATOM      2  N   UNL     1       7.595   6.501  16.529  0.00  0.00    +0.000 NA
ATOM      3  C   UNL     1       7.184   6.686  17.802  0.00  0.00    +0.000 A 
ATOM      4  N   UNL     1       7.812   7.638  18.600  0.00  0.00    +0.000 N 
ATOM      5  N   UNL     1       6.201   6.007  18.414  0.00  0.00    +0.000 NA
ATOM      6  C   UNL     1       5.647   5.072  17.630  0.00  0.00    +0.000 A 
ATOM      7  C   UNL     1       5.988   4.780  16.323  0.00  0.00    +0.000 A 
ATOM      8  N   UNL     1       5.209   3.758  15.825  0.00  0.00    +0.000 NA
ATOM      9  C   UNL     1       4.435   3.409  16.833  0.00  0.00    +0.000 A 
ATOM     10  N   UNL     1       4.657   4.184  17.944  0.00  0.00    +0.000 N 
ATOM     11  H   UNL     1       7.196   7.856  19.375  0.00  0.00    +0.000 HD
ENDROOT
BRANCH  10  12
ATOM     12  C1* UNL     1       4.018   3.976  19.231  0.00  0.00    +0.000 C 
ATOM     13  O4* UNL     1       3.498   2.631  19.334  0.00  0.00    +0.000 OA
ATOM     14  C4* UNL     1       2.146   2.697  19.861  0.00  0.00    +0.000 C 
ATOM     15  C3* UNL     1       1.964   4.114  20.390  0.00  0.00    +0.000 C 
ATOM     16  C2* UNL     1       2.864   4.941  19.486  0.00  0.00    +0.000 C 
BRANCH  15  17
ATOM     17  O3* UNL     1       2.456   4.250  21.737  0.00  0.00    +0.000 OA
ATOM     18  H3* UNL     1       2.360   5.179  22.019  0.00  0.00    +0.000 HD
ENDBRANCH  15  17
BRANCH  16  19
ATOM     19  O2* UNL     1       3.292   6.139  20.131  0.00  0.00    +0.000 OA
ATOM     20  H2* UNL     1       2.643   6.831  19.881  0.00  0.00    +0.000 HD
ENDBRANCH  16  19
BRANCH  14  21
ATOM     21  C5* UNL     1       1.141   2.339  18.761  0.00  0.00    +0.000 C 
BRANCH  21  22
ATOM     22  O5* UNL     1       1.817   1.699  17.679  0.00  0.00    +0.000 OA
ATOM     23  H5* UNL     1       2.392   1.030  18.101  0.00  0.00    +0.000 HD
ENDBRANCH  21  22
ENDBRANCH  14  21
ENDBRANCH  10  12
BRANCH   1  24
ATOM     24  N   UNL     1       7.507   5.339  14.480  0.00  0.00    +0.000 N 
ATOM     25  H   UNL     1       7.654   6.200  13.973  0.00  0.00    +0.000 HD
ATOM     26  H   UNL     1       7.081   4.558  13.994  0.00  0.00    +0.000 HD
ENDBRANCH   1  24
BRANCH   4  27
ATOM     27  C   UNL     1       8.380   8.761  17.880  0.00  0.00    +0.000 C 
BRANCH  27  28
ATOM     28  C   UNL     1       8.898   9.813  18.867  0.00  0.00    +0.000 C 
BRANCH  28  29
ATOM     29  C   UNL     1       9.709  10.926  18.173  0.00  0.00    +0.000 C 
ATOM     30  C   UNL     1      11.026  11.242  18.900  0.00  0.00    +0.000 C 
ATOM     31  C   UNL     1      11.742  12.417  18.246  0.00  0.00    +0.000 C 
ATOM     32  O   UNL     1      10.898  13.565  18.203  0.00  0.00    +0.000 OA
ATOM     33  C   UNL     1       9.717  13.335  17.436  0.00  0.00    +0.000 C 
ATOM     34  C   UNL     1       8.883  12.215  18.049  0.00  0.00    +0.000 C 
ENDBRANCH  28  29
ENDBRANCH  27  28
ENDBRANCH   4  27
TORSDOF 9
ENDMDL
MODEL 2
REMARK VINA RESULT:      -8.4      0.852      1.055
REMARK  Name = 
REMARK  9 active torsions:
REMARK  status: ('A' for Active; 'I' for Inactive)
REMARK    1  A    between atoms: N_1  and  C_2
REMARK    2  A    between atoms: N_5  and  C_6
REMARK    3  A    between atoms: C_6  and  C_7
REMARK    4  A    between atoms: C_7  and  C_8
REMARK    5  A    between atoms: N_19  and  C1*_20
REMARK    6  A    between atoms: C4*_22  and  C5*_23
REMARK    7  A    between atoms: C5*_23  and  O5*_24
REMARK    8  A    between atoms: C3*_25  and  O3*_26
REMARK    9  A    between atoms: C2*_27  and  O2*_28
REMARK                            x       y       z     vdW  Elec       q    Type
REMARK                         _______ _______ _______ _____ _____    ______ ____
ROOT
ATOM      1  C   UNL     1       6.987   5.414  15.689  0.00  0.00    +0.000 A 
ATOM      2  N   UNL     1       7.583   6.412  16.379  0.00  0.00    +0.000 NA
ATOM      3  C   UNL     1       7.209   6.670  17.652  0.00  0.00    +0.000 A 
ATOM      4  N   UNL     1       7.867   7.658  18.378  0.00  0.00    +0.000 N 
ATOM      5  N   UNL     1       6.240   6.033  18.327  0.00  0.00    +0.000 NA
ATOM      6  C   UNL     1       5.657   5.062  17.611  0.00  0.00    +0.000 A 
ATOM      7  C   UNL     1       5.958   4.697  16.312  0.00  0.00    +0.000 A 
ATOM      8  N   UNL     1       5.158   3.656  15.893  0.00  0.00    +0.000 NA
ATOM      9  C   UNL     1       4.411   3.369  16.940  0.00  0.00    +0.000 A 
ATOM     10  N   UNL     1       4.670   4.201  18.000  0.00  0.00    +0.000 N 
ATOM     11  H   UNL     1       7.275   7.923  19.157  0.00  0.00    +0.000 HD
ENDROOT
BRANCH  10  12
ATOM     12  C1* UNL     1       4.067   4.069  19.314  0.00  0.00    +0.000 C 
ATOM     13  O4* UNL     1       3.626   2.710  19.542  0.00  0.00    +0.000 OA
ATOM     14  C4* UNL     1       2.283   2.746  20.091  0.00  0.00    +0.000 C 
ATOM     15  C3* UNL     1       2.028   4.190  20.503  0.00  0.00    +0.000 C 
ATOM     16  C2* UNL     1       2.863   4.986  19.512  0.00  0.00    +0.000 C 
BRANCH  15  17
ATOM     17  O3* UNL     1       2.535   4.469  21.822  0.00  0.00    +0.000 OA
ATOM     18  H3* UNL     1       2.618   3.632  22.315  0.00  0.00    +0.000 HD
ENDBRANCH  15  17
BRANCH  16  19
ATOM     19  O2* UNL     1       3.233   6.257  20.044  0.00  0.00    +0.000 OA
ATOM     20  H2* UNL     1       2.467   6.564  20.575  0.00  0.00    +0.000 HD
ENDBRANCH  16  19
BRANCH  14  21
ATOM     21  C5* UNL     1       1.281   2.240  19.048  0.00  0.00    +0.000 C 
BRANCH  21  22
ATOM     22  O5* UNL     1      -0.041   2.622  19.424  0.00  0.00    +0.000 OA
ATOM     23  H5* UNL     1       0.025   2.868  20.368  0.00  0.00    +0.000 HD
ENDBRANCH  21  22
ENDBRANCH  14  21
ENDBRANCH  10  12
BRANCH   1  24
ATOM     24  N   UNL     1       7.428   5.142  14.400  0.00  0.00    +0.000 N 
ATOM     25  H   UNL     1       6.811   4.526  13.889  0.00  0.00    +0.000 HD
ATOM     26  H   UNL     1       8.429   4.996  14.325  0.00  0.00    +0.000 HD
ENDBRANCH   1  24
BRANCH   4  27
ATOM     27  C   UNL     1       8.422   8.735  17.582  0.00  0.00    +0.000 C 
BRANCH  27  28
ATOM     28  C   UNL     1       8.298  10.065  18.335  0.00  0.00    +0.000 C 
BRANCH  28  29
ATOM     29  C   UNL     1       9.657  10.584  18.846  0.00  0.00    +0.000 C 
ATOM     30  C   UNL     1       9.543  11.328  20.186  0.00  0.00    +0.000 C 
ATOM     31  C   UNL     1      10.886  11.916  20.599  0.00  0.00    +0.000 C 
ATOM     32  O   UNL     1      11.398  12.775  19.583  0.00  0.00    +0.000 OA
ATOM     33  C   UNL     1      11.622  12.083  18.357  0.00  0.00    +0.000 C 
ATOM     34  C   UNL     1      10.318  11.510  17.813  0.00  0.00    +0.000 C 
ENDBRANCH  28  29
ENDBRANCH  27  28
ENDBRANCH   4  27
TORSDOF 9
ENDMDL
MODEL 3
REMARK VINA RESULT:      -8.0      4.794      7.507
REMARK  Name = 
REMARK  9 active torsions:
REMARK  status: ('A' for Active; 'I' for Inactive)
REMARK    1  A    between atoms: N_1  and  C_2
REMARK    2  A    between atoms: N_5  and  C_6
REMARK    3  A    between atoms: C_6  and  C_7
REMARK    4  A    between atoms: C_7  and  C_8
REMARK    5  A    between atoms: N_19  and  C1*_20
REMARK    6  A    between atoms: C4*_22  and  C5*_23
REMARK    7  A    between atoms: C5*_23  and  O5*_24
REMARK    8  A    between atoms: C3*_25  and  O3*_26
REMARK    9  A    between atoms: C2*_27  and  O2*_28
REMARK                            x       y       z     vdW  Elec       q    Type
REMARK                         _______ _______ _______ _____ _____    ______ ____
ROOT
ATOM      1  C   UNL     1       1.624   4.187  20.374  0.00  0.00    +0.000 A 
ATOM      2  N   UNL     1       1.338   5.469  20.695  0.00  0.00    +0.000 NA
ATOM      3  C   UNL     1       2.091   6.474  20.196  0.00  0.00    +0.000 A 
ATOM      4  N   UNL     1       1.756   7.794  20.480  0.00  0.00    +0.000 N 
ATOM      5  N   UNL     1       3.165   6.329  19.404  0.00  0.00    +0.000 NA
ATOM      6  C   UNL     1       3.432   5.047  19.119  0.00  0.00    +0.000 A 
ATOM      7  C   UNL     1       2.733   3.938  19.556  0.00  0.00    +0.000 A 
ATOM      8  N   UNL     1       3.291   2.777  19.065  0.00  0.00    +0.000 NA
ATOM      9  C   UNL     1       4.289   3.182  18.308  0.00  0.00    +0.000 A 
ATOM     10  N   UNL     1       4.421   4.549  18.318  0.00  0.00    +0.000 N 
ATOM     11  H   UNL     1       2.571   8.371  20.304  0.00  0.00    +0.000 HD
ENDROOT
BRANCH  10  12
ATOM     12  C1* UNL     1       5.375   5.287  17.510  0.00  0.00    +0.000 C 
ATOM     13  O4* UNL     1       4.809   5.615  16.220  0.00  0.00    +0.000 OA
ATOM     14  C4* UNL     1       5.785   5.298  15.193  0.00  0.00    +0.000 C 
ATOM     15  C3* UNL     1       7.106   5.067  15.917  0.00  0.00    +0.000 C 
ATOM     16  C2* UNL     1       6.670   4.519  17.266  0.00  0.00    +0.000 C 
BRANCH  15  17
ATOM     17  O3* UNL     1       7.810   6.301  16.155  0.00  0.00    +0.000 OA
ATOM     18  H3* UNL     1       8.684   6.258  15.723  0.00  0.00    +0.000 HD
ENDBRANCH  15  17
BRANCH  16  19
ATOM     19  O2* UNL     1       7.649   4.774  18.274  0.00  0.00    +0.000 OA
ATOM     20  H2* UNL     1       8.365   5.281  17.835  0.00  0.00    +0.000 HD
ENDBRANCH  16  19
BRANCH  14  21
ATOM     21  C5* UNL     1       5.323   4.075  14.395  0.00  0.00    +0.000 C 
BRANCH  21  22
ATOM     22  O5* UNL     1       6.448   3.445  13.783  0.00  0.00    +0.000 OA
ATOM     23  H5* UNL     1       6.734   2.762  14.423  0.00  0.00    +0.000 HD
ENDBRANCH  21  22
ENDBRANCH  14  21
ENDBRANCH  10  12
BRANCH   1  24
ATOM     24  N   UNL     1       0.802   3.180  20.864  0.00  0.00    +0.000 N 
ATOM     25  H   UNL     1      -0.180   3.350  20.696  0.00  0.00    +0.000 HD
ATOM     26  H   UNL     1       1.083   2.817  21.768  0.00  0.00    +0.000 HD
ENDBRANCH   1  24
BRANCH   4  27
ATOM     27  C   UNL     1       1.075   7.994  21.744  0.00  0.00    +0.000 C 
BRANCH  27  28
ATOM     28  C   UNL     1      -0.253   8.726  21.518  0.00  0.00    +0.000 C 
BRANCH  28  29
ATOM     29  C   UNL     1      -0.064  10.243  21.315  0.00  0.00    +0.000 C 
ATOM     30  C   UNL     1      -0.713  11.077  22.431  0.00  0.00    +0.000 C 
ATOM     31  C   UNL     1      -0.597  12.567  22.135  0.00  0.00    +0.000 C 
ATOM     32  O   UNL     1      -1.174  12.879  20.869  0.00  0.00    +0.000 OA
ATOM     33  C   UNL     1      -0.515  12.204  19.798  0.00  0.00    +0.000 C 
ATOM     34  C   UNL     1      -0.632  10.692  19.959  0.00  0.00    +0.000 C 
ENDBRANCH  28  29
ENDBRANCH  27  28
ENDBRANCH   4  27
TORSDOF 9
ENDMDL
MODEL 4
REMARK VINA RESULT:      -7.8      4.809      7.688
REMARK  Name = 
REMARK  9 active torsions:
REMARK  status: ('A' for Active; 'I' for Inactive)
REMARK    1  A    between atoms: N_1  and  C_2
REMARK    2  A    between atoms: N_5  and  C_6
REMARK    3  A    between atoms: C_6  and  C_7
REMARK    4  A    between atoms: C_7  and  C_8
REMARK    5  A    between atoms: N_19  and  C1*_20
REMARK    6  A    between atoms: C4*_22  and  C5*_23
REMARK    7  A    between atoms: C5*_23  and  O5*_24
REMARK    8  A    between atoms: C3*_25  and  O3*_26
REMARK    9  A    between atoms: C2*_27  and  O2*_28
REMARK                            x       y       z     vdW  Elec       q    Type
REMARK                         _______ _______ _______ _____ _____    ______ ____
ROOT
ATOM      1  C   UNL     1       1.573   4.188  20.309  0.00  0.00    +0.000 A 
ATOM      2  N   UNL     1       1.287   5.471  20.626  0.00  0.00    +0.000 NA
ATOM      3  C   UNL     1       2.047   6.473  20.133  0.00  0.00    +0.000 A 
ATOM      4  N   UNL     1       1.713   7.795  20.412  0.00  0.00    +0.000 N 
ATOM      5  N   UNL     1       3.129   6.324  19.352  0.00  0.00    +0.000 NA
ATOM      6  C   UNL     1       3.396   5.042  19.071  0.00  0.00    +0.000 A 
ATOM      7  C   UNL     1       2.689   3.935  19.502  0.00  0.00    +0.000 A 
ATOM      8  N   UNL     1       3.248   2.771  19.019  0.00  0.00    +0.000 NA
ATOM      9  C   UNL     1       4.256   3.173  18.271  0.00  0.00    +0.000 A 
ATOM     10  N   UNL     1       4.392   4.539  18.281  0.00  0.00    +0.000 N 
ATOM     11  H   UNL     1       2.532   8.369  20.243  0.00  0.00    +0.000 HD
ENDROOT
BRANCH  10  12
ATOM     12  C1* UNL     1       5.355   5.274  17.482  0.00  0.00    +0.000 C 
ATOM     13  O4* UNL     1       4.800   5.610  16.189  0.00  0.00    +0.000 OA
ATOM     14  C4* UNL     1       5.781   5.291  15.168  0.00  0.00    +0.000 C 
ATOM     15  C3* UNL     1       7.095   5.047  15.899  0.00  0.00    +0.000 C 
ATOM     16  C2* UNL     1       6.647   4.497  17.244  0.00  0.00    +0.000 C 
BRANCH  15  17
ATOM     17  O3* UNL     1       7.806   6.275  16.146  0.00  0.00    +0.000 OA
ATOM     18  H3* UNL     1       8.624   6.077  16.641  0.00  0.00    +0.000 HD
ENDBRANCH  15  17
BRANCH  16  19
ATOM     19  O2* UNL     1       7.621   4.743  18.258  0.00  0.00    +0.000 OA
ATOM     20  H2* UNL     1       7.309   4.264  19.056  0.00  0.00    +0.000 HD
ENDBRANCH  16  19
BRANCH  14  21
ATOM     21  C5* UNL     1       5.315   4.073  14.362  0.00  0.00    +0.000 C 
BRANCH  21  22
ATOM     22  O5* UNL     1       6.430   3.479  13.699  0.00  0.00    +0.000 OA
ATOM     23  H5* UNL     1       7.094   3.331  14.402  0.00  0.00    +0.000 HD
ENDBRANCH  21  22
ENDBRANCH  14  21
ENDBRANCH  10  12
BRANCH   1  24
ATOM     24  N   UNL     1       0.742   3.184  20.791  0.00  0.00    +0.000 N 
ATOM     25  H   UNL     1      -0.170   3.179  20.358  0.00  0.00    +0.000 HD
ATOM     26  H   UNL     1       0.803   3.040  21.793  0.00  0.00    +0.000 HD
ENDBRANCH   1  24
BRANCH   4  27
ATOM     27  C   UNL     1       1.020   7.998  21.669  0.00  0.00    +0.000 C 
BRANCH  27  28
ATOM     28  C   UNL     1       1.021   9.487  22.037  0.00  0.00    +0.000 C 
BRANCH  28  29
ATOM     29  C   UNL     1      -0.310  10.183  21.690  0.00  0.00    +0.000 C 
ATOM     30  C   UNL     1      -0.216  11.047  20.423  0.00  0.00    +0.000 C 
ATOM     31  C   UNL     1      -1.518  11.800  20.179  0.00  0.00    +0.000 C 
ATOM     32  O   UNL     1      -1.864  12.595  21.310  0.00  0.00    +0.000 OA
ATOM     33  C   UNL     1      -2.070  11.804  22.479  0.00  0.00    +0.000 C 
ATOM     34  C   UNL     1      -0.796  11.056  22.858  0.00  0.00    +0.000 C 
ENDBRANCH  28  29
ENDBRANCH  27  28
ENDBRANCH   4  27
TORSDOF 9
ENDMDL
MODEL 5
REMARK VINA RESULT:      -7.7      4.358      7.410
REMARK  Name = 
REMARK  9 active torsions:
REMARK  status: ('A' for Active; 'I' for Inactive)
REMARK    1  A    between atoms: N_1  and  C_2
REMARK    2  A    between atoms: N_5  and  C_6
REMARK    3  A    between atoms: C_6  and  C_7
REMARK    4  A    between atoms: C_7  and  C_8
REMARK    5  A    between atoms: N_19  and  C1*_20
REMARK    6  A    between atoms: C4*_22  and  C5*_23
REMARK    7  A    between atoms: C5*_23  and  O5*_24
REMARK    8  A    between atoms: C3*_25  and  O3*_26
REMARK    9  A    between atoms: C2*_27  and  O2*_28
REMARK                            x       y       z     vdW  Elec       q    Type
REMARK                         _______ _______ _______ _____ _____    ______ ____
ROOT
ATOM      1  C   UNL     1       1.632   4.032  20.397  0.00  0.00    +0.000 A 
ATOM      2  N   UNL     1       1.471   5.362  20.577  0.00  0.00    +0.000 NA
ATOM      3  C   UNL     1       2.359   6.228  20.043  0.00  0.00    +0.000 A 
ATOM      4  N   UNL     1       2.156   7.599  20.180  0.00  0.00    +0.000 N 
ATOM      5  N   UNL     1       3.458   5.894  19.348  0.00  0.00    +0.000 NA
ATOM      6  C   UNL     1       3.599   4.570  19.201  0.00  0.00    +0.000 A 
ATOM      7  C   UNL     1       2.755   3.589  19.687  0.00  0.00    +0.000 A 
ATOM      8  N   UNL     1       3.209   2.332  19.346  0.00  0.00    +0.000 NA
ATOM      9  C   UNL     1       4.292   2.554  18.629  0.00  0.00    +0.000 A 
ATOM     10  N   UNL     1       4.574   3.894  18.524  0.00  0.00    +0.000 N 
ATOM     11  H   UNL     1       3.040   8.066  20.011  0.00  0.00    +0.000 HD
ENDROOT
BRANCH  10  12
ATOM     12  C1* UNL     1       5.651   4.445  17.722  0.00  0.00    +0.000 C 
ATOM     13  O4* UNL     1       6.930   4.232  18.363  0.00  0.00    +0.000 OA
ATOM     14  C4* UNL     1       7.681   5.473  18.321  0.00  0.00    +0.000 C 
ATOM     15  C3* UNL     1       6.951   6.381  17.338  0.00  0.00    +0.000 C 
ATOM     16  C2* UNL     1       5.502   5.943  17.472  0.00  0.00    +0.000 C 
BRANCH  15  17
ATOM     17  O3* UNL     1       7.357   6.132  15.978  0.00  0.00    +0.000 OA
ATOM     18  H3* UNL     1       8.214   5.667  15.980  0.00  0.00    +0.000 HD
ENDBRANCH  15  17
BRANCH  16  19
ATOM     19  O2* UNL     1       4.760   6.223  16.285  0.00  0.00    +0.000 OA
ATOM     20  H2* UNL     1       3.890   5.783  16.398  0.00  0.00    +0.000 HD
ENDBRANCH  16  19
BRANCH  14  21
ATOM     21  C5* UNL     1       7.772   6.074  19.728  0.00  0.00    +0.000 C 
BRANCH  21  22
ATOM     22  O5* UNL     1       8.388   5.140  20.613  0.00  0.00    +0.000 OA
ATOM     23  H5* UNL     1       7.901   5.230  21.456  0.00  0.00    +0.000 HD
ENDBRANCH  21  22
ENDBRANCH  14  21
ENDBRANCH  10  12
BRANCH   1  24
ATOM     24  N   UNL     1       0.674   3.170  20.916  0.00  0.00    +0.000 N 
ATOM     25  H   UNL     1      -0.227   3.607  21.046  0.00  0.00    +0.000 HD
ATOM     26  H   UNL     1       1.021   2.552  21.641  0.00  0.00    +0.000 HD
ENDBRANCH   1  24
BRANCH   4  27
ATOM     27  C   UNL     1       1.425   7.993  21.368  0.00  0.00    +0.000 C 
BRANCH  27  28
ATOM     28  C   UNL     1      -0.042   8.270  21.017  0.00  0.00    +0.000 C 
BRANCH  28  29
ATOM     29  C   UNL     1      -0.409   9.762  21.148  0.00  0.00    +0.000 C 
ATOM     30  C   UNL     1       0.638  10.689  20.513  0.00  0.00    +0.000 C 
ATOM     31  C   UNL     1       0.292  12.152  20.759  0.00  0.00    +0.000 C 
ATOM     32  O   UNL     1       0.162  12.414  22.154  0.00  0.00    +0.000 OA
ATOM     33  C   UNL     1      -0.883  11.648  22.750  0.00  0.00    +0.000 C 
ATOM     34  C   UNL     1      -0.599  10.155  22.621  0.00  0.00    +0.000 C 
ENDBRANCH  28  29
ENDBRANCH  27  28
ENDBRANCH   4  27
TORSDOF 9
ENDMDL
MODEL 6
REMARK VINA RESULT:      -7.7      0.874      1.161
REMARK  Name = 
REMARK  9 active torsions:
REMARK  status: ('A' for Active; 'I' for Inactive)
REMARK    1  A    between atoms: N_1  and  C_2
REMARK    2  A    between atoms: N_5  and  C_6
REMARK    3  A    between atoms: C_6  and  C_7
REMARK    4  A    between atoms: C_7  and  C_8
REMARK    5  A    between atoms: N_19  and  C1*_20
REMARK    6  A    between atoms: C4*_22  and  C5*_23
REMARK    7  A    between atoms: C5*_23  and  O5*_24
REMARK    8  A    between atoms: C3*_25  and  O3*_26
REMARK    9  A    between atoms: C2*_27  and  O2*_28
REMARK                            x       y       z     vdW  Elec       q    Type
REMARK                         _______ _______ _______ _____ _____    ______ ____
ROOT
ATOM      1  C   UNL     1       6.978   5.530  15.779  0.00  0.00    +0.000 A 
ATOM      2  N   UNL     1       7.499   6.574  16.463  0.00  0.00    +0.000 NA
ATOM      3  C   UNL     1       7.071   6.839  17.717  0.00  0.00    +0.000 A 
ATOM      4  N   UNL     1       7.653   7.876  18.440  0.00  0.00    +0.000 N 
ATOM      5  N   UNL     1       6.115   6.168  18.377  0.00  0.00    +0.000 NA
ATOM      6  C   UNL     1       5.607   5.152  17.667  0.00  0.00    +0.000 A 
ATOM      7  C   UNL     1       5.969   4.774  16.387  0.00  0.00    +0.000 A 
ATOM      8  N   UNL     1       5.237   3.683  15.968  0.00  0.00    +0.000 NA
ATOM      9  C   UNL     1       4.473   3.380  16.998  0.00  0.00    +0.000 A 
ATOM     10  N   UNL     1       4.654   4.249  18.045  0.00  0.00    +0.000 N 
ATOM     11  H   UNL     1       7.023   8.128  19.193  0.00  0.00    +0.000 HD
ENDROOT
BRANCH  10  12
ATOM     12  C1* UNL     1       4.016   4.113  19.343  0.00  0.00    +0.000 C 
ATOM     13  O4* UNL     1       3.543   2.762  19.544  0.00  0.00    +0.000 OA
ATOM     14  C4* UNL     1       2.187   2.819  20.061  0.00  0.00    +0.000 C 
ATOM     15  C3* UNL     1       1.952   4.264  20.484  0.00  0.00    +0.000 C 
ATOM     16  C2* UNL     1       2.827   5.053  19.523  0.00  0.00    +0.000 C 
BRANCH  15  17
ATOM     17  O3* UNL     1       2.433   4.517  21.818  0.00  0.00    +0.000 OA
ATOM     18  H3* UNL     1       2.417   3.684  22.326  0.00  0.00    +0.000 HD
ENDBRANCH  15  17
BRANCH  16  19
ATOM     19  O2* UNL     1       3.211   6.310  20.079  0.00  0.00    +0.000 OA
ATOM     20  H2* UNL     1       2.559   6.505  20.786  0.00  0.00    +0.000 HD
ENDBRANCH  16  19
BRANCH  14  21
ATOM     21  C5* UNL     1       1.201   2.346  18.988  0.00  0.00    +0.000 C 
BRANCH  21  22
ATOM     22  O5* UNL     1       1.882   1.540  18.028  0.00  0.00    +0.000 OA
ATOM     23  H5* UNL     1       1.175   1.164  17.466  0.00  0.00    +0.000 HD
ENDBRANCH  21  22
ENDBRANCH  14  21
ENDBRANCH  10  12
BRANCH   1  24
ATOM     24  N   UNL     1       7.474   5.253  14.511  0.00  0.00    +0.000 N 
ATOM     25  H   UNL     1       8.188   5.902  14.212  0.00  0.00    +0.000 HD
ATOM     26  H   UNL     1       6.767   4.969  13.842  0.00  0.00    +0.000 HD
ENDBRANCH   1  24
BRANCH   4  27
ATOM     27  C   UNL     1       8.177   8.964  17.636  0.00  0.00    +0.000 C 
BRANCH  27  28
ATOM     28  C   UNL     1       9.328   9.658  18.372  0.00  0.00    +0.000 C 
BRANCH  28  29
ATOM     29  C   UNL     1       8.940  11.057  18.892  0.00  0.00    +0.000 C 
ATOM     30  C   UNL     1       9.465  12.190  17.996  0.00  0.00    +0.000 C 
ATOM     31  C   UNL     1       9.154  13.552  18.601  0.00  0.00    +0.000 C 
ATOM     32  O   UNL     1       9.690  13.657  19.918  0.00  0.00    +0.000 OA
ATOM     33  C   UNL     1       9.133  12.687  20.803  0.00  0.00    +0.000 C 
ATOM     34  C   UNL     1       9.450  11.273  20.325  0.00  0.00    +0.000 C 
ENDBRANCH  28  29
ENDBRANCH  27  28
ENDBRANCH   4  27
TORSDOF 9
ENDMDL
MODEL 7
REMARK VINA RESULT:      -7.7      4.389      7.478
REMARK  Name = 
REMARK  9 active torsions:
REMARK  status: ('A' for Active; 'I' for Inactive)
REMARK    1  A    between atoms: N_1  and  C_2
REMARK    2  A    between atoms: N_5  and  C_6
REMARK    3  A    between atoms: C_6  and  C_7
REMARK    4  A    between atoms: C_7  and  C_8
REMARK    5  A    between atoms: N_19  and  C1*_20
REMARK    6  A    between atoms: C4*_22  and  C5*_23
REMARK    7  A    between atoms: C5*_23  and  O5*_24
REMARK    8  A    between atoms: C3*_25  and  O3*_26
REMARK    9  A    between atoms: C2*_27  and  O2*_28
REMARK                            x       y       z     vdW  Elec       q    Type
REMARK                         _______ _______ _______ _____ _____    ______ ____
ROOT
ATOM      1  C   UNL     1       1.654   4.109  20.287  0.00  0.00    +0.000 A 
ATOM      2  N   UNL     1       1.441   5.442  20.358  0.00  0.00    +0.000 NA
ATOM      3  C   UNL     1       2.315   6.296  19.783  0.00  0.00    +0.000 A 
ATOM      4  N   UNL     1       2.060   7.665  19.806  0.00  0.00    +0.000 N 
ATOM      5  N   UNL     1       3.445   5.951  19.147  0.00  0.00    +0.000 NA
ATOM      6  C   UNL     1       3.636   4.625  19.108  0.00  0.00    +0.000 A 
ATOM      7  C   UNL     1       2.813   3.654  19.646  0.00  0.00    +0.000 A 
ATOM      8  N   UNL     1       3.321   2.392  19.418  0.00  0.00    +0.000 NA
ATOM      9  C   UNL     1       4.417   2.598  18.716  0.00  0.00    +0.000 A 
ATOM     10  N   UNL     1       4.655   3.935  18.513  0.00  0.00    +0.000 N 
ATOM     11  H   UNL     1       2.932   8.150  19.625  0.00  0.00    +0.000 HD
ENDROOT
BRANCH  10  12
ATOM     12  C1* UNL     1       5.736   4.462  17.701  0.00  0.00    +0.000 C 
ATOM     13  O4* UNL     1       7.012   4.269  18.355  0.00  0.00    +0.000 OA
ATOM     14  C4* UNL     1       7.762   5.509  18.280  0.00  0.00    +0.000 C 
ATOM     15  C3* UNL     1       7.039   6.386  17.266  0.00  0.00    +0.000 C 
ATOM     16  C2* UNL     1       5.588   5.952  17.406  0.00  0.00    +0.000 C 
BRANCH  15  17
ATOM     17  O3* UNL     1       7.451   6.096  15.916  0.00  0.00    +0.000 OA
ATOM     18  H3* UNL     1       7.592   6.935  15.439  0.00  0.00    +0.000 HD
ENDBRANCH  15  17
BRANCH  16  19
ATOM     19  O2* UNL     1       4.853   6.196  16.207  0.00  0.00    +0.000 OA
ATOM     20  H2* UNL     1       4.442   7.080  16.315  0.00  0.00    +0.000 HD
ENDBRANCH  16  19
BRANCH  14  21
ATOM     21  C5* UNL     1       7.846   6.151  19.669  0.00  0.00    +0.000 C 
BRANCH  21  22
ATOM     22  O5* UNL     1       8.207   5.166  20.635  0.00  0.00    +0.000 OA
ATOM     23  H5* UNL     1       8.858   5.608  21.217  0.00  0.00    +0.000 HD
ENDBRANCH  21  22
ENDBRANCH  14  21
ENDBRANCH  10  12
BRANCH   1  24
ATOM     24  N   UNL     1       0.711   3.254  20.846  0.00  0.00    +0.000 N 
ATOM     25  H   UNL     1      -0.072   3.741  21.259  0.00  0.00    +0.000 HD
ATOM     26  H   UNL     1       1.109   2.465  21.343  0.00  0.00    +0.000 HD
ENDBRANCH   1  24
BRANCH   4  27
ATOM     27  C   UNL     1       1.279   8.122  20.938  0.00  0.00    +0.000 C 
BRANCH  27  28
ATOM     28  C   UNL     1       1.109   9.645  20.881  0.00  0.00    +0.000 C 
BRANCH  28  29
ATOM     29  C   UNL     1      -0.199  10.067  20.181  0.00  0.00    +0.000 C 
ATOM     30  C   UNL     1      -0.092  10.025  18.649  0.00  0.00    +0.000 C 
ATOM     31  C   UNL     1      -1.365  10.552  17.999  0.00  0.00    +0.000 C 
ATOM     32  O   UNL     1      -1.656  11.872  18.451  0.00  0.00    +0.000 OA
ATOM     33  C   UNL     1      -1.873  11.922  19.860  0.00  0.00    +0.000 C 
ATOM     34  C   UNL     1      -0.625  11.478  20.616  0.00  0.00    +0.000 C 
ENDBRANCH  28  29
ENDBRANCH  27  28
ENDBRANCH   4  27
TORSDOF 9
ENDMDL
MODEL 8
REMARK VINA RESULT:      -7.7      1.122      1.637
REMARK  Name = 
REMARK  9 active torsions:
REMARK  status: ('A' for Active; 'I' for Inactive)
REMARK    1  A    between atoms: N_1  and  C_2
REMARK    2  A    between atoms: N_5  and  C_6
REMARK    3  A    between atoms: C_6  and  C_7
REMARK    4  A    between atoms: C_7  and  C_8
REMARK    5  A    between atoms: N_19  and  C1*_20
REMARK    6  A    between atoms: C4*_22  and  C5*_23
REMARK    7  A    between atoms: C5*_23  and  O5*_24
REMARK    8  A    between atoms: C3*_25  and  O3*_26
REMARK    9  A    between atoms: C2*_27  and  O2*_28
REMARK                            x       y       z     vdW  Elec       q    Type
REMARK                         _______ _______ _______ _____ _____    ______ ____
ROOT
ATOM      1  C   UNL     1       7.140   5.644  15.532  0.00  0.00    +0.000 A 
ATOM      2  N   UNL     1       7.623   6.593  16.365  0.00  0.00    +0.000 NA
ATOM      3  C   UNL     1       7.010   6.831  17.545  0.00  0.00    +0.000 A 
ATOM      4  N   UNL     1       7.545   7.766  18.425  0.00  0.00    +0.000 N 
ATOM      5  N   UNL     1       5.899   6.221  17.987  0.00  0.00    +0.000 NA
ATOM      6  C   UNL     1       5.435   5.299  17.132  0.00  0.00    +0.000 A 
ATOM      7  C   UNL     1       5.979   4.957  15.908  0.00  0.00    +0.000 A 
ATOM      8  N   UNL     1       5.239   3.967  15.298  0.00  0.00    +0.000 NA
ATOM      9  C   UNL     1       4.285   3.685  16.161  0.00  0.00    +0.000 A 
ATOM     10  N   UNL     1       4.356   4.474  17.282  0.00  0.00    +0.000 N 
ATOM     11  H   UNL     1       6.818   8.036  19.078  0.00  0.00    +0.000 HD
ENDROOT
BRANCH  10  12
ATOM     12  C1* UNL     1       3.494   4.332  18.442  0.00  0.00    +0.000 C 
ATOM     13  O4* UNL     1       4.269   4.023  19.623  0.00  0.00    +0.000 OA
ATOM     14  C4* UNL     1       3.625   2.929  20.327  0.00  0.00    +0.000 C 
ATOM     15  C3* UNL     1       2.238   2.785  19.712  0.00  0.00    +0.000 C 
ATOM     16  C2* UNL     1       2.448   3.234  18.275  0.00  0.00    +0.000 C 
BRANCH  15  17
ATOM     17  O3* UNL     1       1.288   3.684  20.316  0.00  0.00    +0.000 OA
ATOM     18  H3* UNL     1       0.796   4.147  19.612  0.00  0.00    +0.000 HD
ENDBRANCH  15  17
BRANCH  16  19
ATOM     19  O2* UNL     1       1.237   3.724  17.700  0.00  0.00    +0.000 OA
ATOM     20  H2* UNL     1       0.908   3.013  17.109  0.00  0.00    +0.000 HD
ENDBRANCH  16  19
BRANCH  14  21
ATOM     21  C5* UNL     1       4.468   1.657  20.195  0.00  0.00    +0.000 C 
BRANCH  21  22
ATOM     22  O5* UNL     1       5.328   1.529  21.326  0.00  0.00    +0.000 OA
ATOM     23  H5* UNL     1       5.696   2.424  21.467  0.00  0.00    +0.000 HD
ENDBRANCH  21  22
ENDBRANCH  14  21
ENDBRANCH  10  12
BRANCH   1  24
ATOM     24  N   UNL     1       7.822   5.388  14.348  0.00  0.00    +0.000 N 
ATOM     25  H   UNL     1       8.510   6.094  14.125  0.00  0.00    +0.000 HD
ATOM     26  H   UNL     1       7.238   5.028  13.602  0.00  0.00    +0.000 HD
ENDBRANCH   1  24
BRANCH   4  27
ATOM     27  C   UNL     1       8.292   8.839  17.798  0.00  0.00    +0.000 C 
BRANCH  27  28
ATOM     28  C   UNL     1       8.938   9.728  18.868  0.00  0.00    +0.000 C 
BRANCH  28  29
ATOM     29  C   UNL     1       9.760  10.882  18.259  0.00  0.00    +0.000 C 
ATOM     30  C   UNL     1      10.919  11.327  19.165  0.00  0.00    +0.000 C 
ATOM     31  C   UNL     1      11.636  12.536  18.578  0.00  0.00    +0.000 C 
ATOM     32  O   UNL     1      10.723  13.609  18.359  0.00  0.00    +0.000 OA
ATOM     33  C   UNL     1       9.697  13.261  17.431  0.00  0.00    +0.000 C 
ATOM     34  C   UNL     1       8.866  12.095  17.957  0.00  0.00    +0.000 C 
ENDBRANCH  28  29
ENDBRANCH  27  28
ENDBRANCH   4  27
TORSDOF 9
ENDMDL
MODEL 9
REMARK VINA RESULT:      -7.6      4.418      7.292
REMARK  Name = 
REMARK  9 active torsions:
REMARK  status: ('A' for Active; 'I' for Inactive)
REMARK    1  A    between atoms: N_1  and  C_2
REMARK    2  A    between atoms: N_5  and  C_6
REMARK    3  A    between atoms: C_6  and  C_7
REMARK    4  A    between atoms: C_7  and  C_8
REMARK    5  A    between atoms: N_19  and  C1*_20
REMARK    6  A    between atoms: C4*_22  and  C5*_23
REMARK    7  A    between atoms: C5*_23  and  O5*_24
REMARK    8  A    between atoms: C3*_25  and  O3*_26
REMARK    9  A    between atoms: C2*_27  and  O2*_28
REMARK                            x       y       z     vdW  Elec       q    Type
REMARK                         _______ _______ _______ _____ _____    ______ ____
ROOT
ATOM      1  C   UNL     1       1.646   4.039  20.333  0.00  0.00    +0.000 A 
ATOM      2  N   UNL     1       1.479   5.367  20.524  0.00  0.00    +0.000 NA
ATOM      3  C   UNL     1       2.369   6.240  20.004  0.00  0.00    +0.000 A 
ATOM      4  N   UNL     1       2.160   7.608  20.151  0.00  0.00    +0.000 N 
ATOM      5  N   UNL     1       3.474   5.916  19.314  0.00  0.00    +0.000 NA
ATOM      6  C   UNL     1       3.620   4.593  19.157  0.00  0.00    +0.000 A 
ATOM      7  C   UNL     1       2.775   3.605  19.627  0.00  0.00    +0.000 A 
ATOM      8  N   UNL     1       3.236   2.353  19.280  0.00  0.00    +0.000 NA
ATOM      9  C   UNL     1       4.324   2.585  18.573  0.00  0.00    +0.000 A 
ATOM     10  N   UNL     1       4.602   3.926  18.481  0.00  0.00    +0.000 N 
ATOM     11  H   UNL     1       3.044   8.080  19.993  0.00  0.00    +0.000 HD
ENDROOT
BRANCH  10  12
ATOM     12  C1* UNL     1       5.684   4.487  17.692  0.00  0.00    +0.000 C 
ATOM     13  O4* UNL     1       6.957   4.284  18.348  0.00  0.00    +0.000 OA
ATOM     14  C4* UNL     1       7.698   5.532  18.317  0.00  0.00    +0.000 C 
ATOM     15  C3* UNL     1       6.972   6.434  17.327  0.00  0.00    +0.000 C 
ATOM     16  C2* UNL     1       5.525   5.985  17.444  0.00  0.00    +0.000 C 
BRANCH  15  17
ATOM     17  O3* UNL     1       7.395   6.192  15.971  0.00  0.00    +0.000 OA
ATOM     18  H3* UNL     1       7.706   7.029  15.579  0.00  0.00    +0.000 HD
ENDBRANCH  15  17
BRANCH  16  19
ATOM     19  O2* UNL     1       4.794   6.260  16.249  0.00  0.00    +0.000 OA
ATOM     20  H2* UNL     1       5.326   5.889  15.513  0.00  0.00    +0.000 HD
ENDBRANCH  16  19
BRANCH  14  21
ATOM     21  C5* UNL     1       7.768   6.130  19.726  0.00  0.00    +0.000 C 
BRANCH  21  22
ATOM     22  O5* UNL     1       8.258   5.153  20.642  0.00  0.00    +0.000 OA
ATOM     23  H5* UNL     1       8.206   5.580  21.520  0.00  0.00    +0.000 HD
ENDBRANCH  21  22
ENDBRANCH  14  21
ENDBRANCH  10  12
BRANCH   1  24
ATOM     24  N   UNL     1       0.686   3.169  20.837  0.00  0.00    +0.000 N 
ATOM     25  H   UNL     1      -0.259   3.444  20.611  0.00  0.00    +0.000 HD
ATOM     26  H   UNL     1       0.882   2.833  21.773  0.00  0.00    +0.000 HD
ENDBRANCH   1  24
BRANCH   4  27
ATOM     27  C   UNL     1       1.418   7.990  21.337  0.00  0.00    +0.000 C 
BRANCH  27  28
ATOM     28  C   UNL     1       0.113   8.689  20.940  0.00  0.00    +0.000 C 
BRANCH  28  29
ATOM     29  C   UNL     1       0.320  10.180  20.606  0.00  0.00    +0.000 C 
ATOM     30  C   UNL     1      -0.133  11.112  21.740  0.00  0.00    +0.000 C 
ATOM     31  C   UNL     1      -0.013  12.573  21.327  0.00  0.00    +0.000 C 
ATOM     32  O   UNL     1      -0.756  12.826  20.137  0.00  0.00    +0.000 OA
ATOM     33  C   UNL     1      -0.282  12.055  19.034  0.00  0.00    +0.000 C 
ATOM     34  C   UNL     1      -0.423  10.563  19.316  0.00  0.00    +0.000 C 
ENDBRANCH  28  29
ENDBRANCH  27  28
ENDBRANCH   4  27
TORSDOF 9
ENDMDL
