MODEL 1
REMARK VINA RESULT:      -8.2      0.000      0.000
REMARK  Name = 
REMARK  5 active torsions:
REMARK  status: ('A' for Active; 'I' for Inactive)
REMARK    1  A    between atoms: C_1  and  C_2
REMARK    2  A    between atoms: C_3  and  C_4
REMARK    3  A    between atoms: C_4  and  C_5
REMARK    4  A    between atoms: C_5  and  C_6
REMARK    5  A    between atoms: C_6  and  O_8
REMARK                            x       y       z     vdW  Elec       q    Type
REMARK                         _______ _______ _______ _____ _____    ______ ____
ROOT
ATOM      1  C   UNL     1       4.791   6.987  16.718  0.00  0.00    +0.000 C 
ATOM      2  C   UNL     1       4.356   5.974  17.762  0.00  0.00    +0.000 A 
ATOM      3  C   UNL     1       5.001   4.819  18.034  0.00  0.00    +0.000 A 
ATOM      4  C   UNL     1       4.557   3.962  19.173  0.00  0.00    +0.000 A 
ATOM      5  O   UNL     1       5.071   2.867  19.384  0.00  0.00    +0.000 OA
ATOM      6  O   UNL     1       3.551   4.455  20.016  0.00  0.00    +0.000 OA
ATOM      7  C   UNL     1       2.892   5.680  19.764  0.00  0.00    +0.000 A 
ATOM      8  C   UNL     1       1.944   6.157  20.713  0.00  0.00    +0.000 A 
ATOM      9  C   UNL     1       1.419   7.432  20.444  0.00  0.00    +0.000 A 
ATOM     10  O   UNL     1       0.592   8.239  21.209  0.00  0.00    +0.000 OA
ATOM     11  C   UNL     1       0.486   9.433  20.530  0.00  0.00    +0.000 A 
ATOM     12  C   UNL     1       1.202   9.397  19.371  0.00  0.00    +0.000 A 
ATOM     13  C   UNL     1       1.735   8.113  19.282  0.00  0.00    +0.000 A 
ATOM     14  C   UNL     1       2.568   7.554  18.328  0.00  0.00    +0.000 A 
ATOM     15  C   UNL     1       3.233   6.374  18.610  0.00  0.00    +0.000 A 
ATOM     16  C   UNL     1       1.463  10.516  18.461  0.00  0.00    +0.000 C 
ATOM     17  C   UNL     1       0.872  11.835  18.930  0.00  0.00    +0.000 C 
ATOM     18  C   UNL     1      -0.098  11.838  20.133  0.00  0.00    +0.000 C 
ATOM     19  C   UNL     1      -0.239  10.598  21.061  0.00  0.00    +0.000 C 
ENDROOT
BRANCH   3  20
ATOM     20  C   UNL     1       6.237   4.451  17.234  0.00  0.00    +0.000 C 
BRANCH  20  21
ATOM     21  C   UNL     1       7.638   4.549  17.824  0.00  0.00    +0.000 C 
BRANCH  21  22
ATOM     22  C   UNL     1       7.656   5.660  18.867  0.00  0.00    +0.000 C 
ATOM     23  O   UNL     1       7.509   5.502  20.069  0.00  0.00    +0.000 OA
BRANCH  22  24
ATOM     24  O   UNL     1       7.844   6.882  18.315  0.00  0.00    +0.000 OA
ATOM     25  H   UNL     1       8.487   7.425  18.799  0.00  0.00    +0.000 HD
ENDBRANCH  22  24
ENDBRANCH  21  22
ENDBRANCH  20  21
ENDBRANCH   3  20
TORSDOF 4
ENDMDL
MODEL 2
REMARK VINA RESULT:      -8.1      2.399      3.503
REMARK  Name = 
REMARK  5 active torsions:
REMARK  status: ('A' for Active; 'I' for Inactive)
REMARK    1  A    between atoms: C_1  and  C_2
REMARK    2  A    between atoms: C_3  and  C_4
REMARK    3  A    between atoms: C_4  and  C_5
REMARK    4  A    between atoms: C_5  and  C_6
REMARK    5  A    between atoms: C_6  and  O_8
REMARK                            x       y       z     vdW  Elec       q    Type
REMARK                         _______ _______ _______ _____ _____    ______ ____
ROOT
ATOM      1  C   UNL     1       1.296   4.245  20.985  0.00  0.00    +0.000 C 
ATOM      2  C   UNL     1       2.019   4.795  19.768  0.00  0.00    +0.000 A 
ATOM      3  C   UNL     1       2.476   4.051  18.738  0.00  0.00    +0.000 A 
ATOM      4  C   UNL     1       3.056   4.714  17.532  0.00  0.00    +0.000 A 
ATOM      5  O   UNL     1       3.555   4.057  16.623  0.00  0.00    +0.000 OA
ATOM      6  O   UNL     1       2.989   6.112  17.452  0.00  0.00    +0.000 OA
ATOM      7  C   UNL     1       2.481   6.903  18.509  0.00  0.00    +0.000 A 
ATOM      8  C   UNL     1       2.364   8.309  18.319  0.00  0.00    +0.000 A 
ATOM      9  C   UNL     1       1.748   9.004  19.371  0.00  0.00    +0.000 A 
ATOM     10  O   UNL     1       1.360  10.332  19.462  0.00  0.00    +0.000 OA
ATOM     11  C   UNL     1       0.692  10.456  20.661  0.00  0.00    +0.000 A 
ATOM     12  C   UNL     1       0.659   9.265  21.323  0.00  0.00    +0.000 A 
ATOM     13  C   UNL     1       1.383   8.366  20.544  0.00  0.00    +0.000 A 
ATOM     14  C   UNL     1       1.630   7.016  20.732  0.00  0.00    +0.000 A 
ATOM     15  C   UNL     1       2.090   6.253  19.673  0.00  0.00    +0.000 A 
ATOM     16  C   UNL     1      -0.088   8.959  22.546  0.00  0.00    +0.000 C 
ATOM     17  C   UNL     1      -0.918  10.121  23.063  0.00  0.00    +0.000 C 
ATOM     18  C   UNL     1      -0.730  11.519  22.430  0.00  0.00    +0.000 C 
ATOM     19  C   UNL     1       0.039  11.703  21.091  0.00  0.00    +0.000 C 
ENDROOT
BRANCH   3  20
ATOM     20  C   UNL     1       2.304   2.544  18.775  0.00  0.00    +0.000 C 
BRANCH  20  21
ATOM     21  C   UNL     1       3.491   1.599  18.911  0.00  0.00    +0.000 C 
BRANCH  21  22
ATOM     22  C   UNL     1       4.459   2.170  19.940  0.00  0.00    +0.000 C 
ATOM     23  O   UNL     1       4.378   2.014  21.148  0.00  0.00    +0.000 OA
BRANCH  22  24
ATOM     24  O   UNL     1       5.445   2.902  19.370  0.00  0.00    +0.000 OA
ATOM     25  H   UNL     1       5.983   3.389  20.015  0.00  0.00    +0.000 HD
ENDBRANCH  22  24
ENDBRANCH  21  22
ENDBRANCH  20  21
ENDBRANCH   3  20
TORSDOF 4
ENDMDL
MODEL 3
REMARK VINA RESULT:      -8.0      1.498      1.894
REMARK  Name = 
REMARK  5 active torsions:
REMARK  status: ('A' for Active; 'I' for Inactive)
REMARK    1  A    between atoms: C_1  and  C_2
REMARK    2  A    between atoms: C_3  and  C_4
REMARK    3  A    between atoms: C_4  and  C_5
REMARK    4  A    between atoms: C_5  and  C_6
REMARK    5  A    between atoms: C_6  and  O_8
REMARK                            x       y       z     vdW  Elec       q    Type
REMARK                         _______ _______ _______ _____ _____    ______ ____
ROOT
ATOM      1  C   UNL     1       4.689   7.033  16.555  0.00  0.00    +0.000 C 
ATOM      2  C   UNL     1       4.274   6.049  17.634  0.00  0.00    +0.000 A 
ATOM      3  C   UNL     1       4.902   4.883  17.901  0.00  0.00    +0.000 A 
ATOM      4  C   UNL     1       4.485   4.057  19.072  0.00  0.00    +0.000 A 
ATOM      5  O   UNL     1       4.982   2.955  19.283  0.00  0.00    +0.000 OA
ATOM      6  O   UNL     1       3.525   4.588  19.945  0.00  0.00    +0.000 OA
ATOM      7  C   UNL     1       2.884   5.824  19.697  0.00  0.00    +0.000 A 
ATOM      8  C   UNL     1       1.986   6.339  20.674  0.00  0.00    +0.000 A 
ATOM      9  C   UNL     1       1.480   7.621  20.404  0.00  0.00    +0.000 A 
ATOM     10  O   UNL     1       0.703   8.461  21.186  0.00  0.00    +0.000 OA
ATOM     11  C   UNL     1       0.597   9.645  20.490  0.00  0.00    +0.000 A 
ATOM     12  C   UNL     1       1.265   9.572  19.304  0.00  0.00    +0.000 A 
ATOM     13  C   UNL     1       1.765   8.274  19.217  0.00  0.00    +0.000 A 
ATOM     14  C   UNL     1       2.546   7.680  18.241  0.00  0.00    +0.000 A 
ATOM     15  C   UNL     1       3.195   6.489  18.518  0.00  0.00    +0.000 A 
ATOM     16  C   UNL     1       1.514  10.669  18.364  0.00  0.00    +0.000 C 
ATOM     17  C   UNL     1       0.973  12.009  18.832  0.00  0.00    +0.000 C 
ATOM     18  C   UNL     1       0.053  12.056  20.073  0.00  0.00    +0.000 C 
ATOM     19  C   UNL     1      -0.080  10.836  21.028  0.00  0.00    +0.000 C 
ENDROOT
BRANCH   3  20
ATOM     20  C   UNL     1       6.096   4.473  17.060  0.00  0.00    +0.000 C 
BRANCH  20  21
ATOM     21  C   UNL     1       5.935   3.758  15.724  0.00  0.00    +0.000 C 
BRANCH  21  22
ATOM     22  C   UNL     1       6.738   4.504  14.667  0.00  0.00    +0.000 C 
ATOM     23  O   UNL     1       6.687   4.297  13.464  0.00  0.00    +0.000 OA
BRANCH  22  24
ATOM     24  O   UNL     1       7.552   5.443  15.205  0.00  0.00    +0.000 OA
ATOM     25  H   UNL     1       8.469   5.142  15.308  0.00  0.00    +0.000 HD
ENDBRANCH  22  24
ENDBRANCH  21  22
ENDBRANCH  20  21
ENDBRANCH   3  20
TORSDOF 4
ENDMDL
MODEL 4
REMARK VINA RESULT:      -7.8      2.466      4.069
REMARK  Name = 
REMARK  5 active torsions:
REMARK  status: ('A' for Active; 'I' for Inactive)
REMARK    1  A    between atoms: C_1  and  C_2
REMARK    2  A    between atoms: C_3  and  C_4
REMARK    3  A    between atoms: C_4  and  C_5
REMARK    4  A    between atoms: C_5  and  C_6
REMARK    5  A    between atoms: C_6  and  O_8
REMARK                            x       y       z     vdW  Elec       q    Type
REMARK                         _______ _______ _______ _____ _____    ______ ____
ROOT
ATOM      1  C   UNL     1       2.346   4.867  21.477  0.00  0.00    +0.000 C 
ATOM      2  C   UNL     1       2.744   5.346  20.092  0.00  0.00    +0.000 A 
ATOM      3  C   UNL     1       3.244   4.557  19.116  0.00  0.00    +0.000 A 
ATOM      4  C   UNL     1       3.477   5.112  17.750  0.00  0.00    +0.000 A 
ATOM      5  O   UNL     1       4.011   4.440  16.872  0.00  0.00    +0.000 OA
ATOM      6  O   UNL     1       3.043   6.418  17.486  0.00  0.00    +0.000 OA
ATOM      7  C   UNL     1       2.486   7.244  18.490  0.00  0.00    +0.000 A 
ATOM      8  C   UNL     1       1.987   8.526  18.125  0.00  0.00    +0.000 A 
ATOM      9  C   UNL     1       1.349   9.234  19.156  0.00  0.00    +0.000 A 
ATOM     10  O   UNL     1       0.647  10.429  19.121  0.00  0.00    +0.000 OA
ATOM     11  C   UNL     1       0.125  10.605  20.384  0.00  0.00    +0.000 A 
ATOM     12  C   UNL     1       0.483   9.577  21.205  0.00  0.00    +0.000 A 
ATOM     13  C   UNL     1       1.311   8.747  20.451  0.00  0.00    +0.000 A 
ATOM     14  C   UNL     1       1.919   7.549  20.784  0.00  0.00    +0.000 A 
ATOM     15  C   UNL     1       2.424   6.738  19.782  0.00  0.00    +0.000 A 
ATOM     16  C   UNL     1      -0.000   9.326  22.566  0.00  0.00    +0.000 C 
ATOM     17  C   UNL     1      -1.030  10.335  23.043  0.00  0.00    +0.000 C 
ATOM     18  C   UNL     1      -1.290  11.602  22.197  0.00  0.00    +0.000 C 
ATOM     19  C   UNL     1      -0.768  11.720  20.737  0.00  0.00    +0.000 C 
ENDROOT
BRANCH   3  20
ATOM     20  C   UNL     1       3.472   3.084  19.394  0.00  0.00    +0.000 C 
BRANCH  20  21
ATOM     21  C   UNL     1       2.318   2.124  19.659  0.00  0.00    +0.000 C 
BRANCH  21  22
ATOM     22  C   UNL     1       1.402   2.111  18.442  0.00  0.00    +0.000 C 
ATOM     23  O   UNL     1       0.189   2.251  18.471  0.00  0.00    +0.000 OA
BRANCH  22  24
ATOM     24  O   UNL     1       2.080   1.910  17.287  0.00  0.00    +0.000 OA
ATOM     25  H   UNL     1       2.942   2.354  17.268  0.00  0.00    +0.000 HD
ENDBRANCH  22  24
ENDBRANCH  21  22
ENDBRANCH  20  21
ENDBRANCH   3  20
TORSDOF 4
ENDMDL
MODEL 5
REMARK VINA RESULT:      -7.6      2.147      7.323
REMARK  Name = 
REMARK  5 active torsions:
REMARK  status: ('A' for Active; 'I' for Inactive)
REMARK    1  A    between atoms: C_1  and  C_2
REMARK    2  A    between atoms: C_3  and  C_4
REMARK    3  A    between atoms: C_4  and  C_5
REMARK    4  A    between atoms: C_5  and  C_6
REMARK    5  A    between atoms: C_6  and  O_8
REMARK                            x       y       z     vdW  Elec       q    Type
REMARK                         _______ _______ _______ _____ _____    ______ ____
ROOT
ATOM      1  C   UNL     1       1.874  10.022  17.835  0.00  0.00    +0.000 C 
ATOM      2  C   UNL     1       1.578   9.172  19.058  0.00  0.00    +0.000 A 
ATOM      3  C   UNL     1       0.619   9.440  19.971  0.00  0.00    +0.000 A 
ATOM      4  C   UNL     1       0.329   8.463  21.063  0.00  0.00    +0.000 A 
ATOM      5  O   UNL     1      -0.476   8.723  21.952  0.00  0.00    +0.000 OA
ATOM      6  O   UNL     1       0.984   7.224  21.030  0.00  0.00    +0.000 OA
ATOM      7  C   UNL     1       1.966   6.917  20.059  0.00  0.00    +0.000 A 
ATOM      8  C   UNL     1       2.522   5.607  20.036  0.00  0.00    +0.000 A 
ATOM      9  C   UNL     1       3.404   5.351  18.974  0.00  0.00    +0.000 A 
ATOM     10  O   UNL     1       4.011   4.169  18.579  0.00  0.00    +0.000 OA
ATOM     11  C   UNL     1       4.675   4.453  17.406  0.00  0.00    +0.000 A 
ATOM     12  C   UNL     1       4.516   5.762  17.062  0.00  0.00    +0.000 A 
ATOM     13  C   UNL     1       3.773   6.346  18.085  0.00  0.00    +0.000 A 
ATOM     14  C   UNL     1       3.299   7.640  18.221  0.00  0.00    +0.000 A 
ATOM     15  C   UNL     1       2.311   7.911  19.152  0.00  0.00    +0.000 A 
ATOM     16  C   UNL     1       4.936   6.402  15.812  0.00  0.00    +0.000 C 
ATOM     17  C   UNL     1       5.582   5.447  14.824  0.00  0.00    +0.000 C 
ATOM     18  C   UNL     1       5.938   4.015  15.285  0.00  0.00    +0.000 C 
ATOM     19  C   UNL     1       5.377   3.430  16.613  0.00  0.00    +0.000 C 
ENDROOT
BRANCH   3  20
ATOM     20  C   UNL     1      -0.226  10.691  19.818  0.00  0.00    +0.000 C 
BRANCH  20  21
ATOM     21  C   UNL     1      -1.490  10.712  18.967  0.00  0.00    +0.000 C 
BRANCH  21  22
ATOM     22  C   UNL     1      -1.475  11.961  18.096  0.00  0.00    +0.000 C 
ATOM     23  O   UNL     1      -0.670  12.875  18.185  0.00  0.00    +0.000 OA
BRANCH  22  24
ATOM     24  O   UNL     1      -2.481  11.969  17.189  0.00  0.00    +0.000 OA
ATOM     25  H   UNL     1      -2.215  11.628  16.320  0.00  0.00    +0.000 HD
ENDBRANCH  22  24
ENDBRANCH  21  22
ENDBRANCH  20  21
ENDBRANCH   3  20
TORSDOF 4
ENDMDL
MODEL 6
REMARK VINA RESULT:      -7.5      1.049      1.274
REMARK  Name = 
REMARK  5 active torsions:
REMARK  status: ('A' for Active; 'I' for Inactive)
REMARK    1  A    between atoms: C_1  and  C_2
REMARK    2  A    between atoms: C_3  and  C_4
REMARK    3  A    between atoms: C_4  and  C_5
REMARK    4  A    between atoms: C_5  and  C_6
REMARK    5  A    between atoms: C_6  and  O_8
REMARK                            x       y       z     vdW  Elec       q    Type
REMARK                         _______ _______ _______ _____ _____    ______ ____
ROOT
ATOM      1  C   UNL     1       4.275   7.001  16.607  0.00  0.00    +0.000 C 
ATOM      2  C   UNL     1       3.823   6.070  17.718  0.00  0.00    +0.000 A 
ATOM      3  C   UNL     1       4.357   4.856  17.974  0.00  0.00    +0.000 A 
ATOM      4  C   UNL     1       3.922   4.083  19.175  0.00  0.00    +0.000 A 
ATOM      5  O   UNL     1       4.328   2.943  19.380  0.00  0.00    +0.000 OA
ATOM      6  O   UNL     1       3.053   4.707  20.081  0.00  0.00    +0.000 OA
ATOM      7  C   UNL     1       2.513   5.992  19.843  0.00  0.00    +0.000 A 
ATOM      8  C   UNL     1       1.709   6.596  20.851  0.00  0.00    +0.000 A 
ATOM      9  C   UNL     1       1.307   7.914  20.583  0.00  0.00    +0.000 A 
ATOM     10  O   UNL     1       0.643   8.829  21.386  0.00  0.00    +0.000 OA
ATOM     11  C   UNL     1       0.611  10.010  20.678  0.00  0.00    +0.000 A 
ATOM     12  C   UNL     1       1.216   9.865  19.465  0.00  0.00    +0.000 A 
ATOM     13  C   UNL     1       1.594   8.527  19.376  0.00  0.00    +0.000 A 
ATOM     14  C   UNL     1       2.275   7.854  18.375  0.00  0.00    +0.000 A 
ATOM     15  C   UNL     1       2.828   6.614  18.641  0.00  0.00    +0.000 A 
ATOM     16  C   UNL     1       1.518  10.925  18.499  0.00  0.00    +0.000 C 
ATOM     17  C   UNL     1       1.120  12.312  18.970  0.00  0.00    +0.000 C 
ATOM     18  C   UNL     1       0.263  12.455  20.249  0.00  0.00    +0.000 C 
ATOM     19  C   UNL     1       0.067  11.262  21.227  0.00  0.00    +0.000 C 
ENDROOT
BRANCH   3  20
ATOM     20  C   UNL     1       5.471   4.332  17.088  0.00  0.00    +0.000 C 
BRANCH  20  21
ATOM     21  C   UNL     1       6.938   4.629  17.374  0.00  0.00    +0.000 C 
BRANCH  21  22
ATOM     22  C   UNL     1       7.410   5.729  16.432  0.00  0.00    +0.000 C 
ATOM     23  O   UNL     1       7.740   6.855  16.770  0.00  0.00    +0.000 OA
BRANCH  22  24
ATOM     24  O   UNL     1       7.418   5.331  15.138  0.00  0.00    +0.000 OA
ATOM     25  H   UNL     1       8.061   5.814  14.593  0.00  0.00    +0.000 HD
ENDBRANCH  22  24
ENDBRANCH  21  22
ENDBRANCH  20  21
ENDBRANCH   3  20
TORSDOF 4
ENDMDL
MODEL 7
REMARK VINA RESULT:      -7.4      2.225      3.913
REMARK  Name = 
REMARK  5 active torsions:
REMARK  status: ('A' for Active; 'I' for Inactive)
REMARK    1  A    between atoms: C_1  and  C_2
REMARK    2  A    between atoms: C_3  and  C_4
REMARK    3  A    between atoms: C_4  and  C_5
REMARK    4  A    between atoms: C_5  and  C_6
REMARK    5  A    between atoms: C_6  and  O_8
REMARK                            x       y       z     vdW  Elec       q    Type
REMARK                         _______ _______ _______ _____ _____    ______ ____
ROOT
ATOM      1  C   UNL     1       2.108   4.935  21.284  0.00  0.00    +0.000 C 
ATOM      2  C   UNL     1       2.840   5.160  19.973  0.00  0.00    +0.000 A 
ATOM      3  C   UNL     1       3.459   4.197  19.257  0.00  0.00    +0.000 A 
ATOM      4  C   UNL     1       4.034   4.510  17.916  0.00  0.00    +0.000 A 
ATOM      5  O   UNL     1       4.676   3.675  17.287  0.00  0.00    +0.000 OA
ATOM      6  O   UNL     1       3.796   5.783  17.378  0.00  0.00    +0.000 OA
ATOM      7  C   UNL     1       3.118   6.791  18.102  0.00  0.00    +0.000 A 
ATOM      8  C   UNL     1       2.837   8.029  17.456  0.00  0.00    +0.000 A 
ATOM      9  C   UNL     1       2.064   8.931  18.204  0.00  0.00    +0.000 A 
ATOM     10  O   UNL     1       1.506  10.146  17.842  0.00  0.00    +0.000 OA
ATOM     11  C   UNL     1       0.744  10.554  18.915  0.00  0.00    +0.000 A 
ATOM     12  C   UNL     1       0.815   9.649  19.932  0.00  0.00    +0.000 A 
ATOM     13  C   UNL     1       1.701   8.660  19.512  0.00  0.00    +0.000 A 
ATOM     14  C   UNL     1       2.103   7.493  20.140  0.00  0.00    +0.000 A 
ATOM     15  C   UNL     1       2.731   6.503  19.405  0.00  0.00    +0.000 A 
ATOM     16  C   UNL     1       0.028   9.650  21.169  0.00  0.00    +0.000 C 
ATOM     17  C   UNL     1      -0.977  10.785  21.252  0.00  0.00    +0.000 C 
ATOM     18  C   UNL     1      -0.924  11.915  20.199  0.00  0.00    +0.000 C 
ATOM     19  C   UNL     1      -0.091  11.766  18.894  0.00  0.00    +0.000 C 
ENDROOT
BRANCH   3  20
ATOM     20  C   UNL     1       3.477   2.774  19.785  0.00  0.00    +0.000 C 
BRANCH  20  21
ATOM     21  C   UNL     1       2.245   1.880  19.736  0.00  0.00    +0.000 C 
BRANCH  21  22
ATOM     22  C   UNL     1       1.472   2.178  18.458  0.00  0.00    +0.000 C 
ATOM     23  O   UNL     1       0.377   2.715  18.404  0.00  0.00    +0.000 OA
BRANCH  22  24
ATOM     24  O   UNL     1       2.130   1.766  17.349  0.00  0.00    +0.000 OA
ATOM     25  H   UNL     1       1.915   0.855  17.091  0.00  0.00    +0.000 HD
ENDBRANCH  22  24
ENDBRANCH  21  22
ENDBRANCH  20  21
ENDBRANCH   3  20
TORSDOF 4
ENDMDL
MODEL 8
REMARK VINA RESULT:      -7.4      2.320      3.119
REMARK  Name = 
REMARK  5 active torsions:
REMARK  status: ('A' for Active; 'I' for Inactive)
REMARK    1  A    between atoms: C_1  and  C_2
REMARK    2  A    between atoms: C_3  and  C_4
REMARK    3  A    between atoms: C_4  and  C_5
REMARK    4  A    between atoms: C_5  and  C_6
REMARK    5  A    between atoms: C_6  and  O_8
REMARK                            x       y       z     vdW  Elec       q    Type
REMARK                         _______ _______ _______ _____ _____    ______ ____
ROOT
ATOM      1  C   UNL     1       4.086   6.870  17.450  0.00  0.00    +0.000 C 
ATOM      2  C   UNL     1       3.236   6.359  18.600  0.00  0.00    +0.000 A 
ATOM      3  C   UNL     1       3.378   5.152  19.189  0.00  0.00    +0.000 A 
ATOM      4  C   UNL     1       2.572   4.808  20.399  0.00  0.00    +0.000 A 
ATOM      5  O   UNL     1       2.621   3.689  20.899  0.00  0.00    +0.000 OA
ATOM      6  O   UNL     1       1.776   5.812  20.967  0.00  0.00    +0.000 OA
ATOM      7  C   UNL     1       1.644   7.092  20.379  0.00  0.00    +0.000 A 
ATOM      8  C   UNL     1       0.888   8.086  21.062  0.00  0.00    +0.000 A 
ATOM      9  C   UNL     1       0.901   9.359  20.469  0.00  0.00    +0.000 A 
ATOM     10  O   UNL     1       0.393  10.565  20.925  0.00  0.00    +0.000 OA
ATOM     11  C   UNL     1       0.789  11.518  20.012  0.00  0.00    +0.000 A 
ATOM     12  C   UNL     1       1.511  10.954  19.003  0.00  0.00    +0.000 A 
ATOM     13  C   UNL     1       1.524   9.583  19.253  0.00  0.00    +0.000 A 
ATOM     14  C   UNL     1       2.143   8.554  18.565  0.00  0.00    +0.000 A 
ATOM     15  C   UNL     1       2.295   7.320  19.173  0.00  0.00    +0.000 A 
ATOM     16  C   UNL     1       2.231  11.655  17.936  0.00  0.00    +0.000 C 
ATOM     17  C   UNL     1       2.153  13.168  18.039  0.00  0.00    +0.000 C 
ATOM     18  C   UNL     1       1.182  13.803  19.060  0.00  0.00    +0.000 C 
ATOM     19  C   UNL     1       0.524  12.955  20.186  0.00  0.00    +0.000 C 
ENDROOT
BRANCH   3  20
ATOM     20  C   UNL     1       4.432   4.191  18.673  0.00  0.00    +0.000 C 
BRANCH  20  21
ATOM     21  C   UNL     1       4.181   3.287  17.472  0.00  0.00    +0.000 C 
BRANCH  21  22
ATOM     22  C   UNL     1       2.851   2.570  17.667  0.00  0.00    +0.000 C 
ATOM     23  O   UNL     1       1.794   2.887  17.144  0.00  0.00    +0.000 OA
BRANCH  22  24
ATOM     24  O   UNL     1       2.951   1.517  18.514  0.00  0.00    +0.000 OA
ATOM     25  H   UNL     1       2.094   1.118  18.732  0.00  0.00    +0.000 HD
ENDBRANCH  22  24
ENDBRANCH  21  22
ENDBRANCH  20  21
ENDBRANCH   3  20
TORSDOF 4
ENDMDL
MODEL 9
REMARK VINA RESULT:      -7.4      1.377      2.565
REMARK  Name = 
REMARK  5 active torsions:
REMARK  status: ('A' for Active; 'I' for Inactive)
REMARK    1  A    between atoms: C_1  and  C_2
REMARK    2  A    between atoms: C_3  and  C_4
REMARK    3  A    between atoms: C_4  and  C_5
REMARK    4  A    between atoms: C_5  and  C_6
REMARK    5  A    between atoms: C_6  and  O_8
REMARK                            x       y       z     vdW  Elec       q    Type
REMARK                         _______ _______ _______ _____ _____    ______ ____
ROOT
ATOM      1  C   UNL     1       3.067   7.946  17.166  0.00  0.00    +0.000 C 
ATOM      2  C   UNL     1       2.566   7.248  18.418  0.00  0.00    +0.000 A 
ATOM      3  C   UNL     1       2.885   5.987  18.781  0.00  0.00    +0.000 A 
ATOM      4  C   UNL     1       2.438   5.450  20.100  0.00  0.00    +0.000 A 
ATOM      5  O   UNL     1       2.642   4.281  20.414  0.00  0.00    +0.000 OA
ATOM      6  O   UNL     1       1.802   6.328  20.988  0.00  0.00    +0.000 OA
ATOM      7  C   UNL     1       1.492   7.662  20.634  0.00  0.00    +0.000 A 
ATOM      8  C   UNL     1       0.924   8.520  21.619  0.00  0.00    +0.000 A 
ATOM      9  C   UNL     1       0.753   9.855  21.221  0.00  0.00    +0.000 A 
ATOM     10  O   UNL     1       0.360  10.964  21.954  0.00  0.00    +0.000 OA
ATOM     11  C   UNL     1       0.477  12.045  21.107  0.00  0.00    +0.000 A 
ATOM     12  C   UNL     1       0.915  11.652  19.878  0.00  0.00    +0.000 A 
ATOM     13  C   UNL     1       1.024  10.264  19.927  0.00  0.00    +0.000 A 
ATOM     14  C   UNL     1       1.458   9.365  18.968  0.00  0.00    +0.000 A 
ATOM     15  C   UNL     1       1.792   8.076  19.342  0.00  0.00    +0.000 A 
ATOM     16  C   UNL     1       1.310  12.520  18.765  0.00  0.00    +0.000 C 
ATOM     17  C   UNL     1       1.231  14.002  19.088  0.00  0.00    +0.000 C 
ATOM     18  C   UNL     1       0.554  14.449  20.403  0.00  0.00    +0.000 C 
ATOM     19  C   UNL     1       0.239  13.432  21.537  0.00  0.00    +0.000 C 
ENDROOT
BRANCH   3  20
ATOM     20  C   UNL     1       3.783   5.159  17.881  0.00  0.00    +0.000 C 
BRANCH  20  21
ATOM     21  C   UNL     1       5.291   5.370  17.830  0.00  0.00    +0.000 C 
BRANCH  21  22
ATOM     22  C   UNL     1       5.914   4.767  19.083  0.00  0.00    +0.000 C 
ATOM     23  O   UNL     1       6.723   5.326  19.807  0.00  0.00    +0.000 OA
BRANCH  22  24
ATOM     24  O   UNL     1       5.481   3.506  19.319  0.00  0.00    +0.000 OA
ATOM     25  H   UNL     1       5.379   2.979  18.511  0.00  0.00    +0.000 HD
ENDBRANCH  22  24
ENDBRANCH  21  22
ENDBRANCH  20  21
ENDBRANCH   3  20
TORSDOF 4
ENDMDL
