MODEL 1
REMARK VINA RESULT:      -8.9      0.000      0.000
REMARK  Name = 
REMARK  5 active torsions:
REMARK  status: ('A' for Active; 'I' for Inactive)
REMARK    1  A    between atoms: C_1  and  O_2
REMARK    2  A    between atoms: O_2  and  C_3
REMARK    3  A    between atoms: C_8  and  C_9
REMARK    4  A    between atoms: C_11  and  C_12
REMARK    5  A    between atoms: C_21  and  N_22
REMARK                            x       y       z     vdW  Elec       q    Type
REMARK                         _______ _______ _______ _____ _____    ______ ____
ROOT
ATOM      1  C   UNL     1       3.175   6.804  18.853  0.00  0.00    +0.000 A 
ATOM      2  N   UNL     1       4.065   6.870  17.816  0.00  0.00    +0.000 NA
ATOM      3  C   UNL     1       4.905   5.794  17.712  0.00  0.00    +0.000 A 
ATOM      4  C   UNL     1       4.871   4.710  18.605  0.00  0.00    +0.000 A 
ATOM      5  N   UNL     1       5.628   3.553  18.489  0.00  0.00    +0.000 N 
ATOM      6  N   UNL     1       3.985   4.679  19.627  0.00  0.00    +0.000 NA
ATOM      7  C   UNL     1       3.137   5.721  19.752  0.00  0.00    +0.000 A 
ATOM      8  H   UNL     1       6.609   3.726  18.279  0.00  0.00    +0.000 HD
ATOM      9  H   UNL     1       5.469   2.954  19.291  0.00  0.00    +0.000 HD
ENDROOT
BRANCH   3  10
ATOM     10  C   UNL     1       5.889   5.843  16.579  0.00  0.00    +0.000 C 
ATOM     11  O   UNL     1       6.718   6.745  16.475  0.00  0.00    +0.000 OA
ATOM     12  N   UNL     1       5.762   4.818  15.647  0.00  0.00    +0.000 N 
ATOM     13  C   UNL     1       6.537   4.626  14.538  0.00  0.00    +0.000 C 
ATOM     14  N   UNL     1       7.552   5.365  14.255  0.00  0.00    +0.000 NA
ATOM     15  N   UNL     1       6.231   3.610  13.705  0.00  0.00    +0.000 N 
ATOM     16  H   UNL     1       4.981   4.190  15.787  0.00  0.00    +0.000 HD
ATOM     17  H   UNL     1       7.639   6.093  14.985  0.00  0.00    +0.000 HD
ATOM     18  H   UNL     1       5.889   2.754  14.116  0.00  0.00    +0.000 HD
ATOM     19  H   UNL     1       6.990   3.453  13.046  0.00  0.00    +0.000 HD
ENDBRANCH   3  10
BRANCH   1  25
ATOM     20  C   UNL     1      -0.761  10.964  20.476  0.00  0.00    +0.000 A 
ATOM     21  C   UNL     1      -0.923  11.222  19.111  0.00  0.00    +0.000 A 
ATOM     22  C   UNL     1      -0.175  10.534  18.144  0.00  0.00    +0.000 A 
ATOM     23  C   UNL     1       0.743   9.562  18.566  0.00  0.00    +0.000 A 
ATOM     24  C   UNL     1       1.644   8.682  17.920  0.00  0.00    +0.000 A 
ATOM     25  C   UNL     1       2.230   7.913  18.902  0.00  0.00    +0.000 A 
ATOM     26  O   UNL     1       1.782   8.318  20.134  0.00  0.00    +0.000 OA
ATOM     27  C   UNL     1       0.871   9.313  19.929  0.00  0.00    +0.000 A 
ATOM     28  C   UNL     1       0.151   9.989  20.911  0.00  0.00    +0.000 A 
BRANCH  20  30
ATOM     29  C   UNL     1      -1.108  11.227  22.817  0.00  0.00    +0.000 C 
ATOM     30  O   UNL     1      -1.440  11.602  21.483  0.00  0.00    +0.000 OA
ENDBRANCH  20  30
ENDBRANCH   1  25
BRANCH   7  31
ATOM     31  N   UNL     1       2.163   5.561  20.734  0.00  0.00    +0.000 N 
ATOM     32  H   UNL     1       1.594   6.400  20.781  0.00  0.00    +0.000 HD
ATOM     33  H   UNL     1       1.628   4.704  20.622  0.00  0.00    +0.000 HD
ENDBRANCH   7  31
TORSDOF 4
ENDMDL
MODEL 2
REMARK VINA RESULT:      -8.8      1.703      2.073
REMARK  Name = 
REMARK  5 active torsions:
REMARK  status: ('A' for Active; 'I' for Inactive)
REMARK    1  A    between atoms: C_1  and  O_2
REMARK    2  A    between atoms: O_2  and  C_3
REMARK    3  A    between atoms: C_8  and  C_9
REMARK    4  A    between atoms: C_11  and  C_12
REMARK    5  A    between atoms: C_21  and  N_22
REMARK                            x       y       z     vdW  Elec       q    Type
REMARK                         _______ _______ _______ _____ _____    ______ ____
ROOT
ATOM      1  C   UNL     1       2.517   5.649  19.359  0.00  0.00    +0.000 A 
ATOM      2  N   UNL     1       3.569   5.717  18.486  0.00  0.00    +0.000 NA
ATOM      3  C   UNL     1       4.020   4.506  18.035  0.00  0.00    +0.000 A 
ATOM      4  C   UNL     1       3.461   3.283  18.443  0.00  0.00    +0.000 A 
ATOM      5  N   UNL     1       3.811   2.037  17.944  0.00  0.00    +0.000 N 
ATOM      6  N   UNL     1       2.428   3.249  19.314  0.00  0.00    +0.000 NA
ATOM      7  C   UNL     1       1.953   4.426  19.771  0.00  0.00    +0.000 A 
ATOM      8  H   UNL     1       4.817   1.891  17.881  0.00  0.00    +0.000 HD
ATOM      9  H   UNL     1       3.311   1.311  18.444  0.00  0.00    +0.000 HD
ENDROOT
BRANCH   3  10
ATOM     10  C   UNL     1       5.173   4.558  17.074  0.00  0.00    +0.000 C 
ATOM     11  O   UNL     1       5.403   3.645  16.284  0.00  0.00    +0.000 OA
ATOM     12  N   UNL     1       5.971   5.693  17.177  0.00  0.00    +0.000 N 
ATOM     13  C   UNL     1       7.066   5.988  16.415  0.00  0.00    +0.000 C 
ATOM     14  N   UNL     1       7.459   5.252  15.436  0.00  0.00    +0.000 NA
ATOM     15  N   UNL     1       7.764   7.108  16.696  0.00  0.00    +0.000 N 
ATOM     16  H   UNL     1       5.739   6.328  17.930  0.00  0.00    +0.000 HD
ATOM     17  H   UNL     1       6.824   4.439  15.364  0.00  0.00    +0.000 HD
ATOM     18  H   UNL     1       7.245   7.920  16.997  0.00  0.00    +0.000 HD
ATOM     19  H   UNL     1       8.416   7.316  15.943  0.00  0.00    +0.000 HD
ENDBRANCH   3  10
BRANCH   1  25
ATOM     20  C   UNL     1      -0.104  10.184  22.186  0.00  0.00    +0.000 A 
ATOM     21  C   UNL     1       0.097  10.920  21.014  0.00  0.00    +0.000 A 
ATOM     22  C   UNL     1       0.759  10.364  19.908  0.00  0.00    +0.000 A 
ATOM     23  C   UNL     1       1.212   9.040  19.986  0.00  0.00    +0.000 A 
ATOM     24  C   UNL     1       1.889   8.156  19.114  0.00  0.00    +0.000 A 
ATOM     25  C   UNL     1       1.990   6.945  19.765  0.00  0.00    +0.000 A 
ATOM     26  O   UNL     1       1.463   7.056  21.027  0.00  0.00    +0.000 OA
ATOM     27  C   UNL     1       0.981   8.325  21.157  0.00  0.00    +0.000 A 
ATOM     28  C   UNL     1       0.340   8.855  22.275  0.00  0.00    +0.000 A 
BRANCH  20  30
ATOM     29  C   UNL     1      -1.647  11.729  23.136  0.00  0.00    +0.000 C 
ATOM     30  O   UNL     1      -0.725  10.656  23.314  0.00  0.00    +0.000 OA
ENDBRANCH  20  30
ENDBRANCH   1  25
BRANCH   7  31
ATOM     31  N   UNL     1       0.804   4.325  20.551  0.00  0.00    +0.000 N 
ATOM     32  H   UNL     1       0.312   5.213  20.540  0.00  0.00    +0.000 HD
ATOM     33  H   UNL     1       0.226   3.528  20.299  0.00  0.00    +0.000 HD
ENDBRANCH   7  31
TORSDOF 4
ENDMDL
MODEL 3
REMARK VINA RESULT:      -8.7      1.551      1.802
REMARK  Name = 
REMARK  5 active torsions:
REMARK  status: ('A' for Active; 'I' for Inactive)
REMARK    1  A    between atoms: C_1  and  O_2
REMARK    2  A    between atoms: O_2  and  C_3
REMARK    3  A    between atoms: C_8  and  C_9
REMARK    4  A    between atoms: C_11  and  C_12
REMARK    5  A    between atoms: C_21  and  N_22
REMARK                            x       y       z     vdW  Elec       q    Type
REMARK                         _______ _______ _______ _____ _____    ______ ____
ROOT
ATOM      1  C   UNL     1       2.620   5.647  19.678  0.00  0.00    +0.000 A 
ATOM      2  N   UNL     1       3.826   5.680  19.034  0.00  0.00    +0.000 NA
ATOM      3  C   UNL     1       4.324   4.453  18.685  0.00  0.00    +0.000 A 
ATOM      4  C   UNL     1       3.660   3.250  18.975  0.00  0.00    +0.000 A 
ATOM      5  N   UNL     1       4.067   1.990  18.560  0.00  0.00    +0.000 N 
ATOM      6  N   UNL     1       2.472   3.250  19.622  0.00  0.00    +0.000 NA
ATOM      7  C   UNL     1       1.949   4.444  19.971  0.00  0.00    +0.000 A 
ATOM      8  H   UNL     1       5.060   1.816  18.700  0.00  0.00    +0.000 HD
ATOM      9  H   UNL     1       3.456   1.282  18.951  0.00  0.00    +0.000 HD
ENDROOT
BRANCH   3  10
ATOM     10  C   UNL     1       5.647   4.466  17.975  0.00  0.00    +0.000 C 
ATOM     11  O   UNL     1       6.713   4.440  18.585  0.00  0.00    +0.000 OA
ATOM     12  N   UNL     1       5.567   4.546  16.588  0.00  0.00    +0.000 N 
ATOM     13  C   UNL     1       6.616   4.559  15.712  0.00  0.00    +0.000 C 
ATOM     14  N   UNL     1       7.841   4.429  16.083  0.00  0.00    +0.000 NA
ATOM     15  N   UNL     1       6.355   4.706  14.397  0.00  0.00    +0.000 N 
ATOM     16  H   UNL     1       4.636   4.659  16.206  0.00  0.00    +0.000 HD
ATOM     17  H   UNL     1       7.861   4.336  17.113  0.00  0.00    +0.000 HD
ATOM     18  H   UNL     1       5.525   4.265  14.032  0.00  0.00    +0.000 HD
ATOM     19  H   UNL     1       7.186   4.496  13.847  0.00  0.00    +0.000 HD
ENDBRANCH   3  10
BRANCH   1  25
ATOM     20  C   UNL     1      -0.022  10.379  22.139  0.00  0.00    +0.000 A 
ATOM     21  C   UNL     1       0.064  10.977  20.878  0.00  0.00    +0.000 A 
ATOM     22  C   UNL     1       0.676  10.320  19.799  0.00  0.00    +0.000 A 
ATOM     23  C   UNL     1       1.197   9.035  19.999  0.00  0.00    +0.000 A 
ATOM     24  C   UNL     1       1.856   8.080  19.189  0.00  0.00    +0.000 A 
ATOM     25  C   UNL     1       2.059   6.961  19.967  0.00  0.00    +0.000 A 
ATOM     26  O   UNL     1       1.613   7.200  21.243  0.00  0.00    +0.000 OA
ATOM     27  C   UNL     1       1.080   8.456  21.259  0.00  0.00    +0.000 A 
ATOM     28  C   UNL     1       0.491   9.089  22.350  0.00  0.00    +0.000 A 
BRANCH  20  30
ATOM     29  C   UNL     1      -1.627  11.907  23.013  0.00  0.00    +0.000 C 
ATOM     30  O   UNL     1      -0.589  10.958  23.246  0.00  0.00    +0.000 OA
ENDBRANCH  20  30
ENDBRANCH   1  25
BRANCH   7  31
ATOM     31  N   UNL     1       0.665   4.380  20.506  0.00  0.00    +0.000 N 
ATOM     32  H   UNL     1      -0.012   4.572  19.774  0.00  0.00    +0.000 HD
ATOM     33  H   UNL     1       0.492   3.517  21.013  0.00  0.00    +0.000 HD
ENDBRANCH   7  31
TORSDOF 4
ENDMDL
MODEL 4
REMARK VINA RESULT:      -8.2      2.107      3.669
REMARK  Name = 
REMARK  5 active torsions:
REMARK  status: ('A' for Active; 'I' for Inactive)
REMARK    1  A    between atoms: C_1  and  O_2
REMARK    2  A    between atoms: O_2  and  C_3
REMARK    3  A    between atoms: C_8  and  C_9
REMARK    4  A    between atoms: C_11  and  C_12
REMARK    5  A    between atoms: C_21  and  N_22
REMARK                            x       y       z     vdW  Elec       q    Type
REMARK                         _______ _______ _______ _____ _____    ______ ____
ROOT
ATOM      1  C   UNL     1       2.218   7.882  19.103  0.00  0.00    +0.000 A 
ATOM      2  N   UNL     1       2.766   6.692  19.494  0.00  0.00    +0.000 NA
ATOM      3  C   UNL     1       3.631   6.134  18.591  0.00  0.00    +0.000 A 
ATOM      4  C   UNL     1       3.924   6.725  17.350  0.00  0.00    +0.000 A 
ATOM      5  N   UNL     1       4.863   6.256  16.443  0.00  0.00    +0.000 N 
ATOM      6  N   UNL     1       3.357   7.898  16.988  0.00  0.00    +0.000 NA
ATOM      7  C   UNL     1       2.508   8.479  17.861  0.00  0.00    +0.000 A 
ATOM      8  H   UNL     1       4.809   5.252  16.282  0.00  0.00    +0.000 HD
ATOM      9  H   UNL     1       4.841   6.819  15.600  0.00  0.00    +0.000 HD
ENDROOT
BRANCH   3  10
ATOM     10  C   UNL     1       4.247   4.828  19.001  0.00  0.00    +0.000 C 
ATOM     11  O   UNL     1       5.368   4.765  19.501  0.00  0.00    +0.000 OA
ATOM     12  N   UNL     1       3.470   3.704  18.737  0.00  0.00    +0.000 N 
ATOM     13  C   UNL     1       3.792   2.407  19.022  0.00  0.00    +0.000 C 
ATOM     14  N   UNL     1       4.863   2.072  19.651  0.00  0.00    +0.000 NA
ATOM     15  N   UNL     1       2.943   1.432  18.635  0.00  0.00    +0.000 N 
ATOM     16  H   UNL     1       2.608   3.873  18.234  0.00  0.00    +0.000 HD
ATOM     17  H   UNL     1       5.398   2.932  19.864  0.00  0.00    +0.000 HD
ATOM     18  H   UNL     1       1.954   1.627  18.682  0.00  0.00    +0.000 HD
ATOM     19  H   UNL     1       3.191   0.551  19.081  0.00  0.00    +0.000 HD
ENDBRANCH   3  10
BRANCH   1  25
ATOM     20  C   UNL     1      -1.395  11.481  22.174  0.00  0.00    +0.000 A 
ATOM     21  C   UNL     1      -1.127  10.667  23.279  0.00  0.00    +0.000 A 
ATOM     22  C   UNL     1      -0.307   9.534  23.169  0.00  0.00    +0.000 A 
ATOM     23  C   UNL     1       0.260   9.229  21.924  0.00  0.00    +0.000 A 
ATOM     24  C   UNL     1       1.116   8.215  21.430  0.00  0.00    +0.000 A 
ATOM     25  C   UNL     1       1.368   8.509  20.107  0.00  0.00    +0.000 A 
ATOM     26  O   UNL     1       0.656   9.624  19.739  0.00  0.00    +0.000 OA
ATOM     27  C   UNL     1      -0.008  10.066  20.846  0.00  0.00    +0.000 A 
ATOM     28  C   UNL     1      -0.828  11.189  20.923  0.00  0.00    +0.000 A 
BRANCH  20  30
ATOM     29  C   UNL     1      -3.383  12.516  22.978  0.00  0.00    +0.000 C 
ATOM     30  O   UNL     1      -2.196  12.594  22.193  0.00  0.00    +0.000 OA
ENDBRANCH  20  30
ENDBRANCH   1  25
BRANCH   7  31
ATOM     31  N   UNL     1       2.071   9.747  17.487  0.00  0.00    +0.000 N 
ATOM     32  H   UNL     1       2.857  10.390  17.501  0.00  0.00    +0.000 HD
ATOM     33  H   UNL     1       1.555   9.743  16.612  0.00  0.00    +0.000 HD
ENDBRANCH   7  31
TORSDOF 4
ENDMDL
MODEL 5
REMARK VINA RESULT:      -8.2      1.717      2.327
REMARK  Name = 
REMARK  5 active torsions:
REMARK  status: ('A' for Active; 'I' for Inactive)
REMARK    1  A    between atoms: C_1  and  O_2
REMARK    2  A    between atoms: O_2  and  C_3
REMARK    3  A    between atoms: C_8  and  C_9
REMARK    4  A    between atoms: C_11  and  C_12
REMARK    5  A    between atoms: C_21  and  N_22
REMARK                            x       y       z     vdW  Elec       q    Type
REMARK                         _______ _______ _______ _____ _____    ______ ____
ROOT
ATOM      1  C   UNL     1       2.577   5.603  19.716  0.00  0.00    +0.000 A 
ATOM      2  N   UNL     1       3.787   5.650  19.080  0.00  0.00    +0.000 NA
ATOM      3  C   UNL     1       4.319   4.428  18.766  0.00  0.00    +0.000 A 
ATOM      4  C   UNL     1       3.683   3.216  19.082  0.00  0.00    +0.000 A 
ATOM      5  N   UNL     1       4.126   1.957  18.702  0.00  0.00    +0.000 N 
ATOM      6  N   UNL     1       2.491   3.202  19.721  0.00  0.00    +0.000 NA
ATOM      7  C   UNL     1       1.935   4.391  20.036  0.00  0.00    +0.000 A 
ATOM      8  H   UNL     1       5.122   1.812  18.854  0.00  0.00    +0.000 HD
ATOM      9  H   UNL     1       3.530   1.244  19.108  0.00  0.00    +0.000 HD
ENDROOT
BRANCH   3  10
ATOM     10  C   UNL     1       5.646   4.456  18.064  0.00  0.00    +0.000 C 
ATOM     11  O   UNL     1       6.708   4.467  18.682  0.00  0.00    +0.000 OA
ATOM     12  N   UNL     1       5.574   4.506  16.676  0.00  0.00    +0.000 N 
ATOM     13  C   UNL     1       6.629   4.526  15.807  0.00  0.00    +0.000 C 
ATOM     14  N   UNL     1       7.854   4.431  16.189  0.00  0.00    +0.000 NA
ATOM     15  N   UNL     1       6.375   4.641  14.487  0.00  0.00    +0.000 N 
ATOM     16  H   UNL     1       4.644   4.591  16.285  0.00  0.00    +0.000 HD
ATOM     17  H   UNL     1       7.869   4.359  17.221  0.00  0.00    +0.000 HD
ATOM     18  H   UNL     1       5.557   4.173  14.125  0.00  0.00    +0.000 HD
ATOM     19  H   UNL     1       7.213   4.438  13.947  0.00  0.00    +0.000 HD
ENDBRANCH   3  10
BRANCH   1  25
ATOM     20  C   UNL     1       0.695  11.242  19.415  0.00  0.00    +0.000 A 
ATOM     21  C   UNL     1       0.347  11.108  20.763  0.00  0.00    +0.000 A 
ATOM     22  C   UNL     1       0.523   9.895  21.446  0.00  0.00    +0.000 A 
ATOM     23  C   UNL     1       1.072   8.806  20.755  0.00  0.00    +0.000 A 
ATOM     24  C   UNL     1       1.401   7.469  21.085  0.00  0.00    +0.000 A 
ATOM     25  C   UNL     1       1.981   6.909  19.967  0.00  0.00    +0.000 A 
ATOM     26  O   UNL     1       1.970   7.817  18.938  0.00  0.00    +0.000 OA
ATOM     27  C   UNL     1       1.427   8.972  19.421  0.00  0.00    +0.000 A 
ATOM     28  C   UNL     1       1.251  10.160  18.715  0.00  0.00    +0.000 A 
BRANCH  20  30
ATOM     29  C   UNL     1      -0.787  12.716  18.275  0.00  0.00    +0.000 C 
ATOM     30  O   UNL     1       0.541  12.386  18.673  0.00  0.00    +0.000 OA
ENDBRANCH  20  30
ENDBRANCH   1  25
BRANCH   7  31
ATOM     31  N   UNL     1       0.650   4.308  20.563  0.00  0.00    +0.000 N 
ATOM     32  H   UNL     1       0.708   4.168  21.567  0.00  0.00    +0.000 HD
ATOM     33  H   UNL     1       0.060   5.089  20.287  0.00  0.00    +0.000 HD
ENDBRANCH   7  31
TORSDOF 4
ENDMDL
MODEL 6
REMARK VINA RESULT:      -8.1      1.377      1.564
REMARK  Name = 
REMARK  5 active torsions:
REMARK  status: ('A' for Active; 'I' for Inactive)
REMARK    1  A    between atoms: C_1  and  O_2
REMARK    2  A    between atoms: O_2  and  C_3
REMARK    3  A    between atoms: C_8  and  C_9
REMARK    4  A    between atoms: C_11  and  C_12
REMARK    5  A    between atoms: C_21  and  N_22
REMARK                            x       y       z     vdW  Elec       q    Type
REMARK                         _______ _______ _______ _____ _____    ______ ____
ROOT
ATOM      1  C   UNL     1       3.047   5.793  19.135  0.00  0.00    +0.000 A 
ATOM      2  N   UNL     1       3.696   5.489  17.971  0.00  0.00    +0.000 NA
ATOM      3  C   UNL     1       4.209   4.221  17.912  0.00  0.00    +0.000 A 
ATOM      4  C   UNL     1       4.094   3.302  18.970  0.00  0.00    +0.000 A 
ATOM      5  N   UNL     1       4.505   1.978  18.928  0.00  0.00    +0.000 N 
ATOM      6  N   UNL     1       3.454   3.636  20.113  0.00  0.00    +0.000 NA
ATOM      7  C   UNL     1       2.929   4.876  20.199  0.00  0.00    +0.000 A 
ATOM      8  H   UNL     1       5.435   1.852  18.533  0.00  0.00    +0.000 HD
ATOM      9  H   UNL     1       4.371   1.545  19.835  0.00  0.00    +0.000 HD
ENDROOT
BRANCH   3  10
ATOM     10  C   UNL     1       4.924   3.865  16.641  0.00  0.00    +0.000 C 
ATOM     11  O   UNL     1       4.668   2.838  16.016  0.00  0.00    +0.000 OA
ATOM     12  N   UNL     1       5.914   4.763  16.254  0.00  0.00    +0.000 N 
ATOM     13  C   UNL     1       6.697   4.679  15.138  0.00  0.00    +0.000 C 
ATOM     14  N   UNL     1       6.556   3.758  14.250  0.00  0.00    +0.000 NA
ATOM     15  N   UNL     1       7.657   5.608  14.951  0.00  0.00    +0.000 N 
ATOM     16  H   UNL     1       6.100   5.519  16.901  0.00  0.00    +0.000 HD
ATOM     17  H   UNL     1       5.790   3.131  14.549  0.00  0.00    +0.000 HD
ATOM     18  H   UNL     1       7.453   6.555  15.237  0.00  0.00    +0.000 HD
ATOM     19  H   UNL     1       8.022   5.554  14.003  0.00  0.00    +0.000 HD
ENDBRANCH   3  10
BRANCH   1  25
ATOM     20  C   UNL     1       0.147  10.790  20.564  0.00  0.00    +0.000 A 
ATOM     21  C   UNL     1       0.269  11.145  19.217  0.00  0.00    +0.000 A 
ATOM     22  C   UNL     1       0.948  10.324  18.304  0.00  0.00    +0.000 A 
ATOM     23  C   UNL     1       1.501   9.120  18.761  0.00  0.00    +0.000 A 
ATOM     24  C   UNL     1       2.226   8.058  18.169  0.00  0.00    +0.000 A 
ATOM     25  C   UNL     1       2.432   7.113  19.152  0.00  0.00    +0.000 A 
ATOM     26  O   UNL     1       1.923   7.569  20.343  0.00  0.00    +0.000 OA
ATOM     27  C   UNL     1       1.349   8.783  20.102  0.00  0.00    +0.000 A 
ATOM     28  C   UNL     1       0.692   9.584  21.033  0.00  0.00    +0.000 A 
BRANCH  20  30
ATOM     29  C   UNL     1      -0.802  10.886  22.746  0.00  0.00    +0.000 C 
ATOM     30  O   UNL     1      -0.486  11.542  21.521  0.00  0.00    +0.000 OA
ENDBRANCH  20  30
ENDBRANCH   1  25
BRANCH   7  31
ATOM     31  N   UNL     1       2.166   5.106  21.340  0.00  0.00    +0.000 N 
ATOM     32  H   UNL     1       2.173   6.098  21.554  0.00  0.00    +0.000 HD
ATOM     33  H   UNL     1       1.235   4.702  21.280  0.00  0.00    +0.000 HD
ENDBRANCH   7  31
TORSDOF 4
ENDMDL
MODEL 7
REMARK VINA RESULT:      -8.1      1.834      2.513
REMARK  Name = 
REMARK  5 active torsions:
REMARK  status: ('A' for Active; 'I' for Inactive)
REMARK    1  A    between atoms: C_1  and  O_2
REMARK    2  A    between atoms: O_2  and  C_3
REMARK    3  A    between atoms: C_8  and  C_9
REMARK    4  A    between atoms: C_11  and  C_12
REMARK    5  A    between atoms: C_21  and  N_22
REMARK                            x       y       z     vdW  Elec       q    Type
REMARK                         _______ _______ _______ _____ _____    ______ ____
ROOT
ATOM      1  C   UNL     1       2.518   5.529  19.346  0.00  0.00    +0.000 A 
ATOM      2  N   UNL     1       3.575   5.625  18.483  0.00  0.00    +0.000 NA
ATOM      3  C   UNL     1       4.048   4.427  18.019  0.00  0.00    +0.000 A 
ATOM      4  C   UNL     1       3.504   3.191  18.406  0.00  0.00    +0.000 A 
ATOM      5  N   UNL     1       3.877   1.957  17.893  0.00  0.00    +0.000 N 
ATOM      6  N   UNL     1       2.465   3.128  19.269  0.00  0.00    +0.000 NA
ATOM      7  C   UNL     1       1.969   4.292  19.738  0.00  0.00    +0.000 A 
ATOM      8  H   UNL     1       4.885   1.826  17.836  0.00  0.00    +0.000 HD
ATOM      9  H   UNL     1       3.384   1.217  18.379  0.00  0.00    +0.000 HD
ENDROOT
BRANCH   3  10
ATOM     10  C   UNL     1       5.207   4.509  17.067  0.00  0.00    +0.000 C 
ATOM     11  O   UNL     1       5.462   3.607  16.273  0.00  0.00    +0.000 OA
ATOM     12  N   UNL     1       5.981   5.660  17.185  0.00  0.00    +0.000 N 
ATOM     13  C   UNL     1       7.076   5.983  16.434  0.00  0.00    +0.000 C 
ATOM     14  N   UNL     1       7.491   5.262  15.452  0.00  0.00    +0.000 NA
ATOM     15  N   UNL     1       7.748   7.115  16.728  0.00  0.00    +0.000 N 
ATOM     16  H   UNL     1       5.730   6.284  17.941  0.00  0.00    +0.000 HD
ATOM     17  H   UNL     1       6.874   4.436  15.370  0.00  0.00    +0.000 HD
ATOM     18  H   UNL     1       7.210   7.914  17.030  0.00  0.00    +0.000 HD
ATOM     19  H   UNL     1       8.402   7.342  15.982  0.00  0.00    +0.000 HD
ENDBRANCH   3  10
BRANCH   1  25
ATOM     20  C   UNL     1       0.713  11.188  19.723  0.00  0.00    +0.000 A 
ATOM     21  C   UNL     1       0.482  10.935  21.079  0.00  0.00    +0.000 A 
ATOM     22  C   UNL     1       0.697   9.663  21.631  0.00  0.00    +0.000 A 
ATOM     23  C   UNL     1       1.164   8.636  20.800  0.00  0.00    +0.000 A 
ATOM     24  C   UNL     1       1.498   7.273  20.977  0.00  0.00    +0.000 A 
ATOM     25  C   UNL     1       1.969   6.812  19.766  0.00  0.00    +0.000 A 
ATOM     26  O   UNL     1       1.883   7.810  18.828  0.00  0.00    +0.000 OA
ATOM     27  C   UNL     1       1.404   8.921  19.459  0.00  0.00    +0.000 A 
ATOM     28  C   UNL     1       1.187  10.169  18.881  0.00  0.00    +0.000 A 
BRANCH  20  30
ATOM     29  C   UNL     1      -0.763  12.606  18.506  0.00  0.00    +0.000 C 
ATOM     30  O   UNL     1       0.514  12.396  19.104  0.00  0.00    +0.000 OA
ENDBRANCH  20  30
ENDBRANCH   1  25
BRANCH   7  31
ATOM     31  N   UNL     1       0.817   4.163  20.508  0.00  0.00    +0.000 N 
ATOM     32  H   UNL     1       1.030   4.403  21.472  0.00  0.00    +0.000 HD
ATOM     33  H   UNL     1       0.026   4.670  20.121  0.00  0.00    +0.000 HD
ENDBRANCH   7  31
TORSDOF 4
ENDMDL
MODEL 8
REMARK VINA RESULT:      -8.0      2.402      4.451
REMARK  Name = 
REMARK  5 active torsions:
REMARK  status: ('A' for Active; 'I' for Inactive)
REMARK    1  A    between atoms: C_1  and  O_2
REMARK    2  A    between atoms: O_2  and  C_3
REMARK    3  A    between atoms: C_8  and  C_9
REMARK    4  A    between atoms: C_11  and  C_12
REMARK    5  A    between atoms: C_21  and  N_22
REMARK                            x       y       z     vdW  Elec       q    Type
REMARK                         _______ _______ _______ _____ _____    ______ ____
ROOT
ATOM      1  C   UNL     1       1.832   8.067  19.460  0.00  0.00    +0.000 A 
ATOM      2  N   UNL     1       2.180   6.850  19.979  0.00  0.00    +0.000 NA
ATOM      3  C   UNL     1       3.049   6.124  19.210  0.00  0.00    +0.000 A 
ATOM      4  C   UNL     1       3.537   6.580  17.974  0.00  0.00    +0.000 A 
ATOM      5  N   UNL     1       4.492   5.933  17.202  0.00  0.00    +0.000 N 
ATOM      6  N   UNL     1       3.167   7.784  17.482  0.00  0.00    +0.000 NA
ATOM      7  C   UNL     1       2.319   8.529  18.221  0.00  0.00    +0.000 A 
ATOM      8  H   UNL     1       4.323   4.934  17.098  0.00  0.00    +0.000 HD
ATOM      9  H   UNL     1       4.626   6.430  16.329  0.00  0.00    +0.000 HD
ENDROOT
BRANCH   3  10
ATOM     10  C   UNL     1       3.446   4.786  19.763  0.00  0.00    +0.000 C 
ATOM     11  O   UNL     1       4.494   4.232  19.437  0.00  0.00    +0.000 OA
ATOM     12  N   UNL     1       2.524   4.215  20.635  0.00  0.00    +0.000 N 
ATOM     13  C   UNL     1       2.650   3.017  21.281  0.00  0.00    +0.000 C 
ATOM     14  N   UNL     1       3.706   2.286  21.203  0.00  0.00    +0.000 NA
ATOM     15  N   UNL     1       1.625   2.586  22.044  0.00  0.00    +0.000 N 
ATOM     16  H   UNL     1       1.655   4.720  20.750  0.00  0.00    +0.000 HD
ATOM     17  H   UNL     1       4.383   2.756  20.579  0.00  0.00    +0.000 HD
ATOM     18  H   UNL     1       1.104   3.277  22.563  0.00  0.00    +0.000 HD
ATOM     19  H   UNL     1       1.920   1.801  22.621  0.00  0.00    +0.000 HD
ENDBRANCH   3  10
BRANCH   1  25
ATOM     20  C   UNL     1      -1.820  12.149  21.789  0.00  0.00    +0.000 A 
ATOM     21  C   UNL     1      -1.538  11.570  23.030  0.00  0.00    +0.000 A 
ATOM     22  C   UNL     1      -0.702  10.448  23.139  0.00  0.00    +0.000 A 
ATOM     23  C   UNL     1      -0.135   9.913  21.975  0.00  0.00    +0.000 A 
ATOM     24  C   UNL     1       0.733   8.834  21.683  0.00  0.00    +0.000 A 
ATOM     25  C   UNL     1       0.977   8.867  20.327  0.00  0.00    +0.000 A 
ATOM     26  O   UNL     1       0.250   9.879  19.752  0.00  0.00    +0.000 OA
ATOM     27  C   UNL     1      -0.417  10.520  20.755  0.00  0.00    +0.000 A 
ATOM     28  C   UNL     1      -1.253  11.626  20.616  0.00  0.00    +0.000 A 
BRANCH  20  30
ATOM     29  C   UNL     1      -3.694  13.080  20.654  0.00  0.00    +0.000 C 
ATOM     30  O   UNL     1      -2.636  13.235  21.595  0.00  0.00    +0.000 OA
ENDBRANCH  20  30
ENDBRANCH   1  25
BRANCH   7  31
ATOM     31  N   UNL     1       2.090   9.810  17.726  0.00  0.00    +0.000 N 
ATOM     32  H   UNL     1       2.904  10.117  17.202  0.00  0.00    +0.000 HD
ATOM     33  H   UNL     1       1.215   9.883  17.213  0.00  0.00    +0.000 HD
ENDBRANCH   7  31
TORSDOF 4
ENDMDL
MODEL 9
REMARK VINA RESULT:      -8.0      4.258      8.008
REMARK  Name = 
REMARK  5 active torsions:
REMARK  status: ('A' for Active; 'I' for Inactive)
REMARK    1  A    between atoms: C_1  and  O_2
REMARK    2  A    between atoms: O_2  and  C_3
REMARK    3  A    between atoms: C_8  and  C_9
REMARK    4  A    between atoms: C_11  and  C_12
REMARK    5  A    between atoms: C_21  and  N_22
REMARK                            x       y       z     vdW  Elec       q    Type
REMARK                         _______ _______ _______ _____ _____    ______ ____
ROOT
ATOM      1  C   UNL     1       0.909   9.030  19.941  0.00  0.00    +0.000 A 
ATOM      2  N   UNL     1       0.029   9.572  19.046  0.00  0.00    +0.000 NA
ATOM      3  C   UNL     1      -0.806  10.524  19.565  0.00  0.00    +0.000 A 
ATOM      4  C   UNL     1      -0.777  10.909  20.916  0.00  0.00    +0.000 A 
ATOM      5  N   UNL     1      -1.528  11.934  21.473  0.00  0.00    +0.000 N 
ATOM      6  N   UNL     1       0.100  10.348  21.780  0.00  0.00    +0.000 NA
ATOM      7  C   UNL     1       0.943   9.412  21.297  0.00  0.00    +0.000 A 
ATOM      8  H   UNL     1      -2.508  11.919  21.197  0.00  0.00    +0.000 HD
ATOM      9  H   UNL     1      -1.374  11.972  22.474  0.00  0.00    +0.000 HD
ENDROOT
BRANCH   3  10
ATOM     10  C   UNL     1      -1.780  11.135  18.599  0.00  0.00    +0.000 C 
ATOM     11  O   UNL     1      -2.317  12.219  18.813  0.00  0.00    +0.000 OA
ATOM     12  N   UNL     1      -2.049  10.363  17.472  0.00  0.00    +0.000 N 
ATOM     13  C   UNL     1      -2.882  10.693  16.441  0.00  0.00    +0.000 C 
ATOM     14  N   UNL     1      -3.485  11.828  16.361  0.00  0.00    +0.000 NA
ATOM     15  N   UNL     1      -3.076   9.793  15.455  0.00  0.00    +0.000 N 
ATOM     16  H   UNL     1      -1.621   9.446  17.454  0.00  0.00    +0.000 HD
ATOM     17  H   UNL     1      -3.235  12.388  17.193  0.00  0.00    +0.000 HD
ATOM     18  H   UNL     1      -2.288   9.225  15.178  0.00  0.00    +0.000 HD
ATOM     19  H   UNL     1      -3.541  10.231  14.663  0.00  0.00    +0.000 HD
ENDBRANCH   3  10
BRANCH   1  25
ATOM     20  C   UNL     1       4.649   4.522  18.883  0.00  0.00    +0.000 A 
ATOM     21  C   UNL     1       4.979   5.186  17.697  0.00  0.00    +0.000 A 
ATOM     22  C   UNL     1       4.349   6.386  17.333  0.00  0.00    +0.000 A 
ATOM     23  C   UNL     1       3.379   6.926  18.188  0.00  0.00    +0.000 A 
ATOM     24  C   UNL     1       2.557   8.078  18.176  0.00  0.00    +0.000 A 
ATOM     25  C   UNL     1       1.850   8.082  19.358  0.00  0.00    +0.000 A 
ATOM     26  O   UNL     1       2.147   6.951  20.077  0.00  0.00    +0.000 OA
ATOM     27  C   UNL     1       3.084   6.255  19.370  0.00  0.00    +0.000 A 
ATOM     28  C   UNL     1       3.683   5.057  19.751  0.00  0.00    +0.000 A 
BRANCH  20  30
ATOM     29  C   UNL     1       4.336   2.420  19.956  0.00  0.00    +0.000 C 
ATOM     30  O   UNL     1       5.206   3.341  19.304  0.00  0.00    +0.000 OA
ENDBRANCH  20  30
ENDBRANCH   1  25
BRANCH   7  31
ATOM     31  N   UNL     1       1.908   8.979  22.202  0.00  0.00    +0.000 N 
ATOM     32  H   UNL     1       1.452   8.667  23.054  0.00  0.00    +0.000 HD
ATOM     33  H   UNL     1       2.546   8.296  21.801  0.00  0.00    +0.000 HD
ENDBRANCH   7  31
TORSDOF 4
ENDMDL
