MODEL 1
REMARK VINA RESULT:      -8.6      0.000      0.000
REMARK  Name = 
REMARK  5 active torsions:
REMARK  status: ('A' for Active; 'I' for Inactive)
REMARK    1  A    between atoms: S_2  and  C_4
REMARK    2  A    between atoms: S_2  and  N_10
REMARK    3  A    between atoms: N_10  and  C_11
REMARK    4  A    between atoms: N_10  and  C_20
REMARK    5  A    between atoms: C_11  and  C_12
REMARK                            x       y       z     vdW  Elec       q    Type
REMARK                         _______ _______ _______ _____ _____    ______ ____
ROOT
ATOM      1  N   UNL     1       2.309   6.081  19.501  0.00  0.00    +0.000 N 
ENDROOT
BRANCH   1   2
ATOM      2  C   UNL     1       1.807   7.308  19.935  0.00  0.00    +0.000 A 
ATOM      3  N   UNL     1       1.301   7.406  21.202  0.00  0.00    +0.000 NA
ATOM      4  C   UNL     1       0.859   8.640  21.312  0.00  0.00    +0.000 A 
ATOM      5  C   UNL     1       0.195   9.290  22.390  0.00  0.00    +0.000 A 
ATOM      6  C   UNL     1      -0.154  10.584  22.278  0.00  0.00    +0.000 A 
ATOM      7  C   UNL     1       0.134  11.340  21.070  0.00  0.00    +0.000 A 
ATOM      8 CL   UNL     1      -0.324  12.993  20.998  0.00  0.00    +0.000 Cl
ATOM      9  C   UNL     1       0.747  10.733  20.040  0.00  0.00    +0.000 A 
ATOM     10  N   UNL     1       1.101   9.384  20.161  0.00  0.00    +0.000 N 
ATOM     11  C   UNL     1       1.714   8.519  19.287  0.00  0.00    +0.000 A 
ATOM     12 CL   UNL     1       2.159   9.018  17.723  0.00  0.00    +0.000 Cl
ENDBRANCH   1   2
BRANCH   1  14
ATOM     13  O   UNL     1       0.439   4.523  20.370  0.00  0.00    +0.000 OA
ATOM     14  S   UNL     1       1.880   4.718  20.446  0.00  0.00    +0.000 S 
ATOM     15  O   UNL     1       2.524   4.795  21.730  0.00  0.00    +0.000 OA
BRANCH  14  16
ATOM     16  C   UNL     1       2.633   3.361  19.561  0.00  0.00    +0.000 A 
ATOM     17  C   UNL     1       3.820   2.777  20.021  0.00  0.00    +0.000 A 
ATOM     18  C   UNL     1       4.409   1.743  19.281  0.00  0.00    +0.000 A 
ATOM     19  C   UNL     1       3.797   1.272  18.118  0.00  0.00    +0.000 A 
ATOM     20  C   UNL     1       2.596   1.831  17.686  0.00  0.00    +0.000 A 
ATOM     21  C   UNL     1       2.010   2.869  18.409  0.00  0.00    +0.000 A 
ENDBRANCH  14  16
ENDBRANCH   1  14
BRANCH   1  22
ATOM     22  C   UNL     1       2.773   5.943  18.109  0.00  0.00    +0.000 C 
BRANCH  22  23
ATOM     23  C   UNL     1       4.271   5.687  17.925  0.00  0.00    +0.000 A 
ATOM     24  C   UNL     1       4.736   5.000  16.782  0.00  0.00    +0.000 A 
ATOM     25  C   UNL     1       6.050   4.518  16.713  0.00  0.00    +0.000 A 
ATOM     26  C   UNL     1       6.902   4.713  17.794  0.00  0.00    +0.000 A 
ATOM     27  F   UNL     1       8.122   4.156  17.777  0.00  0.00    +0.000 F 
ATOM     28  C   UNL     1       6.478   5.437  18.898  0.00  0.00    +0.000 A 
ATOM     29  F   UNL     1       7.290   5.594  19.955  0.00  0.00    +0.000 F 
ATOM     30  C   UNL     1       5.183   5.948  18.957  0.00  0.00    +0.000 A 
ENDBRANCH  22  23
ENDBRANCH   1  22
TORSDOF 5
ENDMDL
MODEL 2
REMARK VINA RESULT:      -8.4      2.152      3.036
REMARK  Name = 
REMARK  5 active torsions:
REMARK  status: ('A' for Active; 'I' for Inactive)
REMARK    1  A    between atoms: S_2  and  C_4
REMARK    2  A    between atoms: S_2  and  N_10
REMARK    3  A    between atoms: N_10  and  C_11
REMARK    4  A    between atoms: N_10  and  C_20
REMARK    5  A    between atoms: C_11  and  C_12
REMARK                            x       y       z     vdW  Elec       q    Type
REMARK                         _______ _______ _______ _____ _____    ______ ____
ROOT
ATOM      1  N   UNL     1       3.199   5.287  17.728  0.00  0.00    +0.000 N 
ENDROOT
BRANCH   1   2
ATOM      2  C   UNL     1       2.643   6.465  18.227  0.00  0.00    +0.000 A 
ATOM      3  N   UNL     1       2.439   7.514  17.373  0.00  0.00    +0.000 NA
ATOM      4  C   UNL     1       1.965   8.489  18.118  0.00  0.00    +0.000 A 
ATOM      5  C   UNL     1       1.614   9.825  17.776  0.00  0.00    +0.000 A 
ATOM      6  C   UNL     1       1.126  10.651  18.719  0.00  0.00    +0.000 A 
ATOM      7  C   UNL     1       0.946  10.205  20.091  0.00  0.00    +0.000 A 
ATOM      8 CL   UNL     1       0.303  11.305  21.243  0.00  0.00    +0.000 Cl
ATOM      9  C   UNL     1       1.288   8.951  20.429  0.00  0.00    +0.000 A 
ATOM     10  N   UNL     1       1.802   8.099  19.444  0.00  0.00    +0.000 N 
ATOM     11  C   UNL     1       2.236   6.796  19.499  0.00  0.00    +0.000 A 
ATOM     12 CL   UNL     1       2.242   5.932  20.965  0.00  0.00    +0.000 Cl
ENDBRANCH   1   2
BRANCH   1  14
ATOM     13  O   UNL     1       2.734   2.960  16.706  0.00  0.00    +0.000 OA
ATOM     14  S   UNL     1       2.130   3.957  17.578  0.00  0.00    +0.000 S 
ATOM     15  O   UNL     1       0.800   4.432  17.308  0.00  0.00    +0.000 OA
BRANCH  14  16
ATOM     16  C   UNL     1       2.116   3.264  19.224  0.00  0.00    +0.000 A 
ATOM     17  C   UNL     1       0.914   3.113  19.927  0.00  0.00    +0.000 A 
ATOM     18  C   UNL     1       0.942   2.604  21.233  0.00  0.00    +0.000 A 
ATOM     19  C   UNL     1       2.150   2.216  21.813  0.00  0.00    +0.000 A 
ATOM     20  C   UNL     1       3.339   2.333  21.094  0.00  0.00    +0.000 A 
ATOM     21  C   UNL     1       3.322   2.849  19.799  0.00  0.00    +0.000 A 
ENDBRANCH  14  16
ENDBRANCH   1  14
BRANCH   1  22
ATOM     22  C   UNL     1       4.469   5.349  16.981  0.00  0.00    +0.000 C 
BRANCH  22  23
ATOM     23  C   UNL     1       5.609   6.109  17.661  0.00  0.00    +0.000 A 
ATOM     24  C   UNL     1       6.093   7.311  17.099  0.00  0.00    +0.000 A 
ATOM     25  C   UNL     1       7.296   7.882  17.538  0.00  0.00    +0.000 A 
ATOM     26  C   UNL     1       8.026   7.246  18.535  0.00  0.00    +0.000 A 
ATOM     27  F   UNL     1       9.229   7.728  18.878  0.00  0.00    +0.000 F 
ATOM     28  C   UNL     1       7.533   6.098  19.138  0.00  0.00    +0.000 A 
ATOM     29  F   UNL     1       8.256   5.466  20.076  0.00  0.00    +0.000 F 
ATOM     30  C   UNL     1       6.321   5.545  18.729  0.00  0.00    +0.000 A 
ENDBRANCH  22  23
ENDBRANCH   1  22
TORSDOF 5
ENDMDL
MODEL 3
REMARK VINA RESULT:      -8.3      3.428      5.076
REMARK  Name = 
REMARK  5 active torsions:
REMARK  status: ('A' for Active; 'I' for Inactive)
REMARK    1  A    between atoms: S_2  and  C_4
REMARK    2  A    between atoms: S_2  and  N_10
REMARK    3  A    between atoms: N_10  and  C_11
REMARK    4  A    between atoms: N_10  and  C_20
REMARK    5  A    between atoms: C_11  and  C_12
REMARK                            x       y       z     vdW  Elec       q    Type
REMARK                         _______ _______ _______ _____ _____    ______ ____
ROOT
ATOM      1  N   UNL     1       5.439   4.815  18.356  0.00  0.00    +0.000 N 
ENDROOT
BRANCH   1   2
ATOM      2  C   UNL     1       4.495   5.835  18.467  0.00  0.00    +0.000 A 
ATOM      3  N   UNL     1       3.832   5.997  19.653  0.00  0.00    +0.000 NA
ATOM      4  C   UNL     1       2.981   6.979  19.451  0.00  0.00    +0.000 A 
ATOM      5  C   UNL     1       2.005   7.547  20.318  0.00  0.00    +0.000 A 
ATOM      6  C   UNL     1       1.247   8.573  19.890  0.00  0.00    +0.000 A 
ATOM      7  C   UNL     1       1.405   9.120  18.552  0.00  0.00    +0.000 A 
ATOM      8 CL   UNL     1       0.417  10.441  18.075  0.00  0.00    +0.000 Cl
ATOM      9  C   UNL     1       2.313   8.582  17.721  0.00  0.00    +0.000 A 
ATOM     10  N   UNL     1       3.093   7.511  18.170  0.00  0.00    +0.000 N 
ATOM     11  C   UNL     1       4.071   6.771  17.550  0.00  0.00    +0.000 A 
ATOM     12 CL   UNL     1       4.508   7.068  15.933  0.00  0.00    +0.000 Cl
ENDBRANCH   1   2
BRANCH   1  14
ATOM     13  O   UNL     1       7.987   4.403  18.227  0.00  0.00    +0.000 OA
ATOM     14  S   UNL     1       6.947   5.259  17.674  0.00  0.00    +0.000 S 
ATOM     15  O   UNL     1       7.097   6.689  17.720  0.00  0.00    +0.000 OA
BRANCH  14  16
ATOM     16  C   UNL     1       6.762   4.806  15.956  0.00  0.00    +0.000 A 
ATOM     17  C   UNL     1       5.783   3.885  15.560  0.00  0.00    +0.000 A 
ATOM     18  C   UNL     1       5.691   3.519  14.211  0.00  0.00    +0.000 A 
ATOM     19  C   UNL     1       6.540   4.094  13.264  0.00  0.00    +0.000 A 
ATOM     20  C   UNL     1       7.486   5.039  13.659  0.00  0.00    +0.000 A 
ATOM     21  C   UNL     1       7.593   5.400  15.001  0.00  0.00    +0.000 A 
ENDBRANCH  14  16
ENDBRANCH   1  14
BRANCH   1  22
ATOM     22  C   UNL     1       5.288   3.599  19.175  0.00  0.00    +0.000 C 
BRANCH  22  23
ATOM     23  C   UNL     1       3.921   2.913  19.108  0.00  0.00    +0.000 A 
ATOM     24  C   UNL     1       3.392   2.509  17.863  0.00  0.00    +0.000 A 
ATOM     25  C   UNL     1       2.048   2.130  17.737  0.00  0.00    +0.000 A 
ATOM     26  C   UNL     1       1.225   2.164  18.857  0.00  0.00    +0.000 A 
ATOM     27  F   UNL     1      -0.085   1.911  18.717  0.00  0.00    +0.000 F 
ATOM     28  C   UNL     1       1.745   2.501  20.098  0.00  0.00    +0.000 A 
ATOM     29  F   UNL     1       0.942   2.567  21.170  0.00  0.00    +0.000 F 
ATOM     30  C   UNL     1       3.089   2.846  20.235  0.00  0.00    +0.000 A 
ENDBRANCH  22  23
ENDBRANCH   1  22
TORSDOF 5
ENDMDL
MODEL 4
REMARK VINA RESULT:      -8.2      2.175      3.106
REMARK  Name = 
REMARK  5 active torsions:
REMARK  status: ('A' for Active; 'I' for Inactive)
REMARK    1  A    between atoms: S_2  and  C_4
REMARK    2  A    between atoms: S_2  and  N_10
REMARK    3  A    between atoms: N_10  and  C_11
REMARK    4  A    between atoms: N_10  and  C_20
REMARK    5  A    between atoms: C_11  and  C_12
REMARK                            x       y       z     vdW  Elec       q    Type
REMARK                         _______ _______ _______ _____ _____    ______ ____
ROOT
ATOM      1  N   UNL     1       3.159   5.188  17.537  0.00  0.00    +0.000 N 
ENDROOT
BRANCH   1   2
ATOM      2  C   UNL     1       2.649   6.354  18.108  0.00  0.00    +0.000 A 
ATOM      3  N   UNL     1       2.336   7.408  17.294  0.00  0.00    +0.000 NA
ATOM      4  C   UNL     1       1.937   8.370  18.098  0.00  0.00    +0.000 A 
ATOM      5  C   UNL     1       1.533   9.704  17.811  0.00  0.00    +0.000 A 
ATOM      6  C   UNL     1       1.146  10.515  18.812  0.00  0.00    +0.000 A 
ATOM      7  C   UNL     1       1.129  10.054  20.191  0.00  0.00    +0.000 A 
ATOM      8 CL   UNL     1       0.606  11.135  21.419  0.00  0.00    +0.000 Cl
ATOM      9  C   UNL     1       1.522   8.802  20.475  0.00  0.00    +0.000 A 
ATOM     10  N   UNL     1       1.931   7.966  19.430  0.00  0.00    +0.000 N 
ATOM     11  C   UNL     1       2.385   6.669  19.422  0.00  0.00    +0.000 A 
ATOM     12 CL   UNL     1       2.567   5.792  20.868  0.00  0.00    +0.000 Cl
ENDBRANCH   1   2
BRANCH   1  14
ATOM     13  O   UNL     1       2.658   2.814  16.649  0.00  0.00    +0.000 OA
ATOM     14  S   UNL     1       2.111   3.834  17.533  0.00  0.00    +0.000 S 
ATOM     15  O   UNL     1       0.751   4.273  17.364  0.00  0.00    +0.000 OA
BRANCH  14  16
ATOM     16  C   UNL     1       2.257   3.207  19.199  0.00  0.00    +0.000 A 
ATOM     17  C   UNL     1       1.132   3.104  20.027  0.00  0.00    +0.000 A 
ATOM     18  C   UNL     1       1.286   2.647  21.343  0.00  0.00    +0.000 A 
ATOM     19  C   UNL     1       2.543   2.262  21.812  0.00  0.00    +0.000 A 
ATOM     20  C   UNL     1       3.653   2.330  20.972  0.00  0.00    +0.000 A 
ATOM     21  C   UNL     1       3.510   2.795  19.665  0.00  0.00    +0.000 A 
ENDBRANCH  14  16
ENDBRANCH   1  14
BRANCH   1  22
ATOM     22  C   UNL     1       4.313   5.278  16.624  0.00  0.00    +0.000 C 
BRANCH  22  23
ATOM     23  C   UNL     1       5.656   5.617  17.275  0.00  0.00    +0.000 A 
ATOM     24  C   UNL     1       6.032   4.997  18.487  0.00  0.00    +0.000 A 
ATOM     25  C   UNL     1       7.114   5.475  19.239  0.00  0.00    +0.000 A 
ATOM     26  C   UNL     1       7.819   6.584  18.785  0.00  0.00    +0.000 A 
ATOM     27  F   UNL     1       8.780   7.112  19.556  0.00  0.00    +0.000 F 
ATOM     28  C   UNL     1       7.499   7.166  17.567  0.00  0.00    +0.000 A 
ATOM     29  F   UNL     1       8.158   8.257  17.148  0.00  0.00    +0.000 F 
ATOM     30  C   UNL     1       6.446   6.673  16.799  0.00  0.00    +0.000 A 
ENDBRANCH  22  23
ENDBRANCH   1  22
TORSDOF 5
ENDMDL
MODEL 5
REMARK VINA RESULT:      -8.0      2.688      4.310
REMARK  Name = 
REMARK  5 active torsions:
REMARK  status: ('A' for Active; 'I' for Inactive)
REMARK    1  A    between atoms: S_2  and  C_4
REMARK    2  A    between atoms: S_2  and  N_10
REMARK    3  A    between atoms: N_10  and  C_11
REMARK    4  A    between atoms: N_10  and  C_20
REMARK    5  A    between atoms: C_11  and  C_12
REMARK                            x       y       z     vdW  Elec       q    Type
REMARK                         _______ _______ _______ _____ _____    ______ ____
ROOT
ATOM      1  N   UNL     1       3.170   6.164  17.846  0.00  0.00    +0.000 N 
ENDROOT
BRANCH   1   2
ATOM      2  C   UNL     1       2.471   7.148  18.545  0.00  0.00    +0.000 A 
ATOM      3  N   UNL     1       2.064   8.271  17.878  0.00  0.00    +0.000 NA
ATOM      4  C   UNL     1       1.491   9.032  18.785  0.00  0.00    +0.000 A 
ATOM      5  C   UNL     1       0.924  10.333  18.673  0.00  0.00    +0.000 A 
ATOM      6  C   UNL     1       0.371  10.916  19.752  0.00  0.00    +0.000 A 
ATOM      7  C   UNL     1       0.337  10.241  21.039  0.00  0.00    +0.000 A 
ATOM      8 CL   UNL     1      -0.399  11.035  22.372  0.00  0.00    +0.000 Cl
ATOM      9  C   UNL     1       0.882   9.020  21.160  0.00  0.00    +0.000 A 
ATOM     10  N   UNL     1       1.462   8.422  20.035  0.00  0.00    +0.000 N 
ATOM     11  C   UNL     1       2.091   7.211  19.867  0.00  0.00    +0.000 A 
ATOM     12 CL   UNL     1       2.308   6.143  21.173  0.00  0.00    +0.000 Cl
ENDBRANCH   1   2
BRANCH   1  14
ATOM     13  O   UNL     1       5.345   5.508  19.076  0.00  0.00    +0.000 OA
ATOM     14  S   UNL     1       4.878   6.259  17.920  0.00  0.00    +0.000 S 
ATOM     15  O   UNL     1       5.296   7.623  17.736  0.00  0.00    +0.000 OA
BRANCH  14  16
ATOM     16  C   UNL     1       5.395   5.352  16.470  0.00  0.00    +0.000 A 
ATOM     17  C   UNL     1       5.363   5.948  15.204  0.00  0.00    +0.000 A 
ATOM     18  C   UNL     1       5.735   5.196  14.081  0.00  0.00    +0.000 A 
ATOM     19  C   UNL     1       6.171   3.879  14.228  0.00  0.00    +0.000 A 
ATOM     20  C   UNL     1       6.238   3.303  15.496  0.00  0.00    +0.000 A 
ATOM     21  C   UNL     1       5.857   4.040  16.617  0.00  0.00    +0.000 A 
ENDBRANCH  14  16
ENDBRANCH   1  14
BRANCH   1  22
ATOM     22  C   UNL     1       2.479   4.915  17.476  0.00  0.00    +0.000 C 
BRANCH  22  23
ATOM     23  C   UNL     1       2.255   3.912  18.611  0.00  0.00    +0.000 A 
ATOM     24  C   UNL     1       0.972   3.763  19.181  0.00  0.00    +0.000 A 
ATOM     25  C   UNL     1       0.791   3.063  20.382  0.00  0.00    +0.000 A 
ATOM     26  C   UNL     1       1.897   2.518  21.024  0.00  0.00    +0.000 A 
ATOM     27  F   UNL     1       1.744   1.947  22.227  0.00  0.00    +0.000 F 
ATOM     28  C   UNL     1       3.155   2.605  20.445  0.00  0.00    +0.000 A 
ATOM     29  F   UNL     1       4.227   2.109  21.083  0.00  0.00    +0.000 F 
ATOM     30  C   UNL     1       3.335   3.270  19.234  0.00  0.00    +0.000 A 
ENDBRANCH  22  23
ENDBRANCH   1  22
TORSDOF 5
ENDMDL
MODEL 6
REMARK VINA RESULT:      -7.9      1.024      1.306
REMARK  Name = 
REMARK  5 active torsions:
REMARK  status: ('A' for Active; 'I' for Inactive)
REMARK    1  A    between atoms: S_2  and  C_4
REMARK    2  A    between atoms: S_2  and  N_10
REMARK    3  A    between atoms: N_10  and  C_11
REMARK    4  A    between atoms: N_10  and  C_20
REMARK    5  A    between atoms: C_11  and  C_12
REMARK                            x       y       z     vdW  Elec       q    Type
REMARK                         _______ _______ _______ _____ _____    ______ ____
ROOT
ATOM      1  N   UNL     1       2.460   6.073  19.551  0.00  0.00    +0.000 N 
ENDROOT
BRANCH   1   2
ATOM      2  C   UNL     1       1.912   7.299  19.928  0.00  0.00    +0.000 A 
ATOM      3  N   UNL     1       1.430   7.446  21.200  0.00  0.00    +0.000 NA
ATOM      4  C   UNL     1       0.934   8.663  21.251  0.00  0.00    +0.000 A 
ATOM      5  C   UNL     1       0.265   9.343  22.308  0.00  0.00    +0.000 A 
ATOM      6  C   UNL     1      -0.145  10.612  22.132  0.00  0.00    +0.000 A 
ATOM      7  C   UNL     1       0.083  11.311  20.877  0.00  0.00    +0.000 A 
ATOM      8 CL   UNL     1      -0.451  12.936  20.725  0.00  0.00    +0.000 Cl
ATOM      9  C   UNL     1       0.700  10.674  19.868  0.00  0.00    +0.000 A 
ATOM     10  N   UNL     1       1.118   9.352  20.056  0.00  0.00    +0.000 N 
ATOM     11  C   UNL     1       1.751   8.466  19.217  0.00  0.00    +0.000 A 
ATOM     12 CL   UNL     1       2.140   8.895  17.617  0.00  0.00    +0.000 Cl
ENDBRANCH   1   2
BRANCH   1  14
ATOM     13  O   UNL     1       0.469   4.602  20.292  0.00  0.00    +0.000 OA
ATOM     14  S   UNL     1       1.915   4.706  20.427  0.00  0.00    +0.000 S 
ATOM     15  O   UNL     1       2.513   4.697  21.735  0.00  0.00    +0.000 OA
BRANCH  14  16
ATOM     16  C   UNL     1       2.619   3.338  19.518  0.00  0.00    +0.000 A 
ATOM     17  C   UNL     1       3.671   2.588  20.056  0.00  0.00    +0.000 A 
ATOM     18  C   UNL     1       4.229   1.547  19.301  0.00  0.00    +0.000 A 
ATOM     19  C   UNL     1       3.716   1.238  18.040  0.00  0.00    +0.000 A 
ATOM     20  C   UNL     1       2.642   1.963  17.527  0.00  0.00    +0.000 A 
ATOM     21  C   UNL     1       2.089   3.008  18.267  0.00  0.00    +0.000 A 
ENDBRANCH  14  16
ENDBRANCH   1  14
BRANCH   1  22
ATOM     22  C   UNL     1       3.091   5.943  18.226  0.00  0.00    +0.000 C 
BRANCH  22  23
ATOM     23  C   UNL     1       4.621   5.984  18.206  0.00  0.00    +0.000 A 
ATOM     24  C   UNL     1       5.361   5.262  19.168  0.00  0.00    +0.000 A 
ATOM     25  C   UNL     1       6.733   5.489  19.344  0.00  0.00    +0.000 A 
ATOM     26  C   UNL     1       7.369   6.448  18.565  0.00  0.00    +0.000 A 
ATOM     27  F   UNL     1       8.653   6.746  18.808  0.00  0.00    +0.000 F 
ATOM     28  C   UNL     1       6.668   7.121  17.575  0.00  0.00    +0.000 A 
ATOM     29  F   UNL     1       7.275   8.072  16.847  0.00  0.00    +0.000 F 
ATOM     30  C   UNL     1       5.311   6.875  17.372  0.00  0.00    +0.000 A 
ENDBRANCH  22  23
ENDBRANCH   1  22
TORSDOF 5
ENDMDL
MODEL 7
REMARK VINA RESULT:      -7.9      2.936      4.708
REMARK  Name = 
REMARK  5 active torsions:
REMARK  status: ('A' for Active; 'I' for Inactive)
REMARK    1  A    between atoms: S_2  and  C_4
REMARK    2  A    between atoms: S_2  and  N_10
REMARK    3  A    between atoms: N_10  and  C_11
REMARK    4  A    between atoms: N_10  and  C_20
REMARK    5  A    between atoms: C_11  and  C_12
REMARK                            x       y       z     vdW  Elec       q    Type
REMARK                         _______ _______ _______ _____ _____    ______ ____
ROOT
ATOM      1  N   UNL     1       3.703   5.317  17.608  0.00  0.00    +0.000 N 
ENDROOT
BRANCH   1   2
ATOM      2  C   UNL     1       3.020   6.406  18.149  0.00  0.00    +0.000 A 
ATOM      3  N   UNL     1       2.678   7.447  17.330  0.00  0.00    +0.000 NA
ATOM      4  C   UNL     1       2.104   8.336  18.110  0.00  0.00    +0.000 A 
ATOM      5  C   UNL     1       1.592   9.630  17.813  0.00  0.00    +0.000 A 
ATOM      6  C   UNL     1       1.025  10.365  18.787  0.00  0.00    +0.000 A 
ATOM      7  C   UNL     1       0.923   9.863  20.147  0.00  0.00    +0.000 A 
ATOM      8 CL   UNL     1       0.173  10.845  21.340  0.00  0.00    +0.000 Cl
ATOM      9  C   UNL     1       1.417   8.649  20.443  0.00  0.00    +0.000 A 
ATOM     10  N   UNL     1       2.011   7.893  19.426  0.00  0.00    +0.000 N 
ATOM     11  C   UNL     1       2.598   6.650  19.436  0.00  0.00    +0.000 A 
ATOM     12 CL   UNL     1       2.731   5.752  20.875  0.00  0.00    +0.000 Cl
ENDBRANCH   1   2
BRANCH   1  14
ATOM     13  O   UNL     1       5.838   4.264  18.612  0.00  0.00    +0.000 OA
ATOM     14  S   UNL     1       5.409   5.355  17.749  0.00  0.00    +0.000 S 
ATOM     15  O   UNL     1       5.843   6.698  18.026  0.00  0.00    +0.000 OA
BRANCH  14  16
ATOM     16  C   UNL     1       5.960   4.955  16.097  0.00  0.00    +0.000 A 
ATOM     17  C   UNL     1       7.219   5.367  15.643  0.00  0.00    +0.000 A 
ATOM     18  C   UNL     1       7.604   5.073  14.328  0.00  0.00    +0.000 A 
ATOM     19  C   UNL     1       6.757   4.345  13.491  0.00  0.00    +0.000 A 
ATOM     20  C   UNL     1       5.522   3.904  13.962  0.00  0.00    +0.000 A 
ATOM     21  C   UNL     1       5.125   4.202  15.265  0.00  0.00    +0.000 A 
ENDBRANCH  14  16
ENDBRANCH   1  14
BRANCH   1  22
ATOM     22  C   UNL     1       2.974   4.059  17.360  0.00  0.00    +0.000 C 
BRANCH  22  23
ATOM     23  C   UNL     1       2.426   3.348  18.599  0.00  0.00    +0.000 A 
ATOM     24  C   UNL     1       1.049   3.421  18.905  0.00  0.00    +0.000 A 
ATOM     25  C   UNL     1       0.565   3.015  20.157  0.00  0.00    +0.000 A 
ATOM     26  C   UNL     1       1.459   2.545  21.111  0.00  0.00    +0.000 A 
ATOM     27  F   UNL     1       1.015   2.263  22.345  0.00  0.00    +0.000 F 
ATOM     28  C   UNL     1       2.805   2.412  20.804  0.00  0.00    +0.000 A 
ATOM     29  F   UNL     1       3.672   1.990  21.738  0.00  0.00    +0.000 F 
ATOM     30  C   UNL     1       3.287   2.781  19.549  0.00  0.00    +0.000 A 
ENDBRANCH  22  23
ENDBRANCH   1  22
TORSDOF 5
ENDMDL
MODEL 8
REMARK VINA RESULT:      -7.9      1.538      1.882
REMARK  Name = 
REMARK  5 active torsions:
REMARK  status: ('A' for Active; 'I' for Inactive)
REMARK    1  A    between atoms: S_2  and  C_4
REMARK    2  A    between atoms: S_2  and  N_10
REMARK    3  A    between atoms: N_10  and  C_11
REMARK    4  A    between atoms: N_10  and  C_20
REMARK    5  A    between atoms: C_11  and  C_12
REMARK                            x       y       z     vdW  Elec       q    Type
REMARK                         _______ _______ _______ _____ _____    ______ ____
ROOT
ATOM      1  N   UNL     1       2.808   5.836  19.685  0.00  0.00    +0.000 N 
ENDROOT
BRANCH   1   2
ATOM      2  C   UNL     1       2.155   7.040  19.944  0.00  0.00    +0.000 A 
ATOM      3  N   UNL     1       1.614   7.247  21.183  0.00  0.00    +0.000 NA
ATOM      4  C   UNL     1       1.026   8.422  21.121  0.00  0.00    +0.000 A 
ATOM      5  C   UNL     1       0.267   9.127  22.096  0.00  0.00    +0.000 A 
ATOM      6  C   UNL     1      -0.230  10.343  21.806  0.00  0.00    +0.000 A 
ATOM      7  C   UNL     1      -0.007  10.958  20.508  0.00  0.00    +0.000 A 
ATOM      8 CL   UNL     1      -0.655  12.520  20.208  0.00  0.00    +0.000 Cl
ATOM      9  C   UNL     1       0.696  10.296  19.574  0.00  0.00    +0.000 A 
ATOM     10  N   UNL     1       1.204   9.029  19.880  0.00  0.00    +0.000 N 
ATOM     11  C   UNL     1       1.935   8.133  19.136  0.00  0.00    +0.000 A 
ATOM     12 CL   UNL     1       2.352   8.466  17.521  0.00  0.00    +0.000 Cl
ENDBRANCH   1   2
BRANCH   1  14
ATOM     13  O   UNL     1       1.565   4.770  17.686  0.00  0.00    +0.000 OA
ATOM     14  S   UNL     1       1.826   4.559  19.103  0.00  0.00    +0.000 S 
ATOM     15  O   UNL     1       0.729   4.340  20.007  0.00  0.00    +0.000 OA
BRANCH  14  16
ATOM     16  C   UNL     1       2.900   3.137  19.226  0.00  0.00    +0.000 A 
ATOM     17  C   UNL     1       3.614   2.878  20.402  0.00  0.00    +0.000 A 
ATOM     18  C   UNL     1       4.480   1.777  20.452  0.00  0.00    +0.000 A 
ATOM     19  C   UNL     1       4.600   0.924  19.354  0.00  0.00    +0.000 A 
ATOM     20  C   UNL     1       3.857   1.165  18.199  0.00  0.00    +0.000 A 
ATOM     21  C   UNL     1       3.002   2.264  18.137  0.00  0.00    +0.000 A 
ENDBRANCH  14  16
ENDBRANCH   1  14
BRANCH   1  22
ATOM     22  C   UNL     1       4.271   5.834  19.500  0.00  0.00    +0.000 C 
BRANCH  22  23
ATOM     23  C   UNL     1       4.767   5.534  18.083  0.00  0.00    +0.000 A 
ATOM     24  C   UNL     1       5.734   4.528  17.870  0.00  0.00    +0.000 A 
ATOM     25  C   UNL     1       6.399   4.412  16.641  0.00  0.00    +0.000 A 
ATOM     26  C   UNL     1       6.106   5.312  15.623  0.00  0.00    +0.000 A 
ATOM     27  F   UNL     1       6.819   5.275  14.488  0.00  0.00    +0.000 F 
ATOM     28  C   UNL     1       5.115   6.267  15.798  0.00  0.00    +0.000 A 
ATOM     29  F   UNL     1       4.858   7.157  14.827  0.00  0.00    +0.000 F 
ATOM     30  C   UNL     1       4.427   6.365  17.006  0.00  0.00    +0.000 A 
ENDBRANCH  22  23
ENDBRANCH   1  22
TORSDOF 5
ENDMDL
MODEL 9
REMARK VINA RESULT:      -7.7      2.701      3.832
REMARK  Name = 
REMARK  5 active torsions:
REMARK  status: ('A' for Active; 'I' for Inactive)
REMARK    1  A    between atoms: S_2  and  C_4
REMARK    2  A    between atoms: S_2  and  N_10
REMARK    3  A    between atoms: N_10  and  C_11
REMARK    4  A    between atoms: N_10  and  C_20
REMARK    5  A    between atoms: C_11  and  C_12
REMARK                            x       y       z     vdW  Elec       q    Type
REMARK                         _______ _______ _______ _____ _____    ______ ____
ROOT
ATOM      1  N   UNL     1       4.459   4.433  17.909  0.00  0.00    +0.000 N 
ENDROOT
BRANCH   1   2
ATOM      2  C   UNL     1       3.808   5.636  18.177  0.00  0.00    +0.000 A 
ATOM      3  N   UNL     1       3.143   5.780  19.364  0.00  0.00    +0.000 NA
ATOM      4  C   UNL     1       2.590   6.972  19.318  0.00  0.00    +0.000 A 
ATOM      5  C   UNL     1       1.747   7.635  20.254  0.00  0.00    +0.000 A 
ATOM      6  C   UNL     1       1.308   8.880  19.994  0.00  0.00    +0.000 A 
ATOM      7  C   UNL     1       1.680   9.569  18.769  0.00  0.00    +0.000 A 
ATOM      8 CL   UNL     1       1.100  11.164  18.506  0.00  0.00    +0.000 Cl
ATOM      9  C   UNL     1       2.463   8.948  17.872  0.00  0.00    +0.000 A 
ATOM     10  N   UNL     1       2.910   7.650  18.146  0.00  0.00    +0.000 N 
ATOM     11  C   UNL     1       3.697   6.784  17.424  0.00  0.00    +0.000 A 
ATOM     12 CL   UNL     1       4.289   7.206  15.886  0.00  0.00    +0.000 Cl
ENDBRANCH   1   2
BRANCH   1  14
ATOM     13  O   UNL     1       4.284   1.884  17.524  0.00  0.00    +0.000 OA
ATOM     14  S   UNL     1       3.451   3.068  17.681  0.00  0.00    +0.000 S 
ATOM     15  O   UNL     1       2.443   3.368  16.699  0.00  0.00    +0.000 OA
BRANCH  14  16
ATOM     16  C   UNL     1       2.621   2.912  19.255  0.00  0.00    +0.000 A 
ATOM     17  C   UNL     1       1.238   3.106  19.357  0.00  0.00    +0.000 A 
ATOM     18  C   UNL     1       0.623   3.018  20.614  0.00  0.00    +0.000 A 
ATOM     19  C   UNL     1       1.376   2.701  21.746  0.00  0.00    +0.000 A 
ATOM     20  C   UNL     1       2.746   2.470  21.631  0.00  0.00    +0.000 A 
ATOM     21  C   UNL     1       3.367   2.568  20.387  0.00  0.00    +0.000 A 
ENDBRANCH  14  16
ENDBRANCH   1  14
BRANCH   1  22
ATOM     22  C   UNL     1       5.850   4.459  17.420  0.00  0.00    +0.000 C 
BRANCH  22  23
ATOM     23  C   UNL     1       6.025   4.564  15.903  0.00  0.00    +0.000 A 
ATOM     24  C   UNL     1       5.193   3.815  15.042  0.00  0.00    +0.000 A 
ATOM     25  C   UNL     1       5.496   3.681  13.680  0.00  0.00    +0.000 A 
ATOM     26  C   UNL     1       6.641   4.287  13.176  0.00  0.00    +0.000 A 
ATOM     27  F   UNL     1       6.995   4.067  11.901  0.00  0.00    +0.000 F 
ATOM     28  C   UNL     1       7.435   5.074  13.998  0.00  0.00    +0.000 A 
ATOM     29  F   UNL     1       8.559   5.630  13.518  0.00  0.00    +0.000 F 
ATOM     30  C   UNL     1       7.119   5.239  15.345  0.00  0.00    +0.000 A 
ENDBRANCH  22  23
ENDBRANCH   1  22
TORSDOF 5
ENDMDL
