MODEL 1
REMARK VINA RESULT:      -8.9      0.000      0.000
REMARK  Name = 
REMARK  6 active torsions:
REMARK  status: ('A' for Active; 'I' for Inactive)
REMARK    1  A    between atoms: C_1  and  C_2
REMARK    2  A    between atoms: C_2  and  O_3
REMARK    3  A    between atoms: O_3  and  C_4
REMARK    4  A    between atoms: C_9  and  N_10
REMARK    5  A    between atoms: C_11  and  C_13
REMARK    6  A    between atoms: C_22  and  C_23
REMARK                            x       y       z     vdW  Elec       q    Type
REMARK                         _______ _______ _______ _____ _____    ______ ____
ROOT
ATOM      1  C   UNL     1       1.802   7.734  19.741  0.00  0.00    +0.000 A 
ATOM      2  C   UNL     1       1.950   8.533  18.581  0.00  0.00    +0.000 A 
ATOM      3  C   UNL     1       1.477   9.849  18.550  0.00  0.00    +0.000 A 
ATOM      4  C   UNL     1       0.863  10.323  19.693  0.00  0.00    +0.000 A 
ATOM      5  C   UNL     1       0.678   9.541  20.845  0.00  0.00    +0.000 A 
ATOM      6  C   UNL     1       1.137   8.235  20.874  0.00  0.00    +0.000 A 
ATOM      7  S   UNL     1      -0.142  10.442  22.167  0.00  0.00    +0.000 S 
ATOM      8  C   UNL     1      -0.182  11.835  21.135  0.00  0.00    +0.000 A 
ATOM      9  N   UNL     1      -0.618  13.057  21.273  0.00  0.00    +0.000 NA
ATOM     10  C   UNL     1      -0.355  13.643  20.039  0.00  0.00    +0.000 A 
ATOM     11  C   UNL     1       0.267  12.741  19.180  0.00  0.00    +0.000 A 
ATOM     12  N   UNL     1       0.360  11.600  19.908  0.00  0.00    +0.000 N 
ENDROOT
BRANCH  10  13
ATOM     13  C   UNL     1      -0.735  15.010  19.716  0.00  0.00    +0.000 A 
ATOM     14  C   UNL     1      -1.706  15.665  20.484  0.00  0.00    +0.000 A 
ATOM     15  C   UNL     1      -2.130  16.957  20.153  0.00  0.00    +0.000 A 
ATOM     16  C   UNL     1      -1.576  17.606  19.051  0.00  0.00    +0.000 A 
ATOM     17  C   UNL     1      -0.600  16.973  18.290  0.00  0.00    +0.000 A 
ATOM     18  C   UNL     1      -0.177  15.686  18.617  0.00  0.00    +0.000 A 
ENDBRANCH  10  13
BRANCH   1  20
ATOM     19  N   UNL     1       3.549   6.124  19.169  0.00  0.00    +0.000 N 
ATOM     20  C   UNL     1       2.346   6.347  19.811  0.00  0.00    +0.000 C 
ATOM     21  O   UNL     1       1.750   5.490  20.453  0.00  0.00    +0.000 OA
ATOM     22  H   UNL     1       4.014   6.891  18.706  0.00  0.00    +0.000 HD
BRANCH  19  28
ATOM     23  C   UNL     1       6.647   4.289  15.726  0.00  0.00    +0.000 C 
ATOM     24  O   UNL     1       7.798   4.701  15.646  0.00  0.00    +0.000 OA
ATOM     25  N   UNL     1       5.812   4.526  16.806  0.00  0.00    +0.000 N 
ATOM     26  C   UNL     1       6.294   5.397  17.865  0.00  0.00    +0.000 C 
ATOM     27  C   UNL     1       5.745   4.971  19.220  0.00  0.00    +0.000 C 
ATOM     28  C   UNL     1       4.218   4.824  19.210  0.00  0.00    +0.000 C 
ATOM     29  C   UNL     1       3.776   3.918  18.055  0.00  0.00    +0.000 C 
ATOM     30  C   UNL     1       4.361   4.362  16.719  0.00  0.00    +0.000 C 
BRANCH  23  31
ATOM     31  O   UNL     1       6.018   3.607  14.733  0.00  0.00    +0.000 OA
BRANCH  31  33
ATOM     32  C   UNL     1       5.423   3.370  12.450  0.00  0.00    +0.000 C 
ATOM     33  C   UNL     1       6.471   3.906  13.409  0.00  0.00    +0.000 C 
ENDBRANCH  31  33
ENDBRANCH  23  31
ENDBRANCH  19  28
ENDBRANCH   1  20
TORSDOF 5
ENDMDL
MODEL 2
REMARK VINA RESULT:      -8.8      0.813      1.222
REMARK  Name = 
REMARK  6 active torsions:
REMARK  status: ('A' for Active; 'I' for Inactive)
REMARK    1  A    between atoms: C_1  and  C_2
REMARK    2  A    between atoms: C_2  and  O_3
REMARK    3  A    between atoms: O_3  and  C_4
REMARK    4  A    between atoms: C_9  and  N_10
REMARK    5  A    between atoms: C_11  and  C_13
REMARK    6  A    between atoms: C_22  and  C_23
REMARK                            x       y       z     vdW  Elec       q    Type
REMARK                         _______ _______ _______ _____ _____    ______ ____
ROOT
ATOM      1  C   UNL     1       2.202   7.331  19.655  0.00  0.00    +0.000 A 
ATOM      2  C   UNL     1       2.166   8.223  18.557  0.00  0.00    +0.000 A 
ATOM      3  C   UNL     1       1.534   9.468  18.661  0.00  0.00    +0.000 A 
ATOM      4  C   UNL     1       0.952   9.776  19.876  0.00  0.00    +0.000 A 
ATOM      5  C   UNL     1       0.948   8.895  20.970  0.00  0.00    +0.000 A 
ATOM      6  C   UNL     1       1.565   7.661  20.865  0.00  0.00    +0.000 A 
ATOM      7  S   UNL     1       0.123   9.587  22.410  0.00  0.00    +0.000 S 
ATOM      8  C   UNL     1      -0.163  11.033  21.498  0.00  0.00    +0.000 A 
ATOM      9  N   UNL     1      -0.734  12.177  21.761  0.00  0.00    +0.000 NA
ATOM     10  C   UNL     1      -0.636  12.878  20.564  0.00  0.00    +0.000 A 
ATOM     11  C   UNL     1       0.028  12.128  19.598  0.00  0.00    +0.000 A 
ATOM     12  N   UNL     1       0.313  10.959  20.224  0.00  0.00    +0.000 N 
ENDROOT
BRANCH  10  13
ATOM     13  C   UNL     1      -1.204  14.206  20.377  0.00  0.00    +0.000 A 
ATOM     14  C   UNL     1      -0.544  15.139  19.567  0.00  0.00    +0.000 A 
ATOM     15  C   UNL     1      -1.039  16.439  19.423  0.00  0.00    +0.000 A 
ATOM     16  C   UNL     1      -2.208  16.813  20.086  0.00  0.00    +0.000 A 
ATOM     17  C   UNL     1      -2.880  15.892  20.880  0.00  0.00    +0.000 A 
ATOM     18  C   UNL     1      -2.388  14.595  21.026  0.00  0.00    +0.000 A 
ENDBRANCH  10  13
BRANCH   1  20
ATOM     19  N   UNL     1       4.144   6.028  18.946  0.00  0.00    +0.000 N 
ATOM     20  C   UNL     1       2.915   6.024  19.580  0.00  0.00    +0.000 C 
ATOM     21  O   UNL     1       2.427   5.031  20.103  0.00  0.00    +0.000 OA
ATOM     22  H   UNL     1       4.513   6.896  18.586  0.00  0.00    +0.000 HD
BRANCH  19  28
ATOM     23  C   UNL     1       6.726   4.520  14.962  0.00  0.00    +0.000 C 
ATOM     24  O   UNL     1       7.777   5.074  14.659  0.00  0.00    +0.000 OA
ATOM     25  N   UNL     1       6.094   4.676  16.184  0.00  0.00    +0.000 N 
ATOM     26  C   UNL     1       6.655   5.626  17.130  0.00  0.00    +0.000 C 
ATOM     27  C   UNL     1       6.438   5.166  18.565  0.00  0.00    +0.000 C 
ATOM     28  C   UNL     1       4.971   4.826  18.853  0.00  0.00    +0.000 C 
ATOM     29  C   UNL     1       4.435   3.843  17.806  0.00  0.00    +0.000 C 
ATOM     30  C   UNL     1       4.687   4.326  16.383  0.00  0.00    +0.000 C 
BRANCH  23  31
ATOM     31  O   UNL     1       6.011   3.741  14.110  0.00  0.00    +0.000 OA
BRANCH  31  33
ATOM     32  C   UNL     1       5.323   3.201  11.905  0.00  0.00    +0.000 C 
ATOM     33  C   UNL     1       6.456   3.758  12.750  0.00  0.00    +0.000 C 
ENDBRANCH  31  33
ENDBRANCH  23  31
ENDBRANCH  19  28
ENDBRANCH   1  20
TORSDOF 5
ENDMDL
MODEL 3
REMARK VINA RESULT:      -8.7      0.979      1.170
REMARK  Name = 
REMARK  6 active torsions:
REMARK  status: ('A' for Active; 'I' for Inactive)
REMARK    1  A    between atoms: C_1  and  C_2
REMARK    2  A    between atoms: C_2  and  O_3
REMARK    3  A    between atoms: O_3  and  C_4
REMARK    4  A    between atoms: C_9  and  N_10
REMARK    5  A    between atoms: C_11  and  C_13
REMARK    6  A    between atoms: C_22  and  C_23
REMARK                            x       y       z     vdW  Elec       q    Type
REMARK                         _______ _______ _______ _____ _____    ______ ____
ROOT
ATOM      1  C   UNL     1       1.777   8.390  19.489  0.00  0.00    +0.000 A 
ATOM      2  C   UNL     1       2.138   9.072  18.302  0.00  0.00    +0.000 A 
ATOM      3  C   UNL     1       1.852  10.432  18.137  0.00  0.00    +0.000 A 
ATOM      4  C   UNL     1       1.204  11.067  19.180  0.00  0.00    +0.000 A 
ATOM      5  C   UNL     1       0.810  10.406  20.354  0.00  0.00    +0.000 A 
ATOM      6  C   UNL     1       1.084   9.059  20.514  0.00  0.00    +0.000 A 
ATOM      7  S   UNL     1      -0.000  11.504  21.525  0.00  0.00    +0.000 S 
ATOM      8  C   UNL     1       0.243  12.806  20.407  0.00  0.00    +0.000 A 
ATOM      9  N   UNL     1      -0.035  14.081  20.421  0.00  0.00    +0.000 NA
ATOM     10  C   UNL     1       0.417  14.532  19.185  0.00  0.00    +0.000 A 
ATOM     11  C   UNL     1       0.989  13.494  18.454  0.00  0.00    +0.000 A 
ATOM     12  N   UNL     1       0.859  12.410  19.259  0.00  0.00    +0.000 N 
ENDROOT
BRANCH  10  13
ATOM     13  C   UNL     1       0.256  15.907  18.737  0.00  0.00    +0.000 A 
ATOM     14  C   UNL     1      -0.987  16.541  18.862  0.00  0.00    +0.000 A 
ATOM     15  C   UNL     1      -1.180  17.841  18.382  0.00  0.00    +0.000 A 
ATOM     16  C   UNL     1      -0.122  18.520  17.778  0.00  0.00    +0.000 A 
ATOM     17  C   UNL     1       1.121  17.908  17.663  0.00  0.00    +0.000 A 
ATOM     18  C   UNL     1       1.314  16.613  18.140  0.00  0.00    +0.000 A 
ENDBRANCH  10  13
BRANCH   1  20
ATOM     19  N   UNL     1       3.089   6.423  18.873  0.00  0.00    +0.000 N 
ATOM     20  C   UNL     1       2.121   6.956  19.704  0.00  0.00    +0.000 C 
ATOM     21  O   UNL     1       1.584   6.329  20.608  0.00  0.00    +0.000 OA
ATOM     22  H   UNL     1       3.531   7.013  18.184  0.00  0.00    +0.000 HD
BRANCH  19  28
ATOM     23  C   UNL     1       6.699   4.242  16.223  0.00  0.00    +0.000 C 
ATOM     24  O   UNL     1       7.875   4.498  16.451  0.00  0.00    +0.000 OA
ATOM     25  N   UNL     1       5.656   4.573  17.072  0.00  0.00    +0.000 N 
ATOM     26  C   UNL     1       5.960   5.355  18.258  0.00  0.00    +0.000 C 
ATOM     27  C   UNL     1       5.038   4.986  19.411  0.00  0.00    +0.000 C 
ATOM     28  C   UNL     1       3.557   5.045  19.016  0.00  0.00    +0.000 C 
ATOM     29  C   UNL     1       3.311   4.223  17.745  0.00  0.00    +0.000 C 
ATOM     30  C   UNL     1       4.265   4.605  16.620  0.00  0.00    +0.000 C 
BRANCH  23  31
ATOM     31  O   UNL     1       6.261   3.666  15.073  0.00  0.00    +0.000 OA
BRANCH  31  33
ATOM     32  C   UNL     1       6.077   3.539  12.712  0.00  0.00    +0.000 C 
ATOM     33  C   UNL     1       6.631   4.349  13.870  0.00  0.00    +0.000 C 
ENDBRANCH  31  33
ENDBRANCH  23  31
ENDBRANCH  19  28
ENDBRANCH   1  20
TORSDOF 5
ENDMDL
MODEL 4
REMARK VINA RESULT:      -8.4      1.936      2.649
REMARK  Name = 
REMARK  6 active torsions:
REMARK  status: ('A' for Active; 'I' for Inactive)
REMARK    1  A    between atoms: C_1  and  C_2
REMARK    2  A    between atoms: C_2  and  O_3
REMARK    3  A    between atoms: O_3  and  C_4
REMARK    4  A    between atoms: C_9  and  N_10
REMARK    5  A    between atoms: C_11  and  C_13
REMARK    6  A    between atoms: C_22  and  C_23
REMARK                            x       y       z     vdW  Elec       q    Type
REMARK                         _______ _______ _______ _____ _____    ______ ____
ROOT
ATOM      1  C   UNL     1       2.542   6.400  19.556  0.00  0.00    +0.000 A 
ATOM      2  C   UNL     1       1.871   6.452  20.802  0.00  0.00    +0.000 A 
ATOM      3  C   UNL     1       1.147   7.588  21.183  0.00  0.00    +0.000 A 
ATOM      4  C   UNL     1       1.123   8.644  20.293  0.00  0.00    +0.000 A 
ATOM      5  C   UNL     1       1.804   8.628  19.065  0.00  0.00    +0.000 A 
ATOM      6  C   UNL     1       2.528   7.509  18.691  0.00  0.00    +0.000 A 
ATOM      7  S   UNL     1       1.571  10.144  18.127  0.00  0.00    +0.000 S 
ATOM      8  C   UNL     1       0.553  10.727  19.403  0.00  0.00    +0.000 A 
ATOM      9  N   UNL     1      -0.127  11.824  19.595  0.00  0.00    +0.000 NA
ATOM     10  C   UNL     1      -0.701  11.642  20.849  0.00  0.00    +0.000 A 
ATOM     11  C   UNL     1      -0.361  10.400  21.379  0.00  0.00    +0.000 A 
ATOM     12  N   UNL     1       0.440   9.845  20.434  0.00  0.00    +0.000 N 
ENDROOT
BRANCH  10  13
ATOM     13  C   UNL     1      -1.512  12.658  21.502  0.00  0.00    +0.000 A 
ATOM     14  C   UNL     1      -2.017  12.429  22.789  0.00  0.00    +0.000 A 
ATOM     15  C   UNL     1      -2.848  13.366  23.410  0.00  0.00    +0.000 A 
ATOM     16  C   UNL     1      -3.176  14.548  22.747  0.00  0.00    +0.000 A 
ATOM     17  C   UNL     1      -2.670  14.795  21.477  0.00  0.00    +0.000 A 
ATOM     18  C   UNL     1      -1.841  13.862  20.856  0.00  0.00    +0.000 A 
ENDBRANCH  10  13
BRANCH   1  20
ATOM     19  N   UNL     1       4.588   5.358  18.721  0.00  0.00    +0.000 N 
ATOM     20  C   UNL     1       3.274   5.181  19.111  0.00  0.00    +0.000 C 
ATOM     21  O   UNL     1       2.719   4.089  19.146  0.00  0.00    +0.000 OA
ATOM     22  H   UNL     1       5.000   6.279  18.771  0.00  0.00    +0.000 HD
BRANCH  19  28
ATOM     23  C   UNL     1       6.791   4.767  14.292  0.00  0.00    +0.000 C 
ATOM     24  O   UNL     1       7.790   5.417  14.006  0.00  0.00    +0.000 OA
ATOM     25  N   UNL     1       6.282   4.655  15.576  0.00  0.00    +0.000 N 
ATOM     26  C   UNL     1       6.911   5.430  16.632  0.00  0.00    +0.000 C 
ATOM     27  C   UNL     1       6.854   4.693  17.963  0.00  0.00    +0.000 C 
ATOM     28  C   UNL     1       5.433   4.236  18.316  0.00  0.00    +0.000 C 
ATOM     29  C   UNL     1       4.820   3.450  17.152  0.00  0.00    +0.000 C 
ATOM     30  C   UNL     1       4.913   4.208  15.834  0.00  0.00    +0.000 C 
BRANCH  23  31
ATOM     31  O   UNL     1       6.014   4.134  13.376  0.00  0.00    +0.000 OA
BRANCH  31  33
ATOM     32  C   UNL     1       5.891   2.455  11.705  0.00  0.00    +0.000 C 
ATOM     33  C   UNL     1       6.712   3.615  12.239  0.00  0.00    +0.000 C 
ENDBRANCH  31  33
ENDBRANCH  23  31
ENDBRANCH  19  28
ENDBRANCH   1  20
TORSDOF 5
ENDMDL
MODEL 5
REMARK VINA RESULT:      -8.4      1.614      2.265
REMARK  Name = 
REMARK  6 active torsions:
REMARK  status: ('A' for Active; 'I' for Inactive)
REMARK    1  A    between atoms: C_1  and  C_2
REMARK    2  A    between atoms: C_2  and  O_3
REMARK    3  A    between atoms: O_3  and  C_4
REMARK    4  A    between atoms: C_9  and  N_10
REMARK    5  A    between atoms: C_11  and  C_13
REMARK    6  A    between atoms: C_22  and  C_23
REMARK                            x       y       z     vdW  Elec       q    Type
REMARK                         _______ _______ _______ _____ _____    ______ ____
ROOT
ATOM      1  C   UNL     1       2.305   6.859  19.905  0.00  0.00    +0.000 A 
ATOM      2  C   UNL     1       1.489   7.084  21.040  0.00  0.00    +0.000 A 
ATOM      3  C   UNL     1       0.719   8.247  21.154  0.00  0.00    +0.000 A 
ATOM      4  C   UNL     1       0.797   9.155  20.116  0.00  0.00    +0.000 A 
ATOM      5  C   UNL     1       1.621   8.968  18.994  0.00  0.00    +0.000 A 
ATOM      6  C   UNL     1       2.390   7.823  18.885  0.00  0.00    +0.000 A 
ATOM      7  S   UNL     1       1.494  10.318  17.813  0.00  0.00    +0.000 S 
ATOM      8  C   UNL     1       0.328  11.065  18.856  0.00  0.00    +0.000 A 
ATOM      9  N   UNL     1      -0.376  12.162  18.795  0.00  0.00    +0.000 NA
ATOM     10  C   UNL     1      -1.096  12.159  19.985  0.00  0.00    +0.000 A 
ATOM     11  C   UNL     1      -0.816  11.020  20.736  0.00  0.00    +0.000 A 
ATOM     12  N   UNL     1       0.096  10.347  19.989  0.00  0.00    +0.000 N 
ENDROOT
BRANCH  10  13
ATOM     13  C   UNL     1      -1.984  13.244  20.375  0.00  0.00    +0.000 A 
ATOM     14  C   UNL     1      -1.499  14.556  20.437  0.00  0.00    +0.000 A 
ATOM     15  C   UNL     1      -2.319  15.604  20.868  0.00  0.00    +0.000 A 
ATOM     16  C   UNL     1      -3.639  15.344  21.235  0.00  0.00    +0.000 A 
ATOM     17  C   UNL     1      -4.138  14.049  21.163  0.00  0.00    +0.000 A 
ATOM     18  C   UNL     1      -3.322  13.003  20.734  0.00  0.00    +0.000 A 
ENDBRANCH  10  13
BRANCH   1  20
ATOM     19  N   UNL     1       4.241   5.690  18.980  0.00  0.00    +0.000 N 
ATOM     20  C   UNL     1       3.091   5.603  19.742  0.00  0.00    +0.000 C 
ATOM     21  O   UNL     1       2.728   4.578  20.306  0.00  0.00    +0.000 OA
ATOM     22  H   UNL     1       4.511   6.582  18.589  0.00  0.00    +0.000 HD
BRANCH  19  28
ATOM     23  C   UNL     1       6.781   4.585  14.839  0.00  0.00    +0.000 C 
ATOM     24  O   UNL     1       7.789   5.216  14.544  0.00  0.00    +0.000 OA
ATOM     25  N   UNL     1       6.178   4.627  16.086  0.00  0.00    +0.000 N 
ATOM     26  C   UNL     1       6.714   5.548  17.075  0.00  0.00    +0.000 C 
ATOM     27  C   UNL     1       6.567   4.988  18.483  0.00  0.00    +0.000 C 
ATOM     28  C   UNL     1       5.131   4.546  18.788  0.00  0.00    +0.000 C 
ATOM     29  C   UNL     1       4.619   3.601  17.695  0.00  0.00    +0.000 C 
ATOM     30  C   UNL     1       4.800   4.184  16.299  0.00  0.00    +0.000 C 
BRANCH  23  31
ATOM     31  O   UNL     1       6.084   3.819  13.959  0.00  0.00    +0.000 OA
BRANCH  31  33
ATOM     32  C   UNL     1       5.949   2.638  11.907  0.00  0.00    +0.000 C 
ATOM     33  C   UNL     1       6.596   3.810  12.622  0.00  0.00    +0.000 C 
ENDBRANCH  31  33
ENDBRANCH  23  31
ENDBRANCH  19  28
ENDBRANCH   1  20
TORSDOF 5
ENDMDL
MODEL 6
REMARK VINA RESULT:      -8.1      1.243      1.307
REMARK  Name = 
REMARK  6 active torsions:
REMARK  status: ('A' for Active; 'I' for Inactive)
REMARK    1  A    between atoms: C_1  and  C_2
REMARK    2  A    between atoms: C_2  and  O_3
REMARK    3  A    between atoms: O_3  and  C_4
REMARK    4  A    between atoms: C_9  and  N_10
REMARK    5  A    between atoms: C_11  and  C_13
REMARK    6  A    between atoms: C_22  and  C_23
REMARK                            x       y       z     vdW  Elec       q    Type
REMARK                         _______ _______ _______ _____ _____    ______ ____
ROOT
ATOM      1  C   UNL     1       1.882   7.345  20.049  0.00  0.00    +0.000 A 
ATOM      2  C   UNL     1       1.877   8.326  19.029  0.00  0.00    +0.000 A 
ATOM      3  C   UNL     1       1.305   9.585  19.244  0.00  0.00    +0.000 A 
ATOM      4  C   UNL     1       0.749   9.817  20.488  0.00  0.00    +0.000 A 
ATOM      5  C   UNL     1       0.715   8.850  21.505  0.00  0.00    +0.000 A 
ATOM      6  C   UNL     1       1.273   7.602  21.290  0.00  0.00    +0.000 A 
ATOM      7  S   UNL     1      -0.064   9.456  23.008  0.00  0.00    +0.000 S 
ATOM      8  C   UNL     1      -0.290  10.985  22.223  0.00  0.00    +0.000 A 
ATOM      9  N   UNL     1      -0.805  12.128  22.587  0.00  0.00    +0.000 NA
ATOM     10  C   UNL     1      -0.686  12.921  21.451  0.00  0.00    +0.000 A 
ATOM     11  C   UNL     1      -0.067  12.224  20.417  0.00  0.00    +0.000 A 
ATOM     12  N   UNL     1       0.169  10.995  20.941  0.00  0.00    +0.000 N 
ENDROOT
BRANCH  10  13
ATOM     13  C   UNL     1      -1.193  14.284  21.382  0.00  0.00    +0.000 A 
ATOM     14  C   UNL     1      -2.463  14.530  20.844  0.00  0.00    +0.000 A 
ATOM     15  C   UNL     1      -2.944  15.837  20.711  0.00  0.00    +0.000 A 
ATOM     16  C   UNL     1      -2.155  16.910  21.125  0.00  0.00    +0.000 A 
ATOM     17  C   UNL     1      -0.900  16.679  21.674  0.00  0.00    +0.000 A 
ATOM     18  C   UNL     1      -0.419  15.377  21.807  0.00  0.00    +0.000 A 
ENDBRANCH  10  13
BRANCH   1  20
ATOM     19  N   UNL     1       3.779   6.024  19.257  0.00  0.00    +0.000 N 
ATOM     20  C   UNL     1       2.533   6.018  19.856  0.00  0.00    +0.000 C 
ATOM     21  O   UNL     1       1.982   5.002  20.262  0.00  0.00    +0.000 OA
ATOM     22  H   UNL     1       4.201   6.904  18.998  0.00  0.00    +0.000 HD
BRANCH  19  28
ATOM     23  C   UNL     1       6.377   4.786  15.191  0.00  0.00    +0.000 C 
ATOM     24  O   UNL     1       7.459   5.313  14.964  0.00  0.00    +0.000 OA
ATOM     25  N   UNL     1       5.724   4.852  16.411  0.00  0.00    +0.000 N 
ATOM     26  C   UNL     1       6.309   5.676  17.456  0.00  0.00    +0.000 C 
ATOM     27  C   UNL     1       6.037   5.089  18.834  0.00  0.00    +0.000 C 
ATOM     28  C   UNL     1       4.549   4.796  19.061  0.00  0.00    +0.000 C 
ATOM     29  C   UNL     1       3.991   3.949  17.911  0.00  0.00    +0.000 C 
ATOM     30  C   UNL     1       4.299   4.555  16.548  0.00  0.00    +0.000 C 
BRANCH  23  31
ATOM     31  O   UNL     1       5.644   4.130  14.253  0.00  0.00    +0.000 OA
BRANCH  31  33
ATOM     32  C   UNL     1       5.384   3.285  12.053  0.00  0.00    +0.000 C 
ATOM     33  C   UNL     1       6.389   3.636  13.135  0.00  0.00    +0.000 C 
ENDBRANCH  31  33
ENDBRANCH  23  31
ENDBRANCH  19  28
ENDBRANCH   1  20
TORSDOF 5
ENDMDL
MODEL 7
REMARK VINA RESULT:      -8.0      1.358      1.829
REMARK  Name = 
REMARK  6 active torsions:
REMARK  status: ('A' for Active; 'I' for Inactive)
REMARK    1  A    between atoms: C_1  and  C_2
REMARK    2  A    between atoms: C_2  and  O_3
REMARK    3  A    between atoms: O_3  and  C_4
REMARK    4  A    between atoms: C_9  and  N_10
REMARK    5  A    between atoms: C_11  and  C_13
REMARK    6  A    between atoms: C_22  and  C_23
REMARK                            x       y       z     vdW  Elec       q    Type
REMARK                         _______ _______ _______ _____ _____    ______ ____
ROOT
ATOM      1  C   UNL     1       2.483   7.056  18.812  0.00  0.00    +0.000 A 
ATOM      2  C   UNL     1       2.334   8.072  17.837  0.00  0.00    +0.000 A 
ATOM      3  C   UNL     1       1.792   9.318  18.173  0.00  0.00    +0.000 A 
ATOM      4  C   UNL     1       1.412   9.503  19.488  0.00  0.00    +0.000 A 
ATOM      5  C   UNL     1       1.521   8.501  20.466  0.00  0.00    +0.000 A 
ATOM      6  C   UNL     1       2.049   7.265  20.133  0.00  0.00    +0.000 A 
ATOM      7  S   UNL     1       0.954   9.049  22.082  0.00  0.00    +0.000 S 
ATOM      8  C   UNL     1       0.616  10.602  21.389  0.00  0.00    +0.000 A 
ATOM      9  N   UNL     1       0.151  11.727  21.861  0.00  0.00    +0.000 NA
ATOM     10  C   UNL     1       0.111  12.559  20.748  0.00  0.00    +0.000 A 
ATOM     11  C   UNL     1       0.584  11.904  19.615  0.00  0.00    +0.000 A 
ATOM     12  N   UNL     1       0.895  10.659  20.058  0.00  0.00    +0.000 N 
ENDROOT
BRANCH  10  13
ATOM     13  C   UNL     1      -0.406  13.919  20.796  0.00  0.00    +0.000 A 
ATOM     14  C   UNL     1      -0.532  14.661  19.615  0.00  0.00    +0.000 A 
ATOM     15  C   UNL     1      -0.968  15.990  19.646  0.00  0.00    +0.000 A 
ATOM     16  C   UNL     1      -1.289  16.585  20.865  0.00  0.00    +0.000 A 
ATOM     17  C   UNL     1      -1.183  15.855  22.043  0.00  0.00    +0.000 A 
ATOM     18  C   UNL     1      -0.748  14.531  22.014  0.00  0.00    +0.000 A 
ENDBRANCH  10  13
BRANCH   1  20
ATOM     19  N   UNL     1       4.401   5.777  18.003  0.00  0.00    +0.000 N 
ATOM     20  C   UNL     1       3.106   5.742  18.485  0.00  0.00    +0.000 C 
ATOM     21  O   UNL     1       2.488   4.705  18.691  0.00  0.00    +0.000 OA
ATOM     22  H   UNL     1       4.872   6.666  17.910  0.00  0.00    +0.000 HD
BRANCH  19  28
ATOM     23  C   UNL     1       7.065   4.896  13.886  0.00  0.00    +0.000 C 
ATOM     24  O   UNL     1       8.164   5.416  13.737  0.00  0.00    +0.000 OA
ATOM     25  N   UNL     1       6.385   4.854  15.092  0.00  0.00    +0.000 N 
ATOM     26  C   UNL     1       6.964   5.551  16.229  0.00  0.00    +0.000 C 
ATOM     27  C   UNL     1       6.646   4.833  17.533  0.00  0.00    +0.000 C 
ATOM     28  C   UNL     1       5.146   4.557  17.697  0.00  0.00    +0.000 C 
ATOM     29  C   UNL     1       4.595   3.847  16.455  0.00  0.00    +0.000 C 
ATOM     30  C   UNL     1       4.950   4.582  15.168  0.00  0.00    +0.000 C 
BRANCH  23  31
ATOM     31  O   UNL     1       6.339   4.359  12.870  0.00  0.00    +0.000 OA
BRANCH  31  33
ATOM     32  C   UNL     1       5.871   2.343  11.713  0.00  0.00    +0.000 C 
ATOM     33  C   UNL     1       6.972   3.281  12.174  0.00  0.00    +0.000 C 
ENDBRANCH  31  33
ENDBRANCH  23  31
ENDBRANCH  19  28
ENDBRANCH   1  20
TORSDOF 5
ENDMDL
MODEL 8
REMARK VINA RESULT:      -8.0      4.930     12.038
REMARK  Name = 
REMARK  6 active torsions:
REMARK  status: ('A' for Active; 'I' for Inactive)
REMARK    1  A    between atoms: C_1  and  C_2
REMARK    2  A    between atoms: C_2  and  O_3
REMARK    3  A    between atoms: O_3  and  C_4
REMARK    4  A    between atoms: C_9  and  N_10
REMARK    5  A    between atoms: C_11  and  C_13
REMARK    6  A    between atoms: C_22  and  C_23
REMARK                            x       y       z     vdW  Elec       q    Type
REMARK                         _______ _______ _______ _____ _____    ______ ____
ROOT
ATOM      1  C   UNL     1      -0.734  11.371  22.327  0.00  0.00    +0.000 A 
ATOM      2  C   UNL     1      -0.381  10.105  22.854  0.00  0.00    +0.000 A 
ATOM      3  C   UNL     1       0.308   9.168  22.076  0.00  0.00    +0.000 A 
ATOM      4  C   UNL     1       0.621   9.536  20.782  0.00  0.00    +0.000 A 
ATOM      5  C   UNL     1       0.256  10.773  20.226  0.00  0.00    +0.000 A 
ATOM      6  C   UNL     1      -0.434  11.697  20.992  0.00  0.00    +0.000 A 
ATOM      7  S   UNL     1       0.815  10.959  18.528  0.00  0.00    +0.000 S 
ATOM      8  C   UNL     1       1.534   9.386  18.637  0.00  0.00    +0.000 A 
ATOM      9  N   UNL     1       2.224   8.642  17.816  0.00  0.00    +0.000 NA
ATOM     10  C   UNL     1       2.465   7.482  18.545  0.00  0.00    +0.000 A 
ATOM     11  C   UNL     1       1.920   7.572  19.823  0.00  0.00    +0.000 A 
ATOM     12  N   UNL     1       1.333   8.795  19.847  0.00  0.00    +0.000 N 
ENDROOT
BRANCH  10  13
ATOM     13  C   UNL     1       3.164   6.332  17.992  0.00  0.00    +0.000 A 
ATOM     14  C   UNL     1       4.417   6.500  17.388  0.00  0.00    +0.000 A 
ATOM     15  C   UNL     1       5.078   5.419  16.795  0.00  0.00    +0.000 A 
ATOM     16  C   UNL     1       4.489   4.155  16.810  0.00  0.00    +0.000 A 
ATOM     17  C   UNL     1       3.254   3.971  17.420  0.00  0.00    +0.000 A 
ATOM     18  C   UNL     1       2.593   5.047  18.010  0.00  0.00    +0.000 A 
ENDBRANCH  10  13
BRANCH   1  20
ATOM     19  N   UNL     1      -2.774  12.218  23.369  0.00  0.00    +0.000 N 
ATOM     20  C   UNL     1      -1.421  12.401  23.156  0.00  0.00    +0.000 C 
ATOM     21  O   UNL     1      -0.777  13.322  23.643  0.00  0.00    +0.000 OA
ATOM     22  H   UNL     1      -3.233  11.405  22.984  0.00  0.00    +0.000 HD
BRANCH  19  28
ATOM     23  C   UNL     1      -6.838  14.755  22.001  0.00  0.00    +0.000 C 
ATOM     24  O   UNL     1      -7.916  14.184  21.891  0.00  0.00    +0.000 OA
ATOM     25  N   UNL     1      -5.734  14.209  22.634  0.00  0.00    +0.000 N 
ATOM     26  C   UNL     1      -5.826  12.840  23.113  0.00  0.00    +0.000 C 
ATOM     27  C   UNL     1      -5.001  12.642  24.377  0.00  0.00    +0.000 C 
ATOM     28  C   UNL     1      -3.555  13.125  24.211  0.00  0.00    +0.000 C 
ATOM     29  C   UNL     1      -3.530  14.562  23.679  0.00  0.00    +0.000 C 
ATOM     30  C   UNL     1      -4.382  14.727  22.426  0.00  0.00    +0.000 C 
BRANCH  23  31
ATOM     31  O   UNL     1      -6.566  15.968  21.452  0.00  0.00    +0.000 OA
BRANCH  31  33
ATOM     32  C   UNL     1      -6.206  18.111  22.402  0.00  0.00    +0.000 C 
ATOM     33  C   UNL     1      -7.255  17.073  22.045  0.00  0.00    +0.000 C 
ENDBRANCH  31  33
ENDBRANCH  23  31
ENDBRANCH  19  28
ENDBRANCH   1  20
TORSDOF 5
ENDMDL
MODEL 9
REMARK VINA RESULT:      -7.9      4.574     11.833
REMARK  Name = 
REMARK  6 active torsions:
REMARK  status: ('A' for Active; 'I' for Inactive)
REMARK    1  A    between atoms: C_1  and  C_2
REMARK    2  A    between atoms: C_2  and  O_3
REMARK    3  A    between atoms: O_3  and  C_4
REMARK    4  A    between atoms: C_9  and  N_10
REMARK    5  A    between atoms: C_11  and  C_13
REMARK    6  A    between atoms: C_22  and  C_23
REMARK                            x       y       z     vdW  Elec       q    Type
REMARK                         _______ _______ _______ _____ _____    ______ ____
ROOT
ATOM      1  C   UNL     1       0.300  11.009  21.323  0.00  0.00    +0.000 A 
ATOM      2  C   UNL     1       0.280   9.883  22.180  0.00  0.00    +0.000 A 
ATOM      3  C   UNL     1       0.752   8.639  21.745  0.00  0.00    +0.000 A 
ATOM      4  C   UNL     1       1.231   8.568  20.451  0.00  0.00    +0.000 A 
ATOM      5  C   UNL     1       1.234   9.663  19.573  0.00  0.00    +0.000 A 
ATOM      6  C   UNL     1       0.759  10.891  19.999  0.00  0.00    +0.000 A 
ATOM      7  S   UNL     1       1.930   9.257  17.965  0.00  0.00    +0.000 S 
ATOM      8  C   UNL     1       2.210   7.646  18.541  0.00  0.00    +0.000 A 
ATOM      9  N   UNL     1       2.736   6.572  18.019  0.00  0.00    +0.000 NA
ATOM     10  C   UNL     1       2.622   5.624  19.030  0.00  0.00    +0.000 A 
ATOM     11  C   UNL     1       2.038   6.173  20.168  0.00  0.00    +0.000 A 
ATOM     12  N   UNL     1       1.786   7.461  19.822  0.00  0.00    +0.000 N 
ENDROOT
BRANCH  10  13
ATOM     13  C   UNL     1       3.035   4.238  18.864  0.00  0.00    +0.000 A 
ATOM     14  C   UNL     1       2.560   3.493  17.778  0.00  0.00    +0.000 A 
ATOM     15  C   UNL     1       2.895   2.142  17.633  0.00  0.00    +0.000 A 
ATOM     16  C   UNL     1       3.718   1.528  18.577  0.00  0.00    +0.000 A 
ATOM     17  C   UNL     1       4.209   2.260  19.651  0.00  0.00    +0.000 A 
ATOM     18  C   UNL     1       3.876   3.606  19.797  0.00  0.00    +0.000 A 
ENDBRANCH  10  13
BRANCH   1  20
ATOM     19  N   UNL     1      -1.470  12.458  22.183  0.00  0.00    +0.000 N 
ATOM     20  C   UNL     1      -0.150  12.353  21.785  0.00  0.00    +0.000 C 
ATOM     21  O   UNL     1       0.649  13.280  21.838  0.00  0.00    +0.000 OA
ATOM     22  H   UNL     1      -2.060  11.639  22.166  0.00  0.00    +0.000 HD
BRANCH  19  28
ATOM     23  C   UNL     1      -6.281  13.431  23.033  0.00  0.00    +0.000 C 
ATOM     24  O   UNL     1      -6.846  12.953  24.010  0.00  0.00    +0.000 OA
ATOM     25  N   UNL     1      -4.906  13.450  22.866  0.00  0.00    +0.000 N 
ATOM     26  C   UNL     1      -4.086  12.778  23.861  0.00  0.00    +0.000 C 
ATOM     27  C   UNL     1      -2.751  13.486  24.041  0.00  0.00    +0.000 C 
ATOM     28  C   UNL     1      -2.022  13.706  22.710  0.00  0.00    +0.000 C 
ATOM     29  C   UNL     1      -2.950  14.391  21.701  0.00  0.00    +0.000 C 
ATOM     30  C   UNL     1      -4.283  13.668  21.561  0.00  0.00    +0.000 C 
BRANCH  23  31
ATOM     31  O   UNL     1      -6.935  13.937  21.955  0.00  0.00    +0.000 OA
BRANCH  31  33
ATOM     32  C   UNL     1      -7.595  13.329  19.760  0.00  0.00    +0.000 C 
ATOM     33  C   UNL     1      -7.740  12.998  21.235  0.00  0.00    +0.000 C 
ENDBRANCH  31  33
ENDBRANCH  23  31
ENDBRANCH  19  28
ENDBRANCH   1  20
TORSDOF 5
ENDMDL
