MODEL 1
REMARK VINA RESULT:      -7.3      0.000      0.000
REMARK  Name = 
REMARK  7 active torsions:
REMARK  status: ('A' for Active; 'I' for Inactive)
REMARK    1  A    between atoms: C_2  and  C_3
REMARK    2  A    between atoms: C_3  and  N_4
REMARK    3  A    between atoms: N_4  and  C_5
REMARK    4  A    between atoms: N_8  and  C_9
REMARK    5  A    between atoms: C_11  and  C_12
REMARK    6  A    between atoms: C_15  and  S_16
REMARK    7  A    between atoms: S_16  and  C_17
REMARK                            x       y       z     vdW  Elec       q    Type
REMARK                         _______ _______ _______ _____ _____    ______ ____
ROOT
ATOM      1  C   UNL     1       5.755   3.876  16.617  0.00  0.00    +0.000 A 
ATOM      2  C   UNL     1       5.488   3.393  15.327  0.00  0.00    +0.000 A 
ATOM      3  C   UNL     1       6.081   3.980  14.198  0.00  0.00    +0.000 A 
ATOM      4  C   UNL     1       5.754   3.497  12.815  0.00  0.00    +0.000 C 
ATOM      5  C   UNL     1       6.983   5.035  14.369  0.00  0.00    +0.000 A 
ATOM      6  C   UNL     1       7.263   5.524  15.645  0.00  0.00    +0.000 A 
ATOM      7  C   UNL     1       6.641   4.955  16.763  0.00  0.00    +0.000 A 
ENDROOT
BRANCH   1  12
ATOM      8  N   UNL     1       3.277   2.603  18.995  0.00  0.00    +0.000 N 
ATOM      9  C   UNL     1       4.139   2.150  20.079  0.00  0.00    +0.000 C 
ATOM     10  C   UNL     1       3.729   3.264  17.858  0.00  0.00    +0.000 C 
ATOM     11  O   UNL     1       2.964   3.714  17.005  0.00  0.00    +0.000 OA
ATOM     12  N   UNL     1       5.103   3.303  17.732  0.00  0.00    +0.000 N 
ATOM     13  H   UNL     1       5.577   2.512  18.160  0.00  0.00    +0.000 HD
BRANCH   8  14
ATOM     14  C   UNL     1       1.855   2.309  19.100  0.00  0.00    +0.000 C 
BRANCH  14  16
ATOM     15  C   UNL     1       1.158   4.357  20.477  0.00  0.00    +0.000 C 
ATOM     16  C   UNL     1       1.187   3.039  20.234  0.00  0.00    +0.000 C 
ENDBRANCH  14  16
ENDBRANCH   8  14
ENDBRANCH   1  12
BRANCH   7  17
ATOM     17  S   UNL     1       7.061   5.590  18.368  0.00  0.00    +0.000 S 
ATOM     18  C   UNL     1       7.713   7.201  18.020  0.00  0.00    +0.000 C 
ATOM     19  O   UNL     1       5.828   5.751  19.117  0.00  0.00    +0.000 OA
ATOM     20  O   UNL     1       8.144   4.776  18.900  0.00  0.00    +0.000 OA
ENDBRANCH   7  17
TORSDOF 4
ENDMDL
MODEL 2
REMARK VINA RESULT:      -6.9      1.208      1.441
REMARK  Name = 
REMARK  7 active torsions:
REMARK  status: ('A' for Active; 'I' for Inactive)
REMARK    1  A    between atoms: C_2  and  C_3
REMARK    2  A    between atoms: C_3  and  N_4
REMARK    3  A    between atoms: N_4  and  C_5
REMARK    4  A    between atoms: N_8  and  C_9
REMARK    5  A    between atoms: C_11  and  C_12
REMARK    6  A    between atoms: C_15  and  S_16
REMARK    7  A    between atoms: S_16  and  C_17
REMARK                            x       y       z     vdW  Elec       q    Type
REMARK                         _______ _______ _______ _____ _____    ______ ____
ROOT
ATOM      1  C   UNL     1       4.938   4.302  16.068  0.00  0.00    +0.000 A 
ATOM      2  C   UNL     1       4.967   3.834  14.745  0.00  0.00    +0.000 A 
ATOM      3  C   UNL     1       6.115   3.979  13.951  0.00  0.00    +0.000 A 
ATOM      4  C   UNL     1       6.127   3.527  12.520  0.00  0.00    +0.000 C 
ATOM      5  C   UNL     1       7.261   4.561  14.505  0.00  0.00    +0.000 A 
ATOM      6  C   UNL     1       7.251   5.026  15.820  0.00  0.00    +0.000 A 
ATOM      7  C   UNL     1       6.090   4.909  16.593  0.00  0.00    +0.000 A 
ENDROOT
BRANCH   1  12
ATOM      8  N   UNL     1       2.252   3.180  18.290  0.00  0.00    +0.000 N 
ATOM      9  C   UNL     1       1.311   4.287  18.170  0.00  0.00    +0.000 C 
ATOM     10  C   UNL     1       3.430   3.069  17.559  0.00  0.00    +0.000 C 
ATOM     11  O   UNL     1       4.155   2.077  17.618  0.00  0.00    +0.000 OA
ATOM     12  N   UNL     1       3.752   4.194  16.827  0.00  0.00    +0.000 N 
ATOM     13  H   UNL     1       3.411   5.061  17.236  0.00  0.00    +0.000 HD
BRANCH   8  14
ATOM     14  C   UNL     1       1.948   2.144  19.266  0.00  0.00    +0.000 C 
BRANCH  14  16
ATOM     15  C   UNL     1       1.875   2.988  21.686  0.00  0.00    +0.000 C 
ATOM     16  C   UNL     1       1.302   2.683  20.514  0.00  0.00    +0.000 C 
ENDBRANCH  14  16
ENDBRANCH   8  14
ENDBRANCH   1  12
BRANCH   7  17
ATOM     17  S   UNL     1       6.143   5.483  18.274  0.00  0.00    +0.000 S 
ATOM     18  C   UNL     1       7.549   6.562  18.300  0.00  0.00    +0.000 C 
ATOM     19  O   UNL     1       4.953   6.282  18.506  0.00  0.00    +0.000 OA
ATOM     20  O   UNL     1       6.440   4.341  19.126  0.00  0.00    +0.000 OA
ENDBRANCH   7  17
TORSDOF 4
ENDMDL
MODEL 3
REMARK VINA RESULT:      -6.8      0.781      1.044
REMARK  Name = 
REMARK  7 active torsions:
REMARK  status: ('A' for Active; 'I' for Inactive)
REMARK    1  A    between atoms: C_2  and  C_3
REMARK    2  A    between atoms: C_3  and  N_4
REMARK    3  A    between atoms: N_4  and  C_5
REMARK    4  A    between atoms: N_8  and  C_9
REMARK    5  A    between atoms: C_11  and  C_12
REMARK    6  A    between atoms: C_15  and  S_16
REMARK    7  A    between atoms: S_16  and  C_17
REMARK                            x       y       z     vdW  Elec       q    Type
REMARK                         _______ _______ _______ _____ _____    ______ ____
ROOT
ATOM      1  C   UNL     1       5.678   4.082  16.993  0.00  0.00    +0.000 A 
ATOM      2  C   UNL     1       5.280   3.641  15.722  0.00  0.00    +0.000 A 
ATOM      3  C   UNL     1       5.915   4.111  14.561  0.00  0.00    +0.000 A 
ATOM      4  C   UNL     1       5.453   3.680  13.200  0.00  0.00    +0.000 C 
ATOM      5  C   UNL     1       6.988   5.001  14.681  0.00  0.00    +0.000 A 
ATOM      6  C   UNL     1       7.400   5.445  15.937  0.00  0.00    +0.000 A 
ATOM      7  C   UNL     1       6.739   4.998  17.087  0.00  0.00    +0.000 A 
ENDROOT
BRANCH   1  12
ATOM      8  N   UNL     1       3.257   3.603  19.698  0.00  0.00    +0.000 N 
ATOM      9  C   UNL     1       3.904   2.547  20.467  0.00  0.00    +0.000 C 
ATOM     10  C   UNL     1       3.821   4.224  18.590  0.00  0.00    +0.000 C 
ATOM     11  O   UNL     1       3.286   5.175  18.019  0.00  0.00    +0.000 OA
ATOM     12  N   UNL     1       4.987   3.636  18.141  0.00  0.00    +0.000 N 
ATOM     13  H   UNL     1       5.040   2.638  18.327  0.00  0.00    +0.000 HD
BRANCH   8  14
ATOM     14  C   UNL     1       1.917   4.003  20.103  0.00  0.00    +0.000 C 
BRANCH  14  16
ATOM     15  C   UNL     1       0.632   2.272  18.714  0.00  0.00    +0.000 C 
ATOM     16  C   UNL     1       0.884   2.938  19.850  0.00  0.00    +0.000 C 
ENDBRANCH  14  16
ENDBRANCH   8  14
ENDBRANCH   1  12
BRANCH   7  17
ATOM     17  S   UNL     1       7.327   5.564  18.665  0.00  0.00    +0.000 S 
ATOM     18  C   UNL     1       7.972   7.178  18.312  0.00  0.00    +0.000 C 
ATOM     19  O   UNL     1       6.176   5.716  19.538  0.00  0.00    +0.000 OA
ATOM     20  O   UNL     1       8.441   4.715  19.057  0.00  0.00    +0.000 OA
ENDBRANCH   7  17
TORSDOF 4
ENDMDL
MODEL 4
REMARK VINA RESULT:      -6.5      1.194      1.468
REMARK  Name = 
REMARK  7 active torsions:
REMARK  status: ('A' for Active; 'I' for Inactive)
REMARK    1  A    between atoms: C_2  and  C_3
REMARK    2  A    between atoms: C_3  and  N_4
REMARK    3  A    between atoms: N_4  and  C_5
REMARK    4  A    between atoms: N_8  and  C_9
REMARK    5  A    between atoms: C_11  and  C_12
REMARK    6  A    between atoms: C_15  and  S_16
REMARK    7  A    between atoms: S_16  and  C_17
REMARK                            x       y       z     vdW  Elec       q    Type
REMARK                         _______ _______ _______ _____ _____    ______ ____
ROOT
ATOM      1  C   UNL     1       5.094   4.826  16.492  0.00  0.00    +0.000 A 
ATOM      2  C   UNL     1       4.692   4.417  15.211  0.00  0.00    +0.000 A 
ATOM      3  C   UNL     1       5.633   4.206  14.191  0.00  0.00    +0.000 A 
ATOM      4  C   UNL     1       5.199   3.820  12.808  0.00  0.00    +0.000 C 
ATOM      5  C   UNL     1       6.994   4.366  14.472  0.00  0.00    +0.000 A 
ATOM      6  C   UNL     1       7.411   4.768  15.742  0.00  0.00    +0.000 A 
ATOM      7  C   UNL     1       6.463   5.009  16.743  0.00  0.00    +0.000 A 
ENDROOT
BRANCH   1  12
ATOM      8  N   UNL     1       2.256   4.630  18.800  0.00  0.00    +0.000 N 
ATOM      9  C   UNL     1       2.355   5.919  19.473  0.00  0.00    +0.000 C 
ATOM     10  C   UNL     1       3.068   4.232  17.743  0.00  0.00    +0.000 C 
ATOM     11  O   UNL     1       2.898   3.174  17.138  0.00  0.00    +0.000 OA
ATOM     12  N   UNL     1       4.122   5.085  17.485  0.00  0.00    +0.000 N 
ATOM     13  H   UNL     1       4.455   5.587  18.305  0.00  0.00    +0.000 HD
BRANCH   8  14
ATOM     14  C   UNL     1       1.262   3.688  19.295  0.00  0.00    +0.000 C 
BRANCH  14  16
ATOM     15  C   UNL     1       1.985   2.842  21.605  0.00  0.00    +0.000 C 
ATOM     16  C   UNL     1       1.233   3.602  20.797  0.00  0.00    +0.000 C 
ENDBRANCH  14  16
ENDBRANCH   8  14
ENDBRANCH   1  12
BRANCH   7  17
ATOM     17  S   UNL     1       7.048   5.481  18.353  0.00  0.00    +0.000 S 
ATOM     18  C   UNL     1       7.711   7.105  18.093  0.00  0.00    +0.000 C 
ATOM     19  O   UNL     1       5.894   5.597  19.227  0.00  0.00    +0.000 OA
ATOM     20  O   UNL     1       8.151   4.599  18.703  0.00  0.00    +0.000 OA
ENDBRANCH   7  17
TORSDOF 4
ENDMDL
MODEL 5
REMARK VINA RESULT:      -6.5      0.895      1.059
REMARK  Name = 
REMARK  7 active torsions:
REMARK  status: ('A' for Active; 'I' for Inactive)
REMARK    1  A    between atoms: C_2  and  C_3
REMARK    2  A    between atoms: C_3  and  N_4
REMARK    3  A    between atoms: N_4  and  C_5
REMARK    4  A    between atoms: N_8  and  C_9
REMARK    5  A    between atoms: C_11  and  C_12
REMARK    6  A    between atoms: C_15  and  S_16
REMARK    7  A    between atoms: S_16  and  C_17
REMARK                            x       y       z     vdW  Elec       q    Type
REMARK                         _______ _______ _______ _____ _____    ______ ____
ROOT
ATOM      1  C   UNL     1       5.745   3.984  16.437  0.00  0.00    +0.000 A 
ATOM      2  C   UNL     1       5.606   3.360  15.188  0.00  0.00    +0.000 A 
ATOM      3  C   UNL     1       6.144   3.937  14.027  0.00  0.00    +0.000 A 
ATOM      4  C   UNL     1       5.948   3.297  12.684  0.00  0.00    +0.000 C 
ATOM      5  C   UNL     1       6.865   5.132  14.128  0.00  0.00    +0.000 A 
ATOM      6  C   UNL     1       7.017   5.763  15.363  0.00  0.00    +0.000 A 
ATOM      7  C   UNL     1       6.448   5.197  16.510  0.00  0.00    +0.000 A 
ENDROOT
BRANCH   1  12
ATOM      8  N   UNL     1       3.391   2.613  18.885  0.00  0.00    +0.000 N 
ATOM      9  C   UNL     1       4.292   2.288  19.985  0.00  0.00    +0.000 C 
ATOM     10  C   UNL     1       3.782   3.257  17.716  0.00  0.00    +0.000 C 
ATOM     11  O   UNL     1       2.979   3.597  16.848  0.00  0.00    +0.000 OA
ATOM     12  N   UNL     1       5.147   3.410  17.581  0.00  0.00    +0.000 N 
ATOM     13  H   UNL     1       5.689   2.683  18.043  0.00  0.00    +0.000 HD
BRANCH   8  14
ATOM     14  C   UNL     1       2.001   2.201  19.013  0.00  0.00    +0.000 C 
BRANCH  14  16
ATOM     15  C   UNL     1       1.073   4.167  20.372  0.00  0.00    +0.000 C 
ATOM     16  C   UNL     1       1.295   2.862  20.166  0.00  0.00    +0.000 C 
ENDBRANCH  14  16
ENDBRANCH   8  14
ENDBRANCH   1  12
BRANCH   7  17
ATOM     17  S   UNL     1       6.703   6.020  18.064  0.00  0.00    +0.000 S 
ATOM     18  C   UNL     1       7.969   5.053  18.842  0.00  0.00    +0.000 C 
ATOM     19  O   UNL     1       7.245   7.337  17.783  0.00  0.00    +0.000 OA
ATOM     20  O   UNL     1       5.486   5.877  18.849  0.00  0.00    +0.000 OA
ENDBRANCH   7  17
TORSDOF 4
ENDMDL
MODEL 6
REMARK VINA RESULT:      -6.4      1.509      1.884
REMARK  Name = 
REMARK  7 active torsions:
REMARK  status: ('A' for Active; 'I' for Inactive)
REMARK    1  A    between atoms: C_2  and  C_3
REMARK    2  A    between atoms: C_3  and  N_4
REMARK    3  A    between atoms: N_4  and  C_5
REMARK    4  A    between atoms: N_8  and  C_9
REMARK    5  A    between atoms: C_11  and  C_12
REMARK    6  A    between atoms: C_15  and  S_16
REMARK    7  A    between atoms: S_16  and  C_17
REMARK                            x       y       z     vdW  Elec       q    Type
REMARK                         _______ _______ _______ _____ _____    ______ ____
ROOT
ATOM      1  C   UNL     1       5.224   4.576  15.565  0.00  0.00    +0.000 A 
ATOM      2  C   UNL     1       5.001   3.829  14.398  0.00  0.00    +0.000 A 
ATOM      3  C   UNL     1       5.936   3.827  13.350  0.00  0.00    +0.000 A 
ATOM      4  C   UNL     1       5.672   3.071  12.081  0.00  0.00    +0.000 C 
ATOM      5  C   UNL     1       7.127   4.547  13.494  0.00  0.00    +0.000 A 
ATOM      6  C   UNL     1       7.366   5.291  14.650  0.00  0.00    +0.000 A 
ATOM      7  C   UNL     1       6.412   5.315  15.675  0.00  0.00    +0.000 A 
ENDROOT
BRANCH   1  12
ATOM      8  N   UNL     1       3.008   3.764  18.365  0.00  0.00    +0.000 N 
ATOM      9  C   UNL     1       2.211   4.981  18.451  0.00  0.00    +0.000 C 
ATOM     10  C   UNL     1       3.962   3.518  17.383  0.00  0.00    +0.000 C 
ATOM     11  O   UNL     1       4.552   2.442  17.287  0.00  0.00    +0.000 OA
ATOM     12  N   UNL     1       4.242   4.605  16.580  0.00  0.00    +0.000 N 
ATOM     13  H   UNL     1       4.116   5.502  17.044  0.00  0.00    +0.000 HD
BRANCH   8  14
ATOM     14  C   UNL     1       2.813   2.759  19.400  0.00  0.00    +0.000 C 
BRANCH  14  16
ATOM     15  C   UNL     1       1.323   2.870  21.485  0.00  0.00    +0.000 C 
ATOM     16  C   UNL     1       1.528   2.943  20.162  0.00  0.00    +0.000 C 
ENDBRANCH  14  16
ENDBRANCH   8  14
ENDBRANCH   1  12
BRANCH   7  17
ATOM     17  S   UNL     1       6.783   6.246  17.142  0.00  0.00    +0.000 S 
ATOM     18  C   UNL     1       7.472   5.036  18.239  0.00  0.00    +0.000 C 
ATOM     19  O   UNL     1       7.825   7.201  16.808  0.00  0.00    +0.000 OA
ATOM     20  O   UNL     1       5.524   6.701  17.712  0.00  0.00    +0.000 OA
ENDBRANCH   7  17
TORSDOF 4
ENDMDL
MODEL 7
REMARK VINA RESULT:      -6.4      2.565      6.076
REMARK  Name = 
REMARK  7 active torsions:
REMARK  status: ('A' for Active; 'I' for Inactive)
REMARK    1  A    between atoms: C_2  and  C_3
REMARK    2  A    between atoms: C_3  and  N_4
REMARK    3  A    between atoms: N_4  and  C_5
REMARK    4  A    between atoms: N_8  and  C_9
REMARK    5  A    between atoms: C_11  and  C_12
REMARK    6  A    between atoms: C_15  and  S_16
REMARK    7  A    between atoms: S_16  and  C_17
REMARK                            x       y       z     vdW  Elec       q    Type
REMARK                         _______ _______ _______ _____ _____    ______ ____
ROOT
ATOM      1  C   UNL     1       3.856   5.441  19.328  0.00  0.00    +0.000 A 
ATOM      2  C   UNL     1       3.326   6.740  19.307  0.00  0.00    +0.000 A 
ATOM      3  C   UNL     1       2.115   7.038  19.951  0.00  0.00    +0.000 A 
ATOM      4  C   UNL     1       1.522   8.415  19.883  0.00  0.00    +0.000 C 
ATOM      5  C   UNL     1       1.450   6.031  20.659  0.00  0.00    +0.000 A 
ATOM      6  C   UNL     1       1.966   4.735  20.693  0.00  0.00    +0.000 A 
ATOM      7  C   UNL     1       3.157   4.439  20.019  0.00  0.00    +0.000 A 
ENDROOT
BRANCH   1  12
ATOM      8  N   UNL     1       6.392   4.893  16.743  0.00  0.00    +0.000 N 
ATOM      9  C   UNL     1       7.539   4.508  17.556  0.00  0.00    +0.000 C 
ATOM     10  C   UNL     1       5.117   5.130  17.247  0.00  0.00    +0.000 C 
ATOM     11  O   UNL     1       4.151   5.363  16.521  0.00  0.00    +0.000 OA
ATOM     12  N   UNL     1       5.047   5.156  18.625  0.00  0.00    +0.000 N 
ATOM     13  H   UNL     1       5.907   5.464  19.073  0.00  0.00    +0.000 HD
BRANCH   8  14
ATOM     14  C   UNL     1       6.611   5.073  15.315  0.00  0.00    +0.000 C 
BRANCH  14  16
ATOM     15  C   UNL     1       6.242   3.716  13.171  0.00  0.00    +0.000 C 
ATOM     16  C   UNL     1       6.186   3.882  14.500  0.00  0.00    +0.000 C 
ENDBRANCH  14  16
ENDBRANCH   8  14
ENDBRANCH   1  12
BRANCH   7  17
ATOM     17  S   UNL     1       3.790   2.783  20.127  0.00  0.00    +0.000 S 
ATOM     18  C   UNL     1       3.113   1.986  18.695  0.00  0.00    +0.000 C 
ATOM     19  O   UNL     1       5.232   2.849  19.970  0.00  0.00    +0.000 OA
ATOM     20  O   UNL     1       3.206   2.158  21.304  0.00  0.00    +0.000 OA
ENDBRANCH   7  17
TORSDOF 4
ENDMDL
MODEL 8
REMARK VINA RESULT:      -6.3      3.938      5.464
REMARK  Name = 
REMARK  7 active torsions:
REMARK  status: ('A' for Active; 'I' for Inactive)
REMARK    1  A    between atoms: C_2  and  C_3
REMARK    2  A    between atoms: C_3  and  N_4
REMARK    3  A    between atoms: N_4  and  C_5
REMARK    4  A    between atoms: N_8  and  C_9
REMARK    5  A    between atoms: C_11  and  C_12
REMARK    6  A    between atoms: C_15  and  S_16
REMARK    7  A    between atoms: S_16  and  C_17
REMARK                            x       y       z     vdW  Elec       q    Type
REMARK                         _______ _______ _______ _____ _____    ______ ____
ROOT
ATOM      1  C   UNL     1       3.730   5.931  18.103  0.00  0.00    +0.000 A 
ATOM      2  C   UNL     1       4.990   6.374  17.675  0.00  0.00    +0.000 A 
ATOM      3  C   UNL     1       5.837   5.536  16.932  0.00  0.00    +0.000 A 
ATOM      4  C   UNL     1       7.206   5.992  16.519  0.00  0.00    +0.000 C 
ATOM      5  C   UNL     1       5.396   4.256  16.579  0.00  0.00    +0.000 A 
ATOM      6  C   UNL     1       4.143   3.802  16.993  0.00  0.00    +0.000 A 
ATOM      7  C   UNL     1       3.319   4.633  17.763  0.00  0.00    +0.000 A 
ENDROOT
BRANCH   1  12
ATOM      8  N   UNL     1       1.568   8.617  19.341  0.00  0.00    +0.000 N 
ATOM      9  C   UNL     1       1.411   8.226  20.736  0.00  0.00    +0.000 C 
ATOM     10  C   UNL     1       2.390   7.960  18.430  0.00  0.00    +0.000 C 
ATOM     11  O   UNL     1       2.569   8.371  17.284  0.00  0.00    +0.000 OA
ATOM     12  N   UNL     1       2.921   6.774  18.897  0.00  0.00    +0.000 N 
ATOM     13  H   UNL     1       2.334   6.304  19.582  0.00  0.00    +0.000 HD
BRANCH   8  14
ATOM     14  C   UNL     1       0.783   9.748  18.868  0.00  0.00    +0.000 C 
BRANCH  14  16
ATOM     15  C   UNL     1      -0.795  11.258  20.211  0.00  0.00    +0.000 C 
ATOM     16  C   UNL     1      -0.388  10.064  19.759  0.00  0.00    +0.000 C 
ENDBRANCH  14  16
ENDBRANCH   8  14
ENDBRANCH   1  12
BRANCH   7  17
ATOM     17  S   UNL     1       1.719   4.021  18.232  0.00  0.00    +0.000 S 
ATOM     18  C   UNL     1       1.950   2.264  18.301  0.00  0.00    +0.000 C 
ATOM     19  O   UNL     1       1.440   4.496  19.575  0.00  0.00    +0.000 OA
ATOM     20  O   UNL     1       0.796   4.307  17.144  0.00  0.00    +0.000 OA
ENDBRANCH   7  17
TORSDOF 4
ENDMDL
MODEL 9
REMARK VINA RESULT:      -6.2      1.464      1.734
REMARK  Name = 
REMARK  7 active torsions:
REMARK  status: ('A' for Active; 'I' for Inactive)
REMARK    1  A    between atoms: C_2  and  C_3
REMARK    2  A    between atoms: C_3  and  N_4
REMARK    3  A    between atoms: N_4  and  C_5
REMARK    4  A    between atoms: N_8  and  C_9
REMARK    5  A    between atoms: C_11  and  C_12
REMARK    6  A    between atoms: C_15  and  S_16
REMARK    7  A    between atoms: S_16  and  C_17
REMARK                            x       y       z     vdW  Elec       q    Type
REMARK                         _______ _______ _______ _____ _____    ______ ____
ROOT
ATOM      1  C   UNL     1       4.847   4.242  16.385  0.00  0.00    +0.000 A 
ATOM      2  C   UNL     1       4.947   3.902  15.028  0.00  0.00    +0.000 A 
ATOM      3  C   UNL     1       6.156   4.057  14.330  0.00  0.00    +0.000 A 
ATOM      4  C   UNL     1       6.247   3.744  12.866  0.00  0.00    +0.000 C 
ATOM      5  C   UNL     1       7.286   4.516  15.014  0.00  0.00    +0.000 A 
ATOM      6  C   UNL     1       7.206   4.854  16.365  0.00  0.00    +0.000 A 
ATOM      7  C   UNL     1       5.987   4.729  17.044  0.00  0.00    +0.000 A 
ENDROOT
BRANCH   1  12
ATOM      8  N   UNL     1       1.969   3.079  18.329  0.00  0.00    +0.000 N 
ATOM      9  C   UNL     1       1.077   4.227  18.220  0.00  0.00    +0.000 C 
ATOM     10  C   UNL     1       3.193   2.972  17.678  0.00  0.00    +0.000 C 
ATOM     11  O   UNL     1       3.879   1.950  17.720  0.00  0.00    +0.000 OA
ATOM     12  N   UNL     1       3.605   4.129  17.049  0.00  0.00    +0.000 N 
ATOM     13  H   UNL     1       3.264   4.980  17.492  0.00  0.00    +0.000 HD
BRANCH   8  14
ATOM     14  C   UNL     1       1.560   1.993  19.208  0.00  0.00    +0.000 C 
BRANCH  14  16
ATOM     15  C   UNL     1       2.481   2.922  21.413  0.00  0.00    +0.000 C 
ATOM     16  C   UNL     1       1.508   2.397  20.656  0.00  0.00    +0.000 C 
ENDBRANCH  14  16
ENDBRANCH   8  14
ENDBRANCH   1  12
BRANCH   7  17
ATOM     17  S   UNL     1       5.947   5.136  18.773  0.00  0.00    +0.000 S 
ATOM     18  C   UNL     1       4.531   6.193  18.918  0.00  0.00    +0.000 C 
ATOM     19  O   UNL     1       5.679   3.913  19.509  0.00  0.00    +0.000 OA
ATOM     20  O   UNL     1       7.130   5.930  19.072  0.00  0.00    +0.000 OA
ENDBRANCH   7  17
TORSDOF 4
ENDMDL
