MODEL 1
REMARK VINA RESULT:      -8.1      0.000      0.000
REMARK  Name = 
REMARK  4 active torsions:
REMARK  status: ('A' for Active; 'I' for Inactive)
REMARK    1  A    between atoms: C_2  and  C_20
REMARK    2  A    between atoms: N_3  and  C_4
REMARK    3  A    between atoms: N_7  and  C_8
REMARK    4  A    between atoms: C_8  and  C_9
REMARK                            x       y       z     vdW  Elec       q    Type
REMARK                         _______ _______ _______ _____ _____    ______ ____
ROOT
ATOM      1  C   UNL     1       2.612   5.620  19.694  0.00  0.00    +0.000 A 
ATOM      2  C   UNL     1       2.077   4.663  18.800  0.00  0.00    +0.000 A 
ATOM      3  N   UNL     1       3.023   4.028  18.101  0.00  0.00    +0.000 NA
ATOM      4  N   UNL     1       4.167   4.578  18.546  0.00  0.00    +0.000 N 
ATOM      5  C   UNL     1       3.968   5.582  19.457  0.00  0.00    +0.000 A 
ENDROOT
BRANCH   1   8
ATOM      6  O   UNL     1       1.857   8.303  19.266  0.00  0.00    +0.000 OA
ATOM      7  C   UNL     1       1.624   7.746  20.341  0.00  0.00    +0.000 C 
ATOM      8  N   UNL     1       1.977   6.435  20.617  0.00  0.00    +0.000 N 
ATOM      9  H   UNL     1       1.644   6.028  21.485  0.00  0.00    +0.000 HD
BRANCH   7  10
ATOM     10  C   UNL     1       0.909   8.435  21.394  0.00  0.00    +0.000 A 
ATOM     11  C   UNL     1      -0.450   8.644  21.543  0.00  0.00    +0.000 A 
ATOM     12  C   UNL     1      -0.621   9.422  22.710  0.00  0.00    +0.000 A 
ATOM     13  C   UNL     1       0.641   9.632  23.212  0.00  0.00    +0.000 A 
ATOM     14  O   UNL     1       1.579   9.021  22.437  0.00  0.00    +0.000 OA
ENDBRANCH   7  10
ENDBRANCH   1   8
BRANCH   4  15
ATOM     15  C   UNL     1       5.418   4.128  17.980  0.00  0.00    +0.000 C 
BRANCH  15  16
ATOM     16  C   UNL     1       5.831   4.810  16.671  0.00  0.00    +0.000 C 
ATOM     17  C   UNL     1       7.321   5.150  16.608  0.00  0.00    +0.000 C 
ATOM     18  O   UNL     1       7.658   5.748  15.344  0.00  0.00    +0.000 OA
ATOM     19  C   UNL     1       7.170   5.010  14.299  0.00  0.00    +0.000 A 
ATOM     20  C   UNL     1       7.764   5.202  13.051  0.00  0.00    +0.000 A 
ATOM     21  C   UNL     1       7.331   4.459  11.950  0.00  0.00    +0.000 A 
ATOM     22  C   UNL     1       6.297   3.532  12.097  0.00  0.00    +0.000 A 
ATOM     23  C   UNL     1       5.691   3.358  13.343  0.00  0.00    +0.000 A 
ATOM     24  C   UNL     1       6.118   4.103  14.441  0.00  0.00    +0.000 A 
ATOM     25  O   UNL     1       5.470   3.879  15.624  0.00  0.00    +0.000 OA
ENDBRANCH  15  16
ENDBRANCH   4  15
TORSDOF 4
ENDMDL
MODEL 2
REMARK VINA RESULT:      -7.9      4.610      7.336
REMARK  Name = 
REMARK  4 active torsions:
REMARK  status: ('A' for Active; 'I' for Inactive)
REMARK    1  A    between atoms: C_2  and  C_20
REMARK    2  A    between atoms: N_3  and  C_4
REMARK    3  A    between atoms: N_7  and  C_8
REMARK    4  A    between atoms: C_8  and  C_9
REMARK                            x       y       z     vdW  Elec       q    Type
REMARK                         _______ _______ _______ _____ _____    ______ ____
ROOT
ATOM      1  C   UNL     1       8.135   7.640  18.300  0.00  0.00    +0.000 A 
ATOM      2  C   UNL     1       7.506   7.675  17.034  0.00  0.00    +0.000 A 
ATOM      3  N   UNL     1       6.838   6.551  16.761  0.00  0.00    +0.000 NA
ATOM      4  N   UNL     1       7.037   5.792  17.853  0.00  0.00    +0.000 N 
ATOM      5  C   UNL     1       7.862   6.378  18.778  0.00  0.00    +0.000 A 
ENDROOT
BRANCH   1   8
ATOM      6  O   UNL     1       8.146  10.391  17.680  0.00  0.00    +0.000 OA
ATOM      7  C   UNL     1       8.822   9.952  18.613  0.00  0.00    +0.000 C 
ATOM      8  N   UNL     1       8.868   8.612  18.963  0.00  0.00    +0.000 N 
ATOM      9  H   UNL     1       9.361   8.361  19.813  0.00  0.00    +0.000 HD
BRANCH   7  10
ATOM     10  C   UNL     1       9.598  10.842  19.450  0.00  0.00    +0.000 A 
ATOM     11  C   UNL     1      10.852  11.383  19.233  0.00  0.00    +0.000 A 
ATOM     12  C   UNL     1      11.180  12.136  20.382  0.00  0.00    +0.000 A 
ATOM     13  C   UNL     1      10.104  12.022  21.228  0.00  0.00    +0.000 A 
ATOM     14  O   UNL     1       9.126  11.258  20.668  0.00  0.00    +0.000 OA
ENDBRANCH   7  10
ENDBRANCH   1   8
BRANCH   4  15
ATOM     15  C   UNL     1       6.456   4.470  17.894  0.00  0.00    +0.000 C 
BRANCH  15  16
ATOM     16  C   UNL     1       5.298   4.290  18.881  0.00  0.00    +0.000 C 
ATOM     17  C   UNL     1       4.524   5.582  19.150  0.00  0.00    +0.000 C 
ATOM     18  O   UNL     1       3.426   5.346  20.048  0.00  0.00    +0.000 OA
ATOM     19  C   UNL     1       2.676   4.273  19.644  0.00  0.00    +0.000 A 
ATOM     20  C   UNL     1       1.372   4.187  20.135  0.00  0.00    +0.000 A 
ATOM     21  C   UNL     1       0.545   3.132  19.739  0.00  0.00    +0.000 A 
ATOM     22  C   UNL     1       1.028   2.161  18.861  0.00  0.00    +0.000 A 
ATOM     23  C   UNL     1       2.339   2.239  18.388  0.00  0.00    +0.000 A 
ATOM     24  C   UNL     1       3.167   3.288  18.787  0.00  0.00    +0.000 A 
ATOM     25  O   UNL     1       4.439   3.290  18.286  0.00  0.00    +0.000 OA
ENDBRANCH  15  16
ENDBRANCH   4  15
TORSDOF 4
ENDMDL
MODEL 3
REMARK VINA RESULT:      -7.9      4.648      7.462
REMARK  Name = 
REMARK  4 active torsions:
REMARK  status: ('A' for Active; 'I' for Inactive)
REMARK    1  A    between atoms: C_2  and  C_20
REMARK    2  A    between atoms: N_3  and  C_4
REMARK    3  A    between atoms: N_7  and  C_8
REMARK    4  A    between atoms: C_8  and  C_9
REMARK                            x       y       z     vdW  Elec       q    Type
REMARK                         _______ _______ _______ _____ _____    ______ ____
ROOT
ATOM      1  C   UNL     1       8.154   7.626  18.303  0.00  0.00    +0.000 A 
ATOM      2  C   UNL     1       7.521   7.629  17.037  0.00  0.00    +0.000 A 
ATOM      3  N   UNL     1       6.819   6.514  16.812  0.00  0.00    +0.000 NA
ATOM      4  N   UNL     1       7.000   5.794  17.933  0.00  0.00    +0.000 N 
ATOM      5  C   UNL     1       7.845   6.392  18.831  0.00  0.00    +0.000 A 
ENDROOT
BRANCH   1   8
ATOM      6  O   UNL     1       8.055  10.387  17.740  0.00  0.00    +0.000 OA
ATOM      7  C   UNL     1       8.814   9.947  18.607  0.00  0.00    +0.000 C 
ATOM      8  N   UNL     1       8.916   8.602  18.924  0.00  0.00    +0.000 N 
ATOM      9  H   UNL     1       9.483   8.346  19.726  0.00  0.00    +0.000 HD
BRANCH   7  10
ATOM     10  C   UNL     1       9.636  10.838  19.397  0.00  0.00    +0.000 A 
ATOM     11  C   UNL     1      10.876  11.379  19.107  0.00  0.00    +0.000 A 
ATOM     12  C   UNL     1      11.269  12.135  20.234  0.00  0.00    +0.000 A 
ATOM     13  C   UNL     1      10.242  12.021  21.141  0.00  0.00    +0.000 A 
ATOM     14  O   UNL     1       9.234  11.256  20.639  0.00  0.00    +0.000 OA
ENDBRANCH   7  10
ENDBRANCH   1   8
BRANCH   4  15
ATOM     15  C   UNL     1       6.381   4.493  18.028  0.00  0.00    +0.000 C 
BRANCH  15  16
ATOM     16  C   UNL     1       4.848   4.492  18.043  0.00  0.00    +0.000 C 
ATOM     17  C   UNL     1       4.233   3.549  17.007  0.00  0.00    +0.000 C 
ATOM     18  O   UNL     1       2.797   3.558  17.094  0.00  0.00    +0.000 OA
ATOM     19  C   UNL     1       2.377   3.383  18.386  0.00  0.00    +0.000 A 
ATOM     20  C   UNL     1       1.067   2.938  18.574  0.00  0.00    +0.000 A 
ATOM     21  C   UNL     1       0.586   2.712  19.867  0.00  0.00    +0.000 A 
ATOM     22  C   UNL     1       1.413   2.940  20.968  0.00  0.00    +0.000 A 
ATOM     23  C   UNL     1       2.716   3.404  20.776  0.00  0.00    +0.000 A 
ATOM     24  C   UNL     1       3.195   3.636  19.487  0.00  0.00    +0.000 A 
ATOM     25  O   UNL     1       4.479   4.096  19.384  0.00  0.00    +0.000 OA
ENDBRANCH  15  16
ENDBRANCH   4  15
TORSDOF 4
ENDMDL
MODEL 4
REMARK VINA RESULT:      -7.9      4.046      7.220
REMARK  Name = 
REMARK  4 active torsions:
REMARK  status: ('A' for Active; 'I' for Inactive)
REMARK    1  A    between atoms: C_2  and  C_20
REMARK    2  A    between atoms: N_3  and  C_4
REMARK    3  A    between atoms: N_7  and  C_8
REMARK    4  A    between atoms: C_8  and  C_9
REMARK                            x       y       z     vdW  Elec       q    Type
REMARK                         _______ _______ _______ _____ _____    ______ ____
ROOT
ATOM      1  C   UNL     1       7.944   6.746  18.526  0.00  0.00    +0.000 A 
ATOM      2  C   UNL     1       7.825   5.511  19.205  0.00  0.00    +0.000 A 
ATOM      3  N   UNL     1       7.087   4.624  18.531  0.00  0.00    +0.000 NA
ATOM      4  N   UNL     1       6.731   5.289  17.419  0.00  0.00    +0.000 N 
ATOM      5  C   UNL     1       7.168   6.587  17.399  0.00  0.00    +0.000 A 
ENDROOT
BRANCH   1   8
ATOM      6  O   UNL     1       7.490   9.328  17.485  0.00  0.00    +0.000 OA
ATOM      7  C   UNL     1       8.378   9.130  18.317  0.00  0.00    +0.000 C 
ATOM      8  N   UNL     1       8.658   7.887  18.860  0.00  0.00    +0.000 N 
ATOM      9  H   UNL     1       9.329   7.841  19.619  0.00  0.00    +0.000 HD
BRANCH   7  10
ATOM     10  C   UNL     1       9.177  10.225  18.824  0.00  0.00    +0.000 A 
ATOM     11  C   UNL     1       9.916  11.168  18.131  0.00  0.00    +0.000 A 
ATOM     12  C   UNL     1      10.557  11.978  19.096  0.00  0.00    +0.000 A 
ATOM     13  C   UNL     1      10.163  11.490  20.319  0.00  0.00    +0.000 A 
ATOM     14  O   UNL     1       9.308  10.441  20.171  0.00  0.00    +0.000 OA
ENDBRANCH   7  10
ENDBRANCH   1   8
BRANCH   4  15
ATOM     15  C   UNL     1       5.894   4.620  16.450  0.00  0.00    +0.000 C 
BRANCH  15  16
ATOM     16  C   UNL     1       4.446   4.373  16.889  0.00  0.00    +0.000 C 
ATOM     17  C   UNL     1       4.169   2.917  17.268  0.00  0.00    +0.000 C 
ATOM     18  O   UNL     1       2.810   2.752  17.711  0.00  0.00    +0.000 OA
ATOM     19  C   UNL     1       2.477   3.689  18.653  0.00  0.00    +0.000 A 
ATOM     20  C   UNL     1       1.387   3.404  19.477  0.00  0.00    +0.000 A 
ATOM     21  C   UNL     1       1.014   4.306  20.477  0.00  0.00    +0.000 A 
ATOM     22  C   UNL     1       1.725   5.495  20.645  0.00  0.00    +0.000 A 
ATOM     23  C   UNL     1       2.803   5.785  19.805  0.00  0.00    +0.000 A 
ATOM     24  C   UNL     1       3.173   4.889  18.803  0.00  0.00    +0.000 A 
ATOM     25  O   UNL     1       4.234   5.249  18.020  0.00  0.00    +0.000 OA
ENDBRANCH  15  16
ENDBRANCH   4  15
TORSDOF 4
ENDMDL
MODEL 5
REMARK VINA RESULT:      -7.7      4.266      7.355
REMARK  Name = 
REMARK  4 active torsions:
REMARK  status: ('A' for Active; 'I' for Inactive)
REMARK    1  A    between atoms: C_2  and  C_20
REMARK    2  A    between atoms: N_3  and  C_4
REMARK    3  A    between atoms: N_7  and  C_8
REMARK    4  A    between atoms: C_8  and  C_9
REMARK                            x       y       z     vdW  Elec       q    Type
REMARK                         _______ _______ _______ _____ _____    ______ ____
ROOT
ATOM      1  C   UNL     1       7.826   6.603  18.505  0.00  0.00    +0.000 A 
ATOM      2  C   UNL     1       8.086   5.261  18.866  0.00  0.00    +0.000 A 
ATOM      3  N   UNL     1       7.243   4.401  18.286  0.00  0.00    +0.000 NA
ATOM      4  N   UNL     1       6.441   5.191  17.552  0.00  0.00    +0.000 N 
ATOM      5  C   UNL     1       6.712   6.527  17.700  0.00  0.00    +0.000 A 
ENDROOT
BRANCH   1   8
ATOM      6  O   UNL     1       7.559   9.090  17.201  0.00  0.00    +0.000 OA
ATOM      7  C   UNL     1       8.315   8.962  18.167  0.00  0.00    +0.000 C 
ATOM      8  N   UNL     1       8.498   7.768  18.844  0.00  0.00    +0.000 N 
ATOM      9  H   UNL     1       9.051   7.785  19.694  0.00  0.00    +0.000 HD
BRANCH   7  10
ATOM     10  C   UNL     1       9.046  10.095  18.692  0.00  0.00    +0.000 A 
ATOM     11  C   UNL     1       9.676  11.125  18.017  0.00  0.00    +0.000 A 
ATOM     12  C   UNL     1      10.291  11.941  18.992  0.00  0.00    +0.000 A 
ATOM     13  C   UNL     1       9.990  11.370  20.206  0.00  0.00    +0.000 A 
ATOM     14  O   UNL     1       9.217  10.262  20.042  0.00  0.00    +0.000 OA
ENDBRANCH   7  10
ENDBRANCH   1   8
BRANCH   4  15
ATOM     15  C   UNL     1       5.377   4.581  16.789  0.00  0.00    +0.000 C 
BRANCH  15  16
ATOM     16  C   UNL     1       3.998   4.588  17.459  0.00  0.00    +0.000 C 
ATOM     17  C   UNL     1       3.005   3.622  16.810  0.00  0.00    +0.000 C 
ATOM     18  O   UNL     1       1.745   3.640  17.504  0.00  0.00    +0.000 OA
ATOM     19  C   UNL     1       1.919   3.500  18.855  0.00  0.00    +0.000 A 
ATOM     20  C   UNL     1       0.819   3.067  19.597  0.00  0.00    +0.000 A 
ATOM     21  C   UNL     1       0.940   2.877  20.976  0.00  0.00    +0.000 A 
ATOM     22  C   UNL     1       2.157   3.129  21.611  0.00  0.00    +0.000 A 
ATOM     23  C   UNL     1       3.249   3.582  20.868  0.00  0.00    +0.000 A 
ATOM     24  C   UNL     1       3.128   3.778  19.493  0.00  0.00    +0.000 A 
ATOM     25  O   UNL     1       4.241   4.229  18.838  0.00  0.00    +0.000 OA
ENDBRANCH  15  16
ENDBRANCH   4  15
TORSDOF 4
ENDMDL
MODEL 6
REMARK VINA RESULT:      -7.4      1.508      9.384
REMARK  Name = 
REMARK  4 active torsions:
REMARK  status: ('A' for Active; 'I' for Inactive)
REMARK    1  A    between atoms: C_2  and  C_20
REMARK    2  A    between atoms: N_3  and  C_4
REMARK    3  A    between atoms: N_7  and  C_8
REMARK    4  A    between atoms: C_8  and  C_9
REMARK                            x       y       z     vdW  Elec       q    Type
REMARK                         _______ _______ _______ _____ _____    ______ ____
ROOT
ATOM      1  C   UNL     1       4.962   5.746  17.361  0.00  0.00    +0.000 A 
ATOM      2  C   UNL     1       5.415   5.441  18.665  0.00  0.00    +0.000 A 
ATOM      3  N   UNL     1       4.471   5.626  19.593  0.00  0.00    +0.000 NA
ATOM      4  N   UNL     1       3.410   6.049  18.884  0.00  0.00    +0.000 N 
ATOM      5  C   UNL     1       3.675   6.197  17.548  0.00  0.00    +0.000 A 
ENDROOT
BRANCH   1   8
ATOM      6  O   UNL     1       5.433   3.340  15.966  0.00  0.00    +0.000 OA
ATOM      7  C   UNL     1       5.802   4.421  15.502  0.00  0.00    +0.000 C 
ATOM      8  N   UNL     1       5.609   5.636  16.140  0.00  0.00    +0.000 N 
ATOM      9  H   UNL     1       5.844   6.481  15.631  0.00  0.00    +0.000 HD
BRANCH   7  10
ATOM     10  C   UNL     1       6.438   4.493  14.204  0.00  0.00    +0.000 A 
ATOM     11  C   UNL     1       6.229   3.717  13.078  0.00  0.00    +0.000 A 
ATOM     12  C   UNL     1       7.147   4.158  12.098  0.00  0.00    +0.000 A 
ATOM     13  C   UNL     1       7.853   5.184  12.678  0.00  0.00    +0.000 A 
ATOM     14  O   UNL     1       7.420   5.415  13.948  0.00  0.00    +0.000 OA
ENDBRANCH   7  10
ENDBRANCH   1   8
BRANCH   4  15
ATOM     15  C   UNL     1       2.189   6.367  19.588  0.00  0.00    +0.000 C 
BRANCH  15  16
ATOM     16  C   UNL     1       2.041   7.830  20.021  0.00  0.00    +0.000 C 
ATOM     17  C   UNL     1       1.456   8.729  18.929  0.00  0.00    +0.000 C 
ATOM     18  O   UNL     1       1.301  10.078  19.404  0.00  0.00    +0.000 OA
ATOM     19  C   UNL     1       0.656  10.109  20.611  0.00  0.00    +0.000 A 
ATOM     20  C   UNL     1       0.054  11.312  20.981  0.00  0.00    +0.000 A 
ATOM     21  C   UNL     1      -0.644  11.401  22.189  0.00  0.00    +0.000 A 
ATOM     22  C   UNL     1      -0.730  10.289  23.027  0.00  0.00    +0.000 A 
ATOM     23  C   UNL     1      -0.110   9.092  22.663  0.00  0.00    +0.000 A 
ATOM     24  C   UNL     1       0.592   9.004  21.462  0.00  0.00    +0.000 A 
ATOM     25  O   UNL     1       1.177   7.800  21.180  0.00  0.00    +0.000 OA
ENDBRANCH  15  16
ENDBRANCH   4  15
TORSDOF 4
ENDMDL
MODEL 7
REMARK VINA RESULT:      -7.4      4.344      7.559
REMARK  Name = 
REMARK  4 active torsions:
REMARK  status: ('A' for Active; 'I' for Inactive)
REMARK    1  A    between atoms: C_2  and  C_20
REMARK    2  A    between atoms: N_3  and  C_4
REMARK    3  A    between atoms: N_7  and  C_8
REMARK    4  A    between atoms: C_8  and  C_9
REMARK                            x       y       z     vdW  Elec       q    Type
REMARK                         _______ _______ _______ _____ _____    ______ ____
ROOT
ATOM      1  C   UNL     1       7.403   7.568  17.629  0.00  0.00    +0.000 A 
ATOM      2  C   UNL     1       7.929   6.571  18.484  0.00  0.00    +0.000 A 
ATOM      3  N   UNL     1       7.330   5.388  18.320  0.00  0.00    +0.000 NA
ATOM      4  N   UNL     1       6.420   5.624  17.360  0.00  0.00    +0.000 N 
ATOM      5  C   UNL     1       6.383   6.933  16.957  0.00  0.00    +0.000 A 
ENDROOT
BRANCH   1   8
ATOM      6  O   UNL     1       9.092   9.026  19.353  0.00  0.00    +0.000 OA
ATOM      7  C   UNL     1       8.624   9.548  18.339  0.00  0.00    +0.000 C 
ATOM      8  N   UNL     1       7.782   8.890  17.457  0.00  0.00    +0.000 N 
ATOM      9  H   UNL     1       7.539   9.363  16.593  0.00  0.00    +0.000 HD
BRANCH   7  10
ATOM     10  C   UNL     1       8.970  10.906  17.976  0.00  0.00    +0.000 A 
ATOM     11  C   UNL     1      10.208  11.522  17.956  0.00  0.00    +0.000 A 
ATOM     12  C   UNL     1       9.992  12.868  17.584  0.00  0.00    +0.000 A 
ATOM     13  C   UNL     1       8.637  12.992  17.388  0.00  0.00    +0.000 A 
ATOM     14  O   UNL     1       8.006  11.804  17.600  0.00  0.00    +0.000 OA
ENDBRANCH   7  10
ENDBRANCH   1   8
BRANCH   4  15
ATOM     15  C   UNL     1       5.563   4.541  16.936  0.00  0.00    +0.000 C 
BRANCH  15  16
ATOM     16  C   UNL     1       4.145   4.557  17.518  0.00  0.00    +0.000 C 
ATOM     17  C   UNL     1       3.194   3.580  16.824  0.00  0.00    +0.000 C 
ATOM     18  O   UNL     1       1.893   3.608  17.437  0.00  0.00    +0.000 OA
ATOM     19  C   UNL     1       1.982   3.489  18.799  0.00  0.00    +0.000 A 
ATOM     20  C   UNL     1       0.838   3.067  19.477  0.00  0.00    +0.000 A 
ATOM     21  C   UNL     1       0.872   2.898  20.864  0.00  0.00    +0.000 A 
ATOM     22  C   UNL     1       2.047   3.162  21.570  0.00  0.00    +0.000 A 
ATOM     23  C   UNL     1       3.184   3.604  20.890  0.00  0.00    +0.000 A 
ATOM     24  C   UNL     1       3.149   3.778  19.507  0.00  0.00    +0.000 A 
ATOM     25  O   UNL     1       4.301   4.220  18.916  0.00  0.00    +0.000 OA
ENDBRANCH  15  16
ENDBRANCH   4  15
TORSDOF 4
ENDMDL
MODEL 8
REMARK VINA RESULT:      -7.4      1.593      1.750
REMARK  Name = 
REMARK  4 active torsions:
REMARK  status: ('A' for Active; 'I' for Inactive)
REMARK    1  A    between atoms: C_2  and  C_20
REMARK    2  A    between atoms: N_3  and  C_4
REMARK    3  A    between atoms: N_7  and  C_8
REMARK    4  A    between atoms: C_8  and  C_9
REMARK                            x       y       z     vdW  Elec       q    Type
REMARK                         _______ _______ _______ _____ _____    ______ ____
ROOT
ATOM      1  C   UNL     1       2.539   6.577  19.072  0.00  0.00    +0.000 A 
ATOM      2  C   UNL     1       2.018   5.262  19.083  0.00  0.00    +0.000 A 
ATOM      3  N   UNL     1       2.899   4.357  18.645  0.00  0.00    +0.000 NA
ATOM      4  N   UNL     1       3.987   5.091  18.353  0.00  0.00    +0.000 N 
ATOM      5  C   UNL     1       3.798   6.436  18.533  0.00  0.00    +0.000 A 
ENDROOT
BRANCH   1   8
ATOM      6  O   UNL     1       2.000   8.806  17.431  0.00  0.00    +0.000 OA
ATOM      7  C   UNL     1       1.723   8.825  18.632  0.00  0.00    +0.000 C 
ATOM      8  N   UNL     1       1.970   7.768  19.493  0.00  0.00    +0.000 N 
ATOM      9  H   UNL     1       1.606   7.832  20.438  0.00  0.00    +0.000 HD
BRANCH   7  10
ATOM     10  C   UNL     1       1.065   9.971  19.223  0.00  0.00    +0.000 A 
ATOM     11  C   UNL     1       0.054  10.013  20.167  0.00  0.00    +0.000 A 
ATOM     12  C   UNL     1      -0.271  11.375  20.359  0.00  0.00    +0.000 A 
ATOM     13  C   UNL     1       0.567  12.083  19.532  0.00  0.00    +0.000 A 
ATOM     14  O   UNL     1       1.399  11.247  18.852  0.00  0.00    +0.000 OA
ENDBRANCH   7  10
ENDBRANCH   1   8
BRANCH   4  15
ATOM     15  C   UNL     1       5.153   4.421  17.825  0.00  0.00    +0.000 C 
BRANCH  15  16
ATOM     16  C   UNL     1       5.708   4.998  16.518  0.00  0.00    +0.000 C 
ATOM     17  C   UNL     1       7.233   5.127  16.512  0.00  0.00    +0.000 C 
ATOM     18  O   UNL     1       7.700   5.632  15.249  0.00  0.00    +0.000 OA
ATOM     19  C   UNL     1       7.156   4.936  14.203  0.00  0.00    +0.000 A 
ATOM     20  C   UNL     1       7.820   5.005  12.978  0.00  0.00    +0.000 A 
ATOM     21  C   UNL     1       7.332   4.293  11.878  0.00  0.00    +0.000 A 
ATOM     22  C   UNL     1       6.175   3.523  12.004  0.00  0.00    +0.000 A 
ATOM     23  C   UNL     1       5.501   3.474  13.226  0.00  0.00    +0.000 A 
ATOM     24  C   UNL     1       5.984   4.188  14.322  0.00  0.00    +0.000 A 
ATOM     25  O   UNL     1       5.264   4.092  15.481  0.00  0.00    +0.000 OA
ENDBRANCH  15  16
ENDBRANCH   4  15
TORSDOF 4
ENDMDL
MODEL 9
REMARK VINA RESULT:      -7.4      4.210      7.239
REMARK  Name = 
REMARK  4 active torsions:
REMARK  status: ('A' for Active; 'I' for Inactive)
REMARK    1  A    between atoms: C_2  and  C_20
REMARK    2  A    between atoms: N_3  and  C_4
REMARK    3  A    between atoms: N_7  and  C_8
REMARK    4  A    between atoms: C_8  and  C_9
REMARK                            x       y       z     vdW  Elec       q    Type
REMARK                         _______ _______ _______ _____ _____    ______ ____
ROOT
ATOM      1  C   UNL     1       6.891   6.730  16.747  0.00  0.00    +0.000 A 
ATOM      2  C   UNL     1       7.575   5.627  16.184  0.00  0.00    +0.000 A 
ATOM      3  N   UNL     1       6.766   4.591  15.942  0.00  0.00    +0.000 NA
ATOM      4  N   UNL     1       5.561   5.028  16.349  0.00  0.00    +0.000 N 
ATOM      5  C   UNL     1       5.597   6.283  16.899  0.00  0.00    +0.000 A 
ENDROOT
BRANCH   1   8
ATOM      6  O   UNL     1       8.527   7.331  18.964  0.00  0.00    +0.000 OA
ATOM      7  C   UNL     1       8.164   8.218  18.189  0.00  0.00    +0.000 C 
ATOM      8  N   UNL     1       7.354   7.991  17.088  0.00  0.00    +0.000 N 
ATOM      9  H   UNL     1       7.202   8.761  16.446  0.00  0.00    +0.000 HD
BRANCH   7  10
ATOM     10  C   UNL     1       8.611   9.584  18.363  0.00  0.00    +0.000 A 
ATOM     11  C   UNL     1       9.409  10.128  19.353  0.00  0.00    +0.000 A 
ATOM     12  C   UNL     1       9.496  11.515  19.095  0.00  0.00    +0.000 A 
ATOM     13  C   UNL     1       8.757  11.734  17.958  0.00  0.00    +0.000 A 
ATOM     14  O   UNL     1       8.231  10.569  17.489  0.00  0.00    +0.000 OA
ENDBRANCH   7  10
ENDBRANCH   1   8
BRANCH   4  15
ATOM     15  C   UNL     1       4.429   4.137  16.246  0.00  0.00    +0.000 C 
BRANCH  15  16
ATOM     16  C   UNL     1       4.137   3.296  17.493  0.00  0.00    +0.000 C 
ATOM     17  C   UNL     1       5.060   3.617  18.671  0.00  0.00    +0.000 C 
ATOM     18  O   UNL     1       4.714   2.829  19.823  0.00  0.00    +0.000 OA
ATOM     19  C   UNL     1       3.371   2.890  20.083  0.00  0.00    +0.000 A 
ATOM     20  C   UNL     1       2.956   2.558  21.373  0.00  0.00    +0.000 A 
ATOM     21  C   UNL     1       1.601   2.628  21.710  0.00  0.00    +0.000 A 
ATOM     22  C   UNL     1       0.664   3.021  20.753  0.00  0.00    +0.000 A 
ATOM     23  C   UNL     1       1.081   3.334  19.458  0.00  0.00    +0.000 A 
ATOM     24  C   UNL     1       2.432   3.258  19.118  0.00  0.00    +0.000 A 
ATOM     25  O   UNL     1       2.758   3.573  17.828  0.00  0.00    +0.000 OA
ENDBRANCH  15  16
ENDBRANCH   4  15
TORSDOF 4
ENDMDL
