MODEL 1
REMARK VINA RESULT:      -8.3      0.000      0.000
REMARK  Name = 
REMARK  5 active torsions:
REMARK  status: ('A' for Active; 'I' for Inactive)
REMARK    1  A    between atoms: C_2  and  C_11
REMARK    2  A    between atoms: N_3  and  C_4
REMARK    3  A    between atoms: C_4  and  C_5
REMARK    4  A    between atoms: N_15  and  S_16
REMARK    5  A    between atoms: S_16  and  C_19
REMARK                            x       y       z     vdW  Elec       q    Type
REMARK                         _______ _______ _______ _____ _____    ______ ____
ROOT
ATOM      1  C   UNL     1       7.260   5.878  18.438  0.00  0.00    +0.000 C 
ATOM      2  C   UNL     1       7.596   4.682  17.538  0.00  0.00    +0.000 C 
ATOM      3  C   UNL     1       6.455   4.356  16.578  0.00  0.00    +0.000 C 
ATOM      4  C   UNL     1       5.118   4.198  17.294  0.00  0.00    +0.000 C 
ATOM      5  N   UNL     1       4.824   5.386  18.149  0.00  0.00    +0.000 NA
ATOM      6  C   UNL     1       5.920   5.637  19.131  0.00  0.00    +0.000 C 
ENDROOT
BRANCH   1   8
ATOM      7  O   UNL     1       6.776   7.398  16.606  0.00  0.00    +0.000 OA
ATOM      8  C   UNL     1       7.333   7.211  17.685  0.00  0.00    +0.000 C 
ATOM      9  N   UNL     1       8.159   8.158  18.252  0.00  0.00    +0.000 N 
ATOM     10  H   UNL     1       8.516   8.030  19.187  0.00  0.00    +0.000 HD
BRANCH   9  11
ATOM     11  C   UNL     1       8.307   9.475  17.670  0.00  0.00    +0.000 C 
BRANCH  11  12
ATOM     12  C   UNL     1       9.222  10.339  18.489  0.00  0.00    +0.000 A 
ATOM     13  C   UNL     1      10.230  11.108  17.905  0.00  0.00    +0.000 A 
ATOM     14  C   UNL     1      11.049  11.898  18.709  0.00  0.00    +0.000 A 
ATOM     15  C   UNL     1      10.837  11.884  20.076  0.00  0.00    +0.000 A 
ATOM     16  N   UNL     1       9.889  11.138  20.681  0.00  0.00    +0.000 NA
ATOM     17  C   UNL     1       9.108  10.380  19.877  0.00  0.00    +0.000 A 
ENDBRANCH  11  12
ENDBRANCH   9  11
ENDBRANCH   1   8
BRANCH   5  18
ATOM     18  S   UNL     1       3.283   5.334  18.929  0.00  0.00    +0.000 S 
ATOM     19  O   UNL     1       2.444   4.399  18.212  0.00  0.00    +0.000 OA
ATOM     20  O   UNL     1       3.543   5.119  20.341  0.00  0.00    +0.000 OA
BRANCH  18  21
ATOM     21  C   UNL     1       2.644   6.961  18.769  0.00  0.00    +0.000 A 
ATOM     22  C   UNL     1       2.977   7.732  17.629  0.00  0.00    +0.000 A 
ATOM     23  C   UNL     1       2.543   9.065  17.443  0.00  0.00    +0.000 A 
ATOM     24  C   UNL     1       1.744   9.742  18.374  0.00  0.00    +0.000 A 
ATOM     25  C   UNL     1       1.389   9.023  19.541  0.00  0.00    +0.000 A 
ATOM     26  N   UNL     1       0.632   9.493  20.542  0.00  0.00    +0.000 NA
ATOM     27  S   UNL     1       0.520   8.276  21.662  0.00  0.00    +0.000 S 
ATOM     28  N   UNL     1       1.417   7.096  20.922  0.00  0.00    +0.000 NA
ATOM     29  C   UNL     1       1.857   7.598  19.756  0.00  0.00    +0.000 A 
ENDBRANCH  18  21
ENDBRANCH   5  18
TORSDOF 5
ENDMDL
MODEL 2
REMARK VINA RESULT:      -8.1      4.016      7.348
REMARK  Name = 
REMARK  5 active torsions:
REMARK  status: ('A' for Active; 'I' for Inactive)
REMARK    1  A    between atoms: C_2  and  C_11
REMARK    2  A    between atoms: N_3  and  C_4
REMARK    3  A    between atoms: C_4  and  C_5
REMARK    4  A    between atoms: N_15  and  S_16
REMARK    5  A    between atoms: S_16  and  C_19
REMARK                            x       y       z     vdW  Elec       q    Type
REMARK                         _______ _______ _______ _____ _____    ______ ____
ROOT
ATOM      1  C   UNL     1       1.062   4.629  20.152  0.00  0.00    +0.000 C 
ATOM      2  C   UNL     1       1.196   3.635  21.311  0.00  0.00    +0.000 C 
ATOM      3  C   UNL     1       2.621   3.102  21.442  0.00  0.00    +0.000 C 
ATOM      4  C   UNL     1       3.159   2.550  20.127  0.00  0.00    +0.000 C 
ATOM      5  N   UNL     1       3.021   3.552  19.028  0.00  0.00    +0.000 NA
ATOM      6  C   UNL     1       1.605   3.998  18.870  0.00  0.00    +0.000 C 
ENDROOT
BRANCH   1   8
ATOM      7  O   UNL     1       2.863   6.257  20.249  0.00  0.00    +0.000 OA
ATOM      8  C   UNL     1       1.685   5.991  20.479  0.00  0.00    +0.000 C 
ATOM      9  N   UNL     1       0.858   6.866  21.150  0.00  0.00    +0.000 N 
ATOM     10  H   UNL     1      -0.129   6.676  21.230  0.00  0.00    +0.000 HD
BRANCH   9  11
ATOM     11  C   UNL     1       1.297   8.200  21.501  0.00  0.00    +0.000 C 
BRANCH  11  12
ATOM     12  C   UNL     1       0.713   9.231  20.580  0.00  0.00    +0.000 A 
ATOM     13  C   UNL     1       1.160   9.385  19.265  0.00  0.00    +0.000 A 
ATOM     14  C   UNL     1       0.581  10.352  18.449  0.00  0.00    +0.000 A 
ATOM     15  C   UNL     1      -0.423  11.144  18.978  0.00  0.00    +0.000 A 
ATOM     16  N   UNL     1      -0.867  11.042  20.249  0.00  0.00    +0.000 NA
ATOM     17  C   UNL     1      -0.287  10.094  21.021  0.00  0.00    +0.000 A 
ENDBRANCH  11  12
ENDBRANCH   9  11
ENDBRANCH   1   8
BRANCH   5  18
ATOM     18  S   UNL     1       3.689   3.044  17.518  0.00  0.00    +0.000 S 
ATOM     19  O   UNL     1       4.151   1.681  17.663  0.00  0.00    +0.000 OA
ATOM     20  O   UNL     1       2.699   3.356  16.503  0.00  0.00    +0.000 OA
BRANCH  18  21
ATOM     21  C   UNL     1       5.052   4.115  17.247  0.00  0.00    +0.000 A 
ATOM     22  C   UNL     1       5.501   4.952  18.297  0.00  0.00    +0.000 A 
ATOM     23  C   UNL     1       6.561   5.876  18.152  0.00  0.00    +0.000 A 
ATOM     24  C   UNL     1       7.263   6.046  16.951  0.00  0.00    +0.000 A 
ATOM     25  C   UNL     1       6.850   5.242  15.861  0.00  0.00    +0.000 A 
ATOM     26  N   UNL     1       7.396   5.256  14.636  0.00  0.00    +0.000 NA
ATOM     27  S   UNL     1       6.556   4.149  13.733  0.00  0.00    +0.000 S 
ATOM     28  N   UNL     1       5.471   3.596  14.857  0.00  0.00    +0.000 NA
ATOM     29  C   UNL     1       5.708   4.257  16.002  0.00  0.00    +0.000 A 
ENDBRANCH  18  21
ENDBRANCH   5  18
TORSDOF 5
ENDMDL
MODEL 3
REMARK VINA RESULT:      -8.0      4.109      7.166
REMARK  Name = 
REMARK  5 active torsions:
REMARK  status: ('A' for Active; 'I' for Inactive)
REMARK    1  A    between atoms: C_2  and  C_11
REMARK    2  A    between atoms: N_3  and  C_4
REMARK    3  A    between atoms: C_4  and  C_5
REMARK    4  A    between atoms: N_15  and  S_16
REMARK    5  A    between atoms: S_16  and  C_19
REMARK                            x       y       z     vdW  Elec       q    Type
REMARK                         _______ _______ _______ _____ _____    ______ ____
ROOT
ATOM      1  C   UNL     1       1.199   4.798  20.064  0.00  0.00    +0.000 C 
ATOM      2  C   UNL     1       1.314   3.920  21.315  0.00  0.00    +0.000 C 
ATOM      3  C   UNL     1       2.697   3.288  21.442  0.00  0.00    +0.000 C 
ATOM      4  C   UNL     1       3.126   2.563  20.172  0.00  0.00    +0.000 C 
ATOM      5  N   UNL     1       3.012   3.455  18.980  0.00  0.00    +0.000 NA
ATOM      6  C   UNL     1       1.627   3.997  18.835  0.00  0.00    +0.000 C 
ENDROOT
BRANCH   1   8
ATOM      7  O   UNL     1       3.072   6.319  19.778  0.00  0.00    +0.000 OA
ATOM      8  C   UNL     1       1.941   6.131  20.219  0.00  0.00    +0.000 C 
ATOM      9  N   UNL     1       1.291   7.075  20.984  0.00  0.00    +0.000 N 
ATOM     10  H   UNL     1       0.325   6.947  21.242  0.00  0.00    +0.000 HD
BRANCH   9  11
ATOM     11  C   UNL     1       1.855   8.392  21.196  0.00  0.00    +0.000 C 
BRANCH  11  12
ATOM     12  C   UNL     1       0.812   9.369  21.656  0.00  0.00    +0.000 A 
ATOM     13  C   UNL     1       0.162  10.228  20.767  0.00  0.00    +0.000 A 
ATOM     14  C   UNL     1      -0.803  11.112  21.244  0.00  0.00    +0.000 A 
ATOM     15  C   UNL     1      -1.081  11.114  22.600  0.00  0.00    +0.000 A 
ATOM     16  N   UNL     1      -0.459  10.315  23.493  0.00  0.00    +0.000 NA
ATOM     17  C   UNL     1       0.474   9.466  23.004  0.00  0.00    +0.000 A 
ENDBRANCH  11  12
ENDBRANCH   9  11
ENDBRANCH   1   8
BRANCH   5  18
ATOM     18  S   UNL     1       3.563   2.743  17.506  0.00  0.00    +0.000 S 
ATOM     19  O   UNL     1       4.156   1.461  17.817  0.00  0.00    +0.000 OA
ATOM     20  O   UNL     1       2.449   2.804  16.576  0.00  0.00    +0.000 OA
BRANCH  18  21
ATOM     21  C   UNL     1       4.790   3.844  16.907  0.00  0.00    +0.000 A 
ATOM     22  C   UNL     1       4.901   4.075  15.514  0.00  0.00    +0.000 A 
ATOM     23  C   UNL     1       5.888   4.910  14.943  0.00  0.00    +0.000 A 
ATOM     24  C   UNL     1       6.848   5.586  15.709  0.00  0.00    +0.000 A 
ATOM     25  C   UNL     1       6.792   5.384  17.109  0.00  0.00    +0.000 A 
ATOM     26  N   UNL     1       7.618   5.942  18.007  0.00  0.00    +0.000 NA
ATOM     27  S   UNL     1       7.143   5.386  19.494  0.00  0.00    +0.000 S 
ATOM     28  N   UNL     1       5.865   4.422  19.068  0.00  0.00    +0.000 NA
ATOM     29  C   UNL     1       5.746   4.483  17.731  0.00  0.00    +0.000 A 
ENDBRANCH  18  21
ENDBRANCH   5  18
TORSDOF 5
ENDMDL
MODEL 4
REMARK VINA RESULT:      -7.9      4.008      7.018
REMARK  Name = 
REMARK  5 active torsions:
REMARK  status: ('A' for Active; 'I' for Inactive)
REMARK    1  A    between atoms: C_2  and  C_11
REMARK    2  A    between atoms: N_3  and  C_4
REMARK    3  A    between atoms: C_4  and  C_5
REMARK    4  A    between atoms: N_15  and  S_16
REMARK    5  A    between atoms: S_16  and  C_19
REMARK                            x       y       z     vdW  Elec       q    Type
REMARK                         _______ _______ _______ _____ _____    ______ ____
ROOT
ATOM      1  C   UNL     1       1.197   4.573  20.177  0.00  0.00    +0.000 C 
ATOM      2  C   UNL     1       1.407   3.679  21.405  0.00  0.00    +0.000 C 
ATOM      3  C   UNL     1       2.828   3.125  21.469  0.00  0.00    +0.000 C 
ATOM      4  C   UNL     1       3.248   2.449  20.169  0.00  0.00    +0.000 C 
ATOM      5  N   UNL     1       3.040   3.355  19.001  0.00  0.00    +0.000 NA
ATOM      6  C   UNL     1       1.623   3.820  18.917  0.00  0.00    +0.000 C 
ENDROOT
BRANCH   1   8
ATOM      7  O   UNL     1       2.987   6.190  19.892  0.00  0.00    +0.000 OA
ATOM      8  C   UNL     1       1.867   5.942  20.333  0.00  0.00    +0.000 C 
ATOM      9  N   UNL     1       1.169   6.851  21.099  0.00  0.00    +0.000 N 
ATOM     10  H   UNL     1       0.210   6.671  21.356  0.00  0.00    +0.000 HD
BRANCH   9  11
ATOM     11  C   UNL     1       1.662   8.195  21.312  0.00  0.00    +0.000 C 
BRANCH  11  12
ATOM     12  C   UNL     1       0.902   9.196  20.491  0.00  0.00    +0.000 A 
ATOM     13  C   UNL     1      -0.142   9.952  21.030  0.00  0.00    +0.000 A 
ATOM     14  C   UNL     1      -0.812  10.872  20.228  0.00  0.00    +0.000 A 
ATOM     15  C   UNL     1      -0.421  11.000  18.906  0.00  0.00    +0.000 A 
ATOM     16  N   UNL     1       0.567  10.273  18.343  0.00  0.00    +0.000 NA
ATOM     17  C   UNL     1       1.202   9.386  19.144  0.00  0.00    +0.000 A 
ENDBRANCH  11  12
ENDBRANCH   9  11
ENDBRANCH   1   8
BRANCH   5  18
ATOM     18  S   UNL     1       3.576   2.704  17.493  0.00  0.00    +0.000 S 
ATOM     19  O   UNL     1       4.190   1.419  17.748  0.00  0.00    +0.000 OA
ATOM     20  O   UNL     1       2.446   2.784  16.584  0.00  0.00    +0.000 OA
BRANCH  18  21
ATOM     21  C   UNL     1       4.779   3.842  16.914  0.00  0.00    +0.000 A 
ATOM     22  C   UNL     1       4.878   4.107  15.527  0.00  0.00    +0.000 A 
ATOM     23  C   UNL     1       5.847   4.974  14.971  0.00  0.00    +0.000 A 
ATOM     24  C   UNL     1       6.798   5.650  15.748  0.00  0.00    +0.000 A 
ATOM     25  C   UNL     1       6.753   5.415  17.143  0.00  0.00    +0.000 A 
ATOM     26  N   UNL     1       7.572   5.967  18.050  0.00  0.00    +0.000 NA
ATOM     27  S   UNL     1       7.115   5.368  19.526  0.00  0.00    +0.000 S 
ATOM     28  N   UNL     1       5.853   4.390  19.083  0.00  0.00    +0.000 NA
ATOM     29  C   UNL     1       5.726   4.479  17.748  0.00  0.00    +0.000 A 
ENDBRANCH  18  21
ENDBRANCH   5  18
TORSDOF 5
ENDMDL
MODEL 5
REMARK VINA RESULT:      -7.9      3.834      7.426
REMARK  Name = 
REMARK  5 active torsions:
REMARK  status: ('A' for Active; 'I' for Inactive)
REMARK    1  A    between atoms: C_2  and  C_11
REMARK    2  A    between atoms: N_3  and  C_4
REMARK    3  A    between atoms: C_4  and  C_5
REMARK    4  A    between atoms: N_15  and  S_16
REMARK    5  A    between atoms: S_16  and  C_19
REMARK                            x       y       z     vdW  Elec       q    Type
REMARK                         _______ _______ _______ _____ _____    ______ ____
ROOT
ATOM      1  C   UNL     1       1.430   5.323  19.472  0.00  0.00    +0.000 C 
ATOM      2  C   UNL     1       0.748   4.534  20.596  0.00  0.00    +0.000 C 
ATOM      3  C   UNL     1       1.763   3.828  21.492  0.00  0.00    +0.000 C 
ATOM      4  C   UNL     1       2.754   2.986  20.698  0.00  0.00    +0.000 C 
ATOM      5  N   UNL     1       3.405   3.793  19.623  0.00  0.00    +0.000 NA
ATOM      6  C   UNL     1       2.392   4.408  18.714  0.00  0.00    +0.000 C 
ENDROOT
BRANCH   1   8
ATOM      7  O   UNL     1       3.166   7.019  19.570  0.00  0.00    +0.000 OA
ATOM      8  C   UNL     1       2.081   6.614  19.980  0.00  0.00    +0.000 C 
ATOM      9  N   UNL     1       1.412   7.239  21.011  0.00  0.00    +0.000 N 
ATOM     10  H   UNL     1       0.475   6.958  21.256  0.00  0.00    +0.000 HD
BRANCH   9  11
ATOM     11  C   UNL     1       1.890   8.483  21.576  0.00  0.00    +0.000 C 
BRANCH  11  12
ATOM     12  C   UNL     1       0.760   9.435  21.844  0.00  0.00    +0.000 A 
ATOM     13  C   UNL     1       0.266  10.292  20.858  0.00  0.00    +0.000 A 
ATOM     14  C   UNL     1      -0.788  11.151  21.156  0.00  0.00    +0.000 A 
ATOM     15  C   UNL     1      -1.309  11.132  22.439  0.00  0.00    +0.000 A 
ATOM     16  N   UNL     1      -0.845  10.336  23.424  0.00  0.00    +0.000 NA
ATOM     17  C   UNL     1       0.180   9.511  23.108  0.00  0.00    +0.000 A 
ENDBRANCH  11  12
ENDBRANCH   9  11
ENDBRANCH   1   8
BRANCH   5  18
ATOM     18  S   UNL     1       4.613   2.941  18.729  0.00  0.00    +0.000 S 
ATOM     19  O   UNL     1       5.301   2.048  19.635  0.00  0.00    +0.000 OA
ATOM     20  O   UNL     1       3.950   2.394  17.558  0.00  0.00    +0.000 OA
BRANCH  18  21
ATOM     21  C   UNL     1       5.711   4.185  18.160  0.00  0.00    +0.000 A 
ATOM     22  C   UNL     1       6.224   5.135  19.076  0.00  0.00    +0.000 A 
ATOM     23  C   UNL     1       7.077   6.196  18.695  0.00  0.00    +0.000 A 
ATOM     24  C   UNL     1       7.491   6.402  17.372  0.00  0.00    +0.000 A 
ATOM     25  C   UNL     1       6.999   5.488  16.409  0.00  0.00    +0.000 A 
ATOM     26  N   UNL     1       7.281   5.516  15.098  0.00  0.00    +0.000 NA
ATOM     27  S   UNL     1       6.461   4.249  14.413  0.00  0.00    +0.000 S 
ATOM     28  N   UNL     1       5.721   3.604  15.747  0.00  0.00    +0.000 NA
ATOM     29  C   UNL     1       6.076   4.354  16.804  0.00  0.00    +0.000 A 
ENDBRANCH  18  21
ENDBRANCH   5  18
TORSDOF 5
ENDMDL
MODEL 6
REMARK VINA RESULT:      -7.8      4.052      7.513
REMARK  Name = 
REMARK  5 active torsions:
REMARK  status: ('A' for Active; 'I' for Inactive)
REMARK    1  A    between atoms: C_2  and  C_11
REMARK    2  A    between atoms: N_3  and  C_4
REMARK    3  A    between atoms: C_4  and  C_5
REMARK    4  A    between atoms: N_15  and  S_16
REMARK    5  A    between atoms: S_16  and  C_19
REMARK                            x       y       z     vdW  Elec       q    Type
REMARK                         _______ _______ _______ _____ _____    ______ ____
ROOT
ATOM      1  C   UNL     1       1.034   4.365  20.297  0.00  0.00    +0.000 C 
ATOM      2  C   UNL     1       1.127   3.245  21.341  0.00  0.00    +0.000 C 
ATOM      3  C   UNL     1       2.531   2.651  21.414  0.00  0.00    +0.000 C 
ATOM      4  C   UNL     1       3.056   2.227  20.046  0.00  0.00    +0.000 C 
ATOM      5  N   UNL     1       2.959   3.347  19.064  0.00  0.00    +0.000 NA
ATOM      6  C   UNL     1       1.560   3.858  18.955  0.00  0.00    +0.000 C 
ENDROOT
BRANCH   1   8
ATOM      7  O   UNL     1       2.440   5.707  21.755  0.00  0.00    +0.000 OA
ATOM      8  C   UNL     1       1.704   5.660  20.772  0.00  0.00    +0.000 C 
ATOM      9  N   UNL     1       1.336   6.795  20.081  0.00  0.00    +0.000 N 
ATOM     10  H   UNL     1       0.824   6.722  19.216  0.00  0.00    +0.000 HD
BRANCH   9  11
ATOM     11  C   UNL     1       1.907   8.087  20.397  0.00  0.00    +0.000 C 
BRANCH  11  12
ATOM     12  C   UNL     1       0.910   8.976  21.080  0.00  0.00    +0.000 A 
ATOM     13  C   UNL     1       0.668   8.896  22.454  0.00  0.00    +0.000 A 
ATOM     14  C   UNL     1      -0.263   9.748  23.041  0.00  0.00    +0.000 A 
ATOM     15  C   UNL     1      -0.931  10.650  22.231  0.00  0.00    +0.000 A 
ATOM     16  N   UNL     1      -0.742  10.743  20.899  0.00  0.00    +0.000 NA
ATOM     17  C   UNL     1       0.168   9.904  20.353  0.00  0.00    +0.000 A 
ENDBRANCH  11  12
ENDBRANCH   9  11
ENDBRANCH   1   8
BRANCH   5  18
ATOM     18  S   UNL     1       3.616   2.984  17.508  0.00  0.00    +0.000 S 
ATOM     19  O   UNL     1       4.037   1.600  17.506  0.00  0.00    +0.000 OA
ATOM     20  O   UNL     1       2.638   3.433  16.532  0.00  0.00    +0.000 OA
BRANCH  18  21
ATOM     21  C   UNL     1       5.011   4.037  17.353  0.00  0.00    +0.000 A 
ATOM     22  C   UNL     1       5.456   4.777  18.476  0.00  0.00    +0.000 A 
ATOM     23  C   UNL     1       6.541   5.681  18.428  0.00  0.00    +0.000 A 
ATOM     24  C   UNL     1       7.276   5.926  17.259  0.00  0.00    +0.000 A 
ATOM     25  C   UNL     1       6.869   5.222  16.101  0.00  0.00    +0.000 A 
ATOM     26  N   UNL     1       7.444   5.318  14.893  0.00  0.00    +0.000 NA
ATOM     27  S   UNL     1       6.598   4.309  13.887  0.00  0.00    +0.000 S 
ATOM     28  N   UNL     1       5.473   3.697  14.939  0.00  0.00    +0.000 NA
ATOM     29  C   UNL     1       5.700   4.259  16.138  0.00  0.00    +0.000 A 
ENDBRANCH  18  21
ENDBRANCH   5  18
TORSDOF 5
ENDMDL
MODEL 7
REMARK VINA RESULT:      -7.4      5.465      8.441
REMARK  Name = 
REMARK  5 active torsions:
REMARK  status: ('A' for Active; 'I' for Inactive)
REMARK    1  A    between atoms: C_2  and  C_11
REMARK    2  A    between atoms: N_3  and  C_4
REMARK    3  A    between atoms: C_4  and  C_5
REMARK    4  A    between atoms: N_15  and  S_16
REMARK    5  A    between atoms: S_16  and  C_19
REMARK                            x       y       z     vdW  Elec       q    Type
REMARK                         _______ _______ _______ _____ _____    ______ ____
ROOT
ATOM      1  C   UNL     1       1.865   9.265  20.350  0.00  0.00    +0.000 C 
ATOM      2  C   UNL     1       1.404   8.484  21.586  0.00  0.00    +0.000 C 
ATOM      3  C   UNL     1      -0.108   8.270  21.592  0.00  0.00    +0.000 C 
ATOM      4  C   UNL     1      -0.880   9.569  21.393  0.00  0.00    +0.000 C 
ATOM      5  N   UNL     1      -0.410  10.292  20.174  0.00  0.00    +0.000 NA
ATOM      6  C   UNL     1       1.058  10.557  20.230  0.00  0.00    +0.000 C 
ENDROOT
BRANCH   1   8
ATOM      7  O   UNL     1       1.334   8.784  18.029  0.00  0.00    +0.000 OA
ATOM      8  C   UNL     1       1.846   8.407  19.080  0.00  0.00    +0.000 C 
ATOM      9  N   UNL     1       2.351   7.133  19.228  0.00  0.00    +0.000 N 
ATOM     10  H   UNL     1       2.865   6.880  20.059  0.00  0.00    +0.000 HD
BRANCH   9  11
ATOM     11  C   UNL     1       2.426   6.216  18.110  0.00  0.00    +0.000 C 
BRANCH  11  12
ATOM     12  C   UNL     1       1.997   4.833  18.504  0.00  0.00    +0.000 A 
ATOM     13  C   UNL     1       1.491   4.550  19.775  0.00  0.00    +0.000 A 
ATOM     14  C   UNL     1       1.101   3.250  20.089  0.00  0.00    +0.000 A 
ATOM     15  C   UNL     1       1.240   2.270  19.121  0.00  0.00    +0.000 A 
ATOM     16  N   UNL     1       1.745   2.499  17.890  0.00  0.00    +0.000 NA
ATOM     17  C   UNL     1       2.116   3.770  17.611  0.00  0.00    +0.000 A 
ENDBRANCH  11  12
ENDBRANCH   9  11
ENDBRANCH   1   8
BRANCH   5  18
ATOM     18  S   UNL     1      -1.294  11.733  19.819  0.00  0.00    +0.000 S 
ATOM     19  O   UNL     1      -2.099  12.066  20.974  0.00  0.00    +0.000 OA
ATOM     20  O   UNL     1      -0.328  12.697  19.322  0.00  0.00    +0.000 OA
BRANCH  18  21
ATOM     21  C   UNL     1      -2.328  11.304  18.468  0.00  0.00    +0.000 A 
ATOM     22  C   UNL     1      -1.789  10.576  17.380  0.00  0.00    +0.000 A 
ATOM     23  C   UNL     1      -2.538  10.228  16.233  0.00  0.00    +0.000 A 
ATOM     24  C   UNL     1      -3.886  10.576  16.071  0.00  0.00    +0.000 A 
ATOM     25  C   UNL     1      -4.476  11.316  17.124  0.00  0.00    +0.000 A 
ATOM     26  N   UNL     1      -5.749  11.738  17.157  0.00  0.00    +0.000 NA
ATOM     27  S   UNL     1      -5.937  12.557  18.586  0.00  0.00    +0.000 S 
ATOM     28  N   UNL     1      -4.418  12.403  19.230  0.00  0.00    +0.000 NA
ATOM     29  C   UNL     1      -3.680  11.703  18.353  0.00  0.00    +0.000 A 
ENDBRANCH  18  21
ENDBRANCH   5  18
TORSDOF 5
ENDMDL
MODEL 8
REMARK VINA RESULT:      -7.4      5.707      8.571
REMARK  Name = 
REMARK  5 active torsions:
REMARK  status: ('A' for Active; 'I' for Inactive)
REMARK    1  A    between atoms: C_2  and  C_11
REMARK    2  A    between atoms: N_3  and  C_4
REMARK    3  A    between atoms: C_4  and  C_5
REMARK    4  A    between atoms: N_15  and  S_16
REMARK    5  A    between atoms: S_16  and  C_19
REMARK                            x       y       z     vdW  Elec       q    Type
REMARK                         _______ _______ _______ _____ _____    ______ ____
ROOT
ATOM      1  C   UNL     1       1.724   9.663  21.141  0.00  0.00    +0.000 C 
ATOM      2  C   UNL     1       1.262   9.077  22.481  0.00  0.00    +0.000 C 
ATOM      3  C   UNL     1      -0.249   8.863  22.517  0.00  0.00    +0.000 C 
ATOM      4  C   UNL     1      -1.024  10.115  22.123  0.00  0.00    +0.000 C 
ATOM      5  N   UNL     1      -0.554  10.647  20.810  0.00  0.00    +0.000 NA
ATOM      6  C   UNL     1       0.915  10.921  20.827  0.00  0.00    +0.000 C 
ENDROOT
BRANCH   1   8
ATOM      7  O   UNL     1       1.219   8.845  18.910  0.00  0.00    +0.000 OA
ATOM      8  C   UNL     1       1.708   8.623  20.015  0.00  0.00    +0.000 C 
ATOM      9  N   UNL     1       2.188   7.378  20.363  0.00  0.00    +0.000 N 
ATOM     10  H   UNL     1       2.684   7.247  21.231  0.00  0.00    +0.000 HD
BRANCH   9  11
ATOM     11  C   UNL     1       2.263   6.302  19.397  0.00  0.00    +0.000 C 
BRANCH  11  12
ATOM     12  C   UNL     1       1.958   4.975  20.029  0.00  0.00    +0.000 A 
ATOM     13  C   UNL     1       1.196   4.003  19.375  0.00  0.00    +0.000 A 
ATOM     14  C   UNL     1       0.948   2.785  20.002  0.00  0.00    +0.000 A 
ATOM     15  C   UNL     1       1.463   2.581  21.271  0.00  0.00    +0.000 A 
ATOM     16  N   UNL     1       2.184   3.502  21.944  0.00  0.00    +0.000 NA
ATOM     17  C   UNL     1       2.411   4.677  21.312  0.00  0.00    +0.000 A 
ENDBRANCH  11  12
ENDBRANCH   9  11
ENDBRANCH   1   8
BRANCH   5  18
ATOM     18  S   UNL     1      -1.439  12.016  20.240  0.00  0.00    +0.000 S 
ATOM     19  O   UNL     1      -2.374  12.411  21.271  0.00  0.00    +0.000 OA
ATOM     20  O   UNL     1      -0.457  12.974  19.765  0.00  0.00    +0.000 OA
BRANCH  18  21
ATOM     21  C   UNL     1      -2.308  11.434  18.831  0.00  0.00    +0.000 A 
ATOM     22  C   UNL     1      -1.624  10.666  17.858  0.00  0.00    +0.000 A 
ATOM     23  C   UNL     1      -2.234  10.196  16.672  0.00  0.00    +0.000 A 
ATOM     24  C   UNL     1      -3.576  10.452  16.355  0.00  0.00    +0.000 A 
ATOM     25  C   UNL     1      -4.307  11.226  17.287  0.00  0.00    +0.000 A 
ATOM     26  N   UNL     1      -5.596  11.573  17.165  0.00  0.00    +0.000 NA
ATOM     27  S   UNL     1      -5.971  12.475  18.504  0.00  0.00    +0.000 S 
ATOM     28  N   UNL     1      -4.519  12.457  19.303  0.00  0.00    +0.000 NA
ATOM     29  C   UNL     1      -3.660  11.743  18.555  0.00  0.00    +0.000 A 
ENDBRANCH  18  21
ENDBRANCH   5  18
TORSDOF 5
ENDMDL
MODEL 9
REMARK VINA RESULT:      -7.3      4.127      6.741
REMARK  Name = 
REMARK  5 active torsions:
REMARK  status: ('A' for Active; 'I' for Inactive)
REMARK    1  A    between atoms: C_2  and  C_11
REMARK    2  A    between atoms: N_3  and  C_4
REMARK    3  A    between atoms: C_4  and  C_5
REMARK    4  A    between atoms: N_15  and  S_16
REMARK    5  A    between atoms: S_16  and  C_19
REMARK                            x       y       z     vdW  Elec       q    Type
REMARK                         _______ _______ _______ _____ _____    ______ ____
ROOT
ATOM      1  C   UNL     1       6.047   5.942  16.155  0.00  0.00    +0.000 C 
ATOM      2  C   UNL     1       6.759   6.344  17.451  0.00  0.00    +0.000 C 
ATOM      3  C   UNL     1       6.960   5.152  18.383  0.00  0.00    +0.000 C 
ATOM      4  C   UNL     1       5.666   4.385  18.635  0.00  0.00    +0.000 C 
ATOM      5  N   UNL     1       5.010   4.002  17.349  0.00  0.00    +0.000 NA
ATOM      6  C   UNL     1       4.755   5.197  16.490  0.00  0.00    +0.000 C 
ENDROOT
BRANCH   1   8
ATOM      7  O   UNL     1       7.850   4.416  15.588  0.00  0.00    +0.000 OA
ATOM      8  C   UNL     1       6.968   5.177  15.198  0.00  0.00    +0.000 C 
ATOM      9  N   UNL     1       6.810   5.485  13.863  0.00  0.00    +0.000 N 
ATOM     10  H   UNL     1       6.014   6.022  13.554  0.00  0.00    +0.000 HD
BRANCH   9  11
ATOM     11  C   UNL     1       7.590   4.822  12.839  0.00  0.00    +0.000 C 
BRANCH  11  12
ATOM     12  C   UNL     1       6.830   3.685  12.220  0.00  0.00    +0.000 A 
ATOM     13  C   UNL     1       5.434   3.653  12.200  0.00  0.00    +0.000 A 
ATOM     14  C   UNL     1       4.776   2.578  11.607  0.00  0.00    +0.000 A 
ATOM     15  C   UNL     1       5.540   1.562  11.059  0.00  0.00    +0.000 A 
ATOM     16  N   UNL     1       6.889   1.545  11.078  0.00  0.00    +0.000 NA
ATOM     17  C   UNL     1       7.503   2.602  11.660  0.00  0.00    +0.000 A 
ENDBRANCH  11  12
ENDBRANCH   9  11
ENDBRANCH   1   8
BRANCH   5  18
ATOM     18  S   UNL     1       3.581   3.050  17.538  0.00  0.00    +0.000 S 
ATOM     19  O   UNL     1       2.631   3.456  16.526  0.00  0.00    +0.000 OA
ATOM     20  O   UNL     1       4.013   1.664  17.594  0.00  0.00    +0.000 OA
BRANCH  18  21
ATOM     21  C   UNL     1       2.976   3.460  19.133  0.00  0.00    +0.000 A 
ATOM     22  C   UNL     1       2.839   2.445  20.110  0.00  0.00    +0.000 A 
ATOM     23  C   UNL     1       2.317   2.679  21.403  0.00  0.00    +0.000 A 
ATOM     24  C   UNL     1       1.888   3.943  21.832  0.00  0.00    +0.000 A 
ATOM     25  C   UNL     1       1.992   4.996  20.892  0.00  0.00    +0.000 A 
ATOM     26  N   UNL     1       1.638   6.270  21.113  0.00  0.00    +0.000 NA
ATOM     27  S   UNL     1       1.946   7.095  19.709  0.00  0.00    +0.000 S 
ATOM     28  N   UNL     1       2.551   5.877  18.763  0.00  0.00    +0.000 NA
ATOM     29  C   UNL     1       2.539   4.754  19.501  0.00  0.00    +0.000 A 
ENDBRANCH  18  21
ENDBRANCH   5  18
TORSDOF 5
ENDMDL
