MODEL 1
REMARK VINA RESULT:      -9.0      0.000      0.000
REMARK  Name = 
REMARK  5 active torsions:
REMARK  status: ('A' for Active; 'I' for Inactive)
REMARK    1  A    between atoms: C_2  and  C_4
REMARK    2  A    between atoms: C_7  and  C_8
REMARK    3  A    between atoms: C_9  and  C_10
REMARK    4  A    between atoms: C_13  and  O_14
REMARK    5  A    between atoms: C_20  and  O_21
REMARK                            x       y       z     vdW  Elec       q    Type
REMARK                         _______ _______ _______ _____ _____    ______ ____
ROOT
ATOM      1  C   UNL     1       4.657   3.780  17.706  0.00  0.00    +0.000 C 
ATOM      2  C   UNL     1       4.717   4.639  18.759  0.00  0.00    +0.000 C 
ATOM      3  C   UNL     1       4.883   3.739  19.960  0.00  0.00    +0.000 C 
ATOM      4  C   UNL     1       3.749   2.799  19.655  0.00  0.00    +0.000 A 
ATOM      5  C   UNL     1       2.841   2.515  20.683  0.00  0.00    +0.000 A 
ATOM      6  C   UNL     1       1.509   2.654  20.370  0.00  0.00    +0.000 A 
ATOM      7  C   UNL     1       1.132   2.901  19.042  0.00  0.00    +0.000 A 
ATOM      8  C   UNL     1       2.096   2.986  17.976  0.00  0.00    +0.000 A 
ATOM      9  C   UNL     1       3.474   2.946  18.258  0.00  0.00    +0.000 A 
ENDROOT
BRANCH   1  13
ATOM     10  C   UNL     1       6.928   4.886  14.138  0.00  0.00    +0.000 A 
ATOM     11  C   UNL     1       5.649   4.377  14.085  0.00  0.00    +0.000 A 
ATOM     12  C   UNL     1       4.942   4.196  15.279  0.00  0.00    +0.000 A 
ATOM     13  C   UNL     1       5.488   4.392  16.604  0.00  0.00    +0.000 A 
ATOM     14  C   UNL     1       6.762   4.956  16.632  0.00  0.00    +0.000 A 
ATOM     15  C   UNL     1       7.469   5.189  15.411  0.00  0.00    +0.000 A 
BRANCH  10  17
ATOM     16  N   UNL     1       8.833   5.931  12.943  0.00  0.00    +0.000 N 
ATOM     17  C   UNL     1       7.751   5.089  12.901  0.00  0.00    +0.000 C 
ATOM     18  O   UNL     1       7.475   4.498  11.879  0.00  0.00    +0.000 OA
ATOM     19  H   UNL     1       9.351   6.034  12.075  0.00  0.00    +0.000 HD
ATOM     20  H   UNL     1       9.142   6.483  13.729  0.00  0.00    +0.000 HD
ENDBRANCH  10  17
ENDBRANCH   1  13
BRANCH   2  21
ATOM     21  C   UNL     1       3.709   5.775  18.646  0.00  0.00    +0.000 A 
ATOM     22  C   UNL     1       2.843   6.094  19.740  0.00  0.00    +0.000 A 
ATOM     23  C   UNL     1       2.120   7.272  19.834  0.00  0.00    +0.000 A 
ATOM     24  C   UNL     1       2.203   8.142  18.775  0.00  0.00    +0.000 A 
ATOM     25  C   UNL     1       2.961   7.830  17.645  0.00  0.00    +0.000 A 
ATOM     26  C   UNL     1       3.725   6.645  17.575  0.00  0.00    +0.000 A 
BRANCH  24  27
ATOM     27  O   UNL     1       1.553   9.343  18.832  0.00  0.00    +0.000 OA
ATOM     28  H   UNL     1       0.655   9.218  18.482  0.00  0.00    +0.000 HD
ENDBRANCH  24  27
ENDBRANCH   2  21
BRANCH   6  29
ATOM     29  O   UNL     1       0.572   2.698  21.366  0.00  0.00    +0.000 OA
ATOM     30  H   UNL     1       0.448   3.620  21.646  0.00  0.00    +0.000 HD
ENDBRANCH   6  29
TORSDOF 5
ENDMDL
MODEL 2
REMARK VINA RESULT:      -8.9      3.224      6.469
REMARK  Name = 
REMARK  5 active torsions:
REMARK  status: ('A' for Active; 'I' for Inactive)
REMARK    1  A    between atoms: C_2  and  C_4
REMARK    2  A    between atoms: C_7  and  C_8
REMARK    3  A    between atoms: C_9  and  C_10
REMARK    4  A    between atoms: C_13  and  O_14
REMARK    5  A    between atoms: C_20  and  O_21
REMARK                            x       y       z     vdW  Elec       q    Type
REMARK                         _______ _______ _______ _____ _____    ______ ____
ROOT
ATOM      1  C   UNL     1       2.110   5.621  19.107  0.00  0.00    +0.000 C 
ATOM      2  C   UNL     1       2.388   5.379  17.798  0.00  0.00    +0.000 C 
ATOM      3  C   UNL     1       1.533   4.183  17.453  0.00  0.00    +0.000 C 
ATOM      4  C   UNL     1       1.938   3.315  18.614  0.00  0.00    +0.000 A 
ATOM      5  C   UNL     1       2.324   1.997  18.340  0.00  0.00    +0.000 A 
ATOM      6  C   UNL     1       3.517   1.590  18.890  0.00  0.00    +0.000 A 
ATOM      7  C   UNL     1       4.181   2.425  19.801  0.00  0.00    +0.000 A 
ATOM      8  C   UNL     1       3.640   3.696  20.208  0.00  0.00    +0.000 A 
ATOM      9  C   UNL     1       2.473   4.199  19.604  0.00  0.00    +0.000 A 
ENDROOT
BRANCH   1  13
ATOM     10  C   UNL     1       1.153   9.794  19.988  0.00  0.00    +0.000 A 
ATOM     11  C   UNL     1       1.283   8.832  20.966  0.00  0.00    +0.000 A 
ATOM     12  C   UNL     1       1.742   7.560  20.607  0.00  0.00    +0.000 A 
ATOM     13  C   UNL     1       1.988   7.119  19.250  0.00  0.00    +0.000 A 
ATOM     14  C   UNL     1       1.900   8.121  18.288  0.00  0.00    +0.000 A 
ATOM     15  C   UNL     1       1.480   9.437  18.658  0.00  0.00    +0.000 A 
BRANCH  10  17
ATOM     16  N   UNL     1      -0.396  11.686  19.575  0.00  0.00    +0.000 N 
ATOM     17  C   UNL     1       0.652  11.173  20.297  0.00  0.00    +0.000 C 
ATOM     18  O   UNL     1       1.153  11.820  21.192  0.00  0.00    +0.000 OA
ATOM     19  H   UNL     1      -0.691  12.626  19.826  0.00  0.00    +0.000 HD
ATOM     20  H   UNL     1      -0.873  11.247  18.803  0.00  0.00    +0.000 HD
ENDBRANCH  10  17
ENDBRANCH   1  13
BRANCH   2  21
ATOM     21  C   UNL     1       3.871   5.519  17.479  0.00  0.00    +0.000 A 
ATOM     22  C   UNL     1       4.553   4.512  16.724  0.00  0.00    +0.000 A 
ATOM     23  C   UNL     1       5.798   4.692  16.146  0.00  0.00    +0.000 A 
ATOM     24  C   UNL     1       6.426   5.892  16.374  0.00  0.00    +0.000 A 
ATOM     25  C   UNL     1       5.839   6.868  17.181  0.00  0.00    +0.000 A 
ATOM     26  C   UNL     1       4.553   6.690  17.735  0.00  0.00    +0.000 A 
BRANCH  24  27
ATOM     27  O   UNL     1       7.633   6.148  15.786  0.00  0.00    +0.000 OA
ATOM     28  H   UNL     1       8.252   6.435  16.479  0.00  0.00    +0.000 HD
ENDBRANCH  24  27
ENDBRANCH   2  21
BRANCH   6  29
ATOM     29  O   UNL     1       4.124   0.448  18.443  0.00  0.00    +0.000 OA
ATOM     30  H   UNL     1       3.482  -0.281  18.462  0.00  0.00    +0.000 HD
ENDBRANCH   6  29
TORSDOF 5
ENDMDL
MODEL 3
REMARK VINA RESULT:      -8.7      0.339      1.002
REMARK  Name = 
REMARK  5 active torsions:
REMARK  status: ('A' for Active; 'I' for Inactive)
REMARK    1  A    between atoms: C_2  and  C_4
REMARK    2  A    between atoms: C_7  and  C_8
REMARK    3  A    between atoms: C_9  and  C_10
REMARK    4  A    between atoms: C_13  and  O_14
REMARK    5  A    between atoms: C_20  and  O_21
REMARK                            x       y       z     vdW  Elec       q    Type
REMARK                         _______ _______ _______ _____ _____    ______ ____
ROOT
ATOM      1  C   UNL     1       4.540   3.707  17.472  0.00  0.00    +0.000 C 
ATOM      2  C   UNL     1       4.812   4.346  18.641  0.00  0.00    +0.000 C 
ATOM      3  C   UNL     1       4.843   3.240  19.669  0.00  0.00    +0.000 C 
ATOM      4  C   UNL     1       3.533   2.597  19.301  0.00  0.00    +0.000 A 
ATOM      5  C   UNL     1       2.630   2.319  20.333  0.00  0.00    +0.000 A 
ATOM      6  C   UNL     1       1.341   2.759  20.144  0.00  0.00    +0.000 A 
ATOM      7  C   UNL     1       0.967   3.296  18.903  0.00  0.00    +0.000 A 
ATOM      8  C   UNL     1       1.885   3.377  17.797  0.00  0.00    +0.000 A 
ATOM      9  C   UNL     1       3.238   3.029  17.968  0.00  0.00    +0.000 A 
ENDROOT
BRANCH   1  13
ATOM     10  C   UNL     1       6.949   4.877  14.017  0.00  0.00    +0.000 A 
ATOM     11  C   UNL     1       5.641   4.459  13.912  0.00  0.00    +0.000 A 
ATOM     12  C   UNL     1       4.900   4.252  15.080  0.00  0.00    +0.000 A 
ATOM     13  C   UNL     1       5.432   4.329  16.424  0.00  0.00    +0.000 A 
ATOM     14  C   UNL     1       6.738   4.803  16.507  0.00  0.00    +0.000 A 
ATOM     15  C   UNL     1       7.484   5.064  15.315  0.00  0.00    +0.000 A 
BRANCH  10  17
ATOM     16  N   UNL     1       8.915   5.905  12.909  0.00  0.00    +0.000 N 
ATOM     17  C   UNL     1       7.808   5.102  12.809  0.00  0.00    +0.000 C 
ATOM     18  O   UNL     1       7.538   4.559  11.758  0.00  0.00    +0.000 OA
ATOM     19  H   UNL     1       9.457   6.025  12.057  0.00  0.00    +0.000 HD
ATOM     20  H   UNL     1       9.221   6.416  13.722  0.00  0.00    +0.000 HD
ENDBRANCH  10  17
ENDBRANCH   1  13
BRANCH   2  21
ATOM     21  C   UNL     1       4.046   5.655  18.783  0.00  0.00    +0.000 A 
ATOM     22  C   UNL     1       3.984   6.586  17.697  0.00  0.00    +0.000 A 
ATOM     23  C   UNL     1       3.086   7.638  17.634  0.00  0.00    +0.000 A 
ATOM     24  C   UNL     1       2.259   7.821  18.715  0.00  0.00    +0.000 A 
ATOM     25  C   UNL     1       2.349   6.995  19.836  0.00  0.00    +0.000 A 
ATOM     26  C   UNL     1       3.241   5.901  19.876  0.00  0.00    +0.000 A 
BRANCH  24  27
ATOM     27  O   UNL     1       1.317   8.811  18.688  0.00  0.00    +0.000 OA
ATOM     28  H   UNL     1       0.618   8.581  19.323  0.00  0.00    +0.000 HD
ENDBRANCH  24  27
ENDBRANCH   2  21
BRANCH   6  29
ATOM     29  O   UNL     1       0.471   2.809  21.199  0.00  0.00    +0.000 OA
ATOM     30  H   UNL     1      -0.316   2.282  20.988  0.00  0.00    +0.000 HD
ENDBRANCH   6  29
TORSDOF 5
ENDMDL
MODEL 4
REMARK VINA RESULT:      -8.3      3.207      6.325
REMARK  Name = 
REMARK  5 active torsions:
REMARK  status: ('A' for Active; 'I' for Inactive)
REMARK    1  A    between atoms: C_2  and  C_4
REMARK    2  A    between atoms: C_7  and  C_8
REMARK    3  A    between atoms: C_9  and  C_10
REMARK    4  A    between atoms: C_13  and  O_14
REMARK    5  A    between atoms: C_20  and  O_21
REMARK                            x       y       z     vdW  Elec       q    Type
REMARK                         _______ _______ _______ _____ _____    ______ ____
ROOT
ATOM      1  C   UNL     1       2.226   5.513  19.127  0.00  0.00    +0.000 C 
ATOM      2  C   UNL     1       2.314   5.163  17.816  0.00  0.00    +0.000 C 
ATOM      3  C   UNL     1       1.449   3.931  17.703  0.00  0.00    +0.000 C 
ATOM      4  C   UNL     1       2.043   3.172  18.859  0.00  0.00    +0.000 A 
ATOM      5  C   UNL     1       2.419   1.841  18.641  0.00  0.00    +0.000 A 
ATOM      6  C   UNL     1       3.689   1.498  19.040  0.00  0.00    +0.000 A 
ATOM      7  C   UNL     1       4.458   2.417  19.769  0.00  0.00    +0.000 A 
ATOM      8  C   UNL     1       3.950   3.711  20.146  0.00  0.00    +0.000 A 
ATOM      9  C   UNL     1       2.695   4.145  19.682  0.00  0.00    +0.000 A 
ENDROOT
BRANCH   1  13
ATOM     10  C   UNL     1       1.170   9.726  19.628  0.00  0.00    +0.000 A 
ATOM     11  C   UNL     1       1.181   8.826  20.672  0.00  0.00    +0.000 A 
ATOM     12  C   UNL     1       1.679   7.538  20.449  0.00  0.00    +0.000 A 
ATOM     13  C   UNL     1       2.087   7.016  19.163  0.00  0.00    +0.000 A 
ATOM     14  C   UNL     1       2.116   7.957  18.136  0.00  0.00    +0.000 A 
ATOM     15  C   UNL     1       1.655   9.290  18.372  0.00  0.00    +0.000 A 
BRANCH  10  17
ATOM     16  N   UNL     1       1.085  11.896  20.825  0.00  0.00    +0.000 N 
ATOM     17  C   UNL     1       0.635  11.117  19.789  0.00  0.00    +0.000 C 
ATOM     18  O   UNL     1      -0.171  11.558  18.997  0.00  0.00    +0.000 OA
ATOM     19  H   UNL     1       0.685  12.828  20.887  0.00  0.00    +0.000 HD
ATOM     20  H   UNL     1       1.735  11.628  21.547  0.00  0.00    +0.000 HD
ENDBRANCH  10  17
ENDBRANCH   1  13
BRANCH   2  21
ATOM     21  C   UNL     1       3.730   5.295  17.270  0.00  0.00    +0.000 A 
ATOM     22  C   UNL     1       4.634   6.264  17.812  0.00  0.00    +0.000 A 
ATOM     23  C   UNL     1       6.000   6.255  17.588  0.00  0.00    +0.000 A 
ATOM     24  C   UNL     1       6.488   5.290  16.741  0.00  0.00    +0.000 A 
ATOM     25  C   UNL     1       5.632   4.383  16.115  0.00  0.00    +0.000 A 
ATOM     26  C   UNL     1       4.245   4.376  16.380  0.00  0.00    +0.000 A 
BRANCH  24  27
ATOM     27  O   UNL     1       7.834   5.199  16.521  0.00  0.00    +0.000 OA
ATOM     28  H   UNL     1       7.977   4.622  15.752  0.00  0.00    +0.000 HD
ENDBRANCH  24  27
ENDBRANCH   2  21
BRANCH   6  29
ATOM     29  O   UNL     1       4.253   0.329  18.605  0.00  0.00    +0.000 OA
ATOM     30  H   UNL     1       3.773  -0.420  18.994  0.00  0.00    +0.000 HD
ENDBRANCH   6  29
TORSDOF 5
ENDMDL
MODEL 5
REMARK VINA RESULT:      -7.7      2.842      5.858
REMARK  Name = 
REMARK  5 active torsions:
REMARK  status: ('A' for Active; 'I' for Inactive)
REMARK    1  A    between atoms: C_2  and  C_4
REMARK    2  A    between atoms: C_7  and  C_8
REMARK    3  A    between atoms: C_9  and  C_10
REMARK    4  A    between atoms: C_13  and  O_14
REMARK    5  A    between atoms: C_20  and  O_21
REMARK                            x       y       z     vdW  Elec       q    Type
REMARK                         _______ _______ _______ _____ _____    ______ ____
ROOT
ATOM      1  C   UNL     1       1.969   5.451  19.029  0.00  0.00    +0.000 C 
ATOM      2  C   UNL     1       2.358   5.222  17.747  0.00  0.00    +0.000 C 
ATOM      3  C   UNL     1       1.633   3.955  17.361  0.00  0.00    +0.000 C 
ATOM      4  C   UNL     1       2.026   3.135  18.560  0.00  0.00    +0.000 A 
ATOM      5  C   UNL     1       2.540   1.852  18.334  0.00  0.00    +0.000 A 
ATOM      6  C   UNL     1       3.721   1.553  18.973  0.00  0.00    +0.000 A 
ATOM      7  C   UNL     1       4.246   2.449  19.915  0.00  0.00    +0.000 A 
ATOM      8  C   UNL     1       3.573   3.673  20.264  0.00  0.00    +0.000 A 
ATOM      9  C   UNL     1       2.414   4.070  19.572  0.00  0.00    +0.000 A 
ENDROOT
BRANCH   1  13
ATOM     10  C   UNL     1       1.700   9.805  18.742  0.00  0.00    +0.000 A 
ATOM     11  C   UNL     1       1.534   8.971  17.659  0.00  0.00    +0.000 A 
ATOM     12  C   UNL     1       1.484   7.589  17.871  0.00  0.00    +0.000 A 
ATOM     13  C   UNL     1       1.711   6.935  19.142  0.00  0.00    +0.000 A 
ATOM     14  C   UNL     1       1.825   7.799  20.228  0.00  0.00    +0.000 A 
ATOM     15  C   UNL     1       1.826   9.214  20.022  0.00  0.00    +0.000 A 
BRANCH  10  17
ATOM     16  N   UNL     1       2.492  11.826  17.543  0.00  0.00    +0.000 N 
ATOM     17  C   UNL     1       1.781  11.294  18.589  0.00  0.00    +0.000 C 
ATOM     18  O   UNL     1       1.203  12.022  19.368  0.00  0.00    +0.000 OA
ATOM     19  H   UNL     1       2.515  12.841  17.491  0.00  0.00    +0.000 HD
ATOM     20  H   UNL     1       3.022  11.320  16.851  0.00  0.00    +0.000 HD
ENDBRANCH  10  17
ENDBRANCH   1  13
BRANCH   2  21
ATOM     21  C   UNL     1       3.843   5.485  17.530  0.00  0.00    +0.000 A 
ATOM     22  C   UNL     1       4.652   4.548  16.810  0.00  0.00    +0.000 A 
ATOM     23  C   UNL     1       5.914   4.837  16.320  0.00  0.00    +0.000 A 
ATOM     24  C   UNL     1       6.427   6.078  16.606  0.00  0.00    +0.000 A 
ATOM     25  C   UNL     1       5.713   6.990  17.385  0.00  0.00    +0.000 A 
ATOM     26  C   UNL     1       4.411   6.700  17.848  0.00  0.00    +0.000 A 
BRANCH  24  27
ATOM     27  O   UNL     1       7.647   6.440  16.105  0.00  0.00    +0.000 OA
ATOM     28  H   UNL     1       7.824   7.358  16.373  0.00  0.00    +0.000 HD
ENDBRANCH  24  27
ENDBRANCH   2  21
BRANCH   6  29
ATOM     29  O   UNL     1       4.451   0.462  18.587  0.00  0.00    +0.000 OA
ATOM     30  H   UNL     1       4.333   0.321  17.633  0.00  0.00    +0.000 HD
ENDBRANCH   6  29
TORSDOF 5
ENDMDL
MODEL 6
REMARK VINA RESULT:      -7.6      3.202      6.952
REMARK  Name = 
REMARK  5 active torsions:
REMARK  status: ('A' for Active; 'I' for Inactive)
REMARK    1  A    between atoms: C_2  and  C_4
REMARK    2  A    between atoms: C_7  and  C_8
REMARK    3  A    between atoms: C_9  and  C_10
REMARK    4  A    between atoms: C_13  and  O_14
REMARK    5  A    between atoms: C_20  and  O_21
REMARK                            x       y       z     vdW  Elec       q    Type
REMARK                         _______ _______ _______ _____ _____    ______ ____
ROOT
ATOM      1  C   UNL     1       3.881   7.031  18.203  0.00  0.00    +0.000 C 
ATOM      2  C   UNL     1       4.078   5.941  18.991  0.00  0.00    +0.000 C 
ATOM      3  C   UNL     1       5.569   5.919  19.228  0.00  0.00    +0.000 C 
ATOM      4  C   UNL     1       5.994   6.055  17.791  0.00  0.00    +0.000 A 
ATOM      5  C   UNL     1       6.956   5.160  17.307  0.00  0.00    +0.000 A 
ATOM      6  C   UNL     1       6.649   4.520  16.129  0.00  0.00    +0.000 A 
ATOM      7  C   UNL     1       5.509   4.903  15.409  0.00  0.00    +0.000 A 
ATOM      8  C   UNL     1       4.652   5.974  15.847  0.00  0.00    +0.000 A 
ATOM      9  C   UNL     1       4.868   6.595  17.091  0.00  0.00    +0.000 A 
ENDROOT
BRANCH   1  13
ATOM     10  C   UNL     1       0.609   9.671  19.399  0.00  0.00    +0.000 A 
ATOM     11  C   UNL     1       1.109   9.631  18.116  0.00  0.00    +0.000 A 
ATOM     12  C   UNL     1       2.050   8.650  17.786  0.00  0.00    +0.000 A 
ATOM     13  C   UNL     1       2.644   7.722  18.725  0.00  0.00    +0.000 A 
ATOM     14  C   UNL     1       2.086   7.747  20.000  0.00  0.00    +0.000 A 
ATOM     15  C   UNL     1       1.087   8.717  20.327  0.00  0.00    +0.000 A 
BRANCH  10  17
ATOM     16  N   UNL     1      -0.239  11.323  21.043  0.00  0.00    +0.000 N 
ATOM     17  C   UNL     1      -0.388  10.706  19.827  0.00  0.00    +0.000 C 
ATOM     18  O   UNL     1      -1.306  11.011  19.095  0.00  0.00    +0.000 OA
ATOM     19  H   UNL     1      -0.946  12.013  21.282  0.00  0.00    +0.000 HD
ATOM     20  H   UNL     1       0.471  11.137  21.734  0.00  0.00    +0.000 HD
ENDBRANCH  10  17
ENDBRANCH   1  13
BRANCH   2  21
ATOM     21  C   UNL     1       3.241   4.745  18.554  0.00  0.00    +0.000 A 
ATOM     22  C   UNL     1       3.658   3.411  18.862  0.00  0.00    +0.000 A 
ATOM     23  C   UNL     1       2.832   2.304  18.769  0.00  0.00    +0.000 A 
ATOM     24  C   UNL     1       1.561   2.510  18.290  0.00  0.00    +0.000 A 
ATOM     25  C   UNL     1       1.141   3.779  17.889  0.00  0.00    +0.000 A 
ATOM     26  C   UNL     1       1.978   4.908  18.024  0.00  0.00    +0.000 A 
BRANCH  24  27
ATOM     27  O   UNL     1       0.683   1.464  18.224  0.00  0.00    +0.000 OA
ATOM     28  H   UNL     1       1.075   0.776  17.660  0.00  0.00    +0.000 HD
ENDBRANCH  24  27
ENDBRANCH   2  21
BRANCH   6  29
ATOM     29  O   UNL     1       7.368   3.422  15.738  0.00  0.00    +0.000 OA
ATOM     30  H   UNL     1       8.315   3.610  15.838  0.00  0.00    +0.000 HD
ENDBRANCH   6  29
TORSDOF 5
ENDMDL
MODEL 7
REMARK VINA RESULT:      -7.6      0.953      1.361
REMARK  Name = 
REMARK  5 active torsions:
REMARK  status: ('A' for Active; 'I' for Inactive)
REMARK    1  A    between atoms: C_2  and  C_4
REMARK    2  A    between atoms: C_7  and  C_8
REMARK    3  A    between atoms: C_9  and  C_10
REMARK    4  A    between atoms: C_13  and  O_14
REMARK    5  A    between atoms: C_20  and  O_21
REMARK                            x       y       z     vdW  Elec       q    Type
REMARK                         _______ _______ _______ _____ _____    ______ ____
ROOT
ATOM      1  C   UNL     1       4.710   3.316  17.178  0.00  0.00    +0.000 C 
ATOM      2  C   UNL     1       4.921   4.290  18.103  0.00  0.00    +0.000 C 
ATOM      3  C   UNL     1       5.017   3.543  19.411  0.00  0.00    +0.000 C 
ATOM      4  C   UNL     1       3.760   2.730  19.262  0.00  0.00    +0.000 A 
ATOM      5  C   UNL     1       2.864   2.708  20.338  0.00  0.00    +0.000 A 
ATOM      6  C   UNL     1       1.550   2.980  20.037  0.00  0.00    +0.000 A 
ATOM      7  C   UNL     1       1.156   3.098  18.696  0.00  0.00    +0.000 A 
ATOM      8  C   UNL     1       2.081   2.912  17.608  0.00  0.00    +0.000 A 
ATOM      9  C   UNL     1       3.452   2.726  17.863  0.00  0.00    +0.000 A 
ENDROOT
BRANCH   1  13
ATOM     10  C   UNL     1       7.315   4.993  14.094  0.00  0.00    +0.000 A 
ATOM     11  C   UNL     1       7.638   4.999  15.433  0.00  0.00    +0.000 A 
ATOM     12  C   UNL     1       6.819   4.306  16.330  0.00  0.00    +0.000 A 
ATOM     13  C   UNL     1       5.569   3.662  15.986  0.00  0.00    +0.000 A 
ATOM     14  C   UNL     1       5.292   3.623  14.621  0.00  0.00    +0.000 A 
ATOM     15  C   UNL     1       6.154   4.289  13.695  0.00  0.00    +0.000 A 
BRANCH  10  17
ATOM     16  N   UNL     1       7.623   5.946  11.825  0.00  0.00    +0.000 N 
ATOM     17  C   UNL     1       8.137   5.728  13.078  0.00  0.00    +0.000 C 
ATOM     18  O   UNL     1       9.237   6.147  13.369  0.00  0.00    +0.000 OA
ATOM     19  H   UNL     1       8.226   6.446  11.177  0.00  0.00    +0.000 HD
ATOM     20  H   UNL     1       6.733   5.629  11.472  0.00  0.00    +0.000 HD
ENDBRANCH  10  17
ENDBRANCH   1  13
BRANCH   2  21
ATOM     21  C   UNL     1       4.065   5.526  17.858  0.00  0.00    +0.000 A 
ATOM     22  C   UNL     1       3.135   5.978  18.848  0.00  0.00    +0.000 A 
ATOM     23  C   UNL     1       2.544   7.230  18.837  0.00  0.00    +0.000 A 
ATOM     24  C   UNL     1       2.830   8.047  17.771  0.00  0.00    +0.000 A 
ATOM     25  C   UNL     1       3.657   7.613  16.734  0.00  0.00    +0.000 A 
ATOM     26  C   UNL     1       4.286   6.349  16.773  0.00  0.00    +0.000 A 
BRANCH  24  27
ATOM     27  O   UNL     1       2.317   9.313  17.731  0.00  0.00    +0.000 OA
ATOM     28  H   UNL     1       2.698   9.770  16.962  0.00  0.00    +0.000 HD
ENDBRANCH  24  27
ENDBRANCH   2  21
BRANCH   6  29
ATOM     29  O   UNL     1       0.666   3.279  21.038  0.00  0.00    +0.000 OA
ATOM     30  H   UNL     1       0.492   2.478  21.559  0.00  0.00    +0.000 HD
ENDBRANCH   6  29
TORSDOF 5
ENDMDL
MODEL 8
REMARK VINA RESULT:      -7.5      3.668      6.327
REMARK  Name = 
REMARK  5 active torsions:
REMARK  status: ('A' for Active; 'I' for Inactive)
REMARK    1  A    between atoms: C_2  and  C_4
REMARK    2  A    between atoms: C_7  and  C_8
REMARK    3  A    between atoms: C_9  and  C_10
REMARK    4  A    between atoms: C_13  and  O_14
REMARK    5  A    between atoms: C_20  and  O_21
REMARK                            x       y       z     vdW  Elec       q    Type
REMARK                         _______ _______ _______ _____ _____    ______ ____
ROOT
ATOM      1  C   UNL     1       2.363   5.522  18.759  0.00  0.00    +0.000 C 
ATOM      2  C   UNL     1       3.123   5.337  17.647  0.00  0.00    +0.000 C 
ATOM      3  C   UNL     1       2.477   4.165  16.948  0.00  0.00    +0.000 C 
ATOM      4  C   UNL     1       2.414   3.243  18.136  0.00  0.00    +0.000 A 
ATOM      5  C   UNL     1       2.889   1.935  17.972  0.00  0.00    +0.000 A 
ATOM      6  C   UNL     1       3.783   1.494  18.919  0.00  0.00    +0.000 A 
ATOM      7  C   UNL     1       4.040   2.281  20.050  0.00  0.00    +0.000 A 
ATOM      8  C   UNL     1       3.372   3.537  20.276  0.00  0.00    +0.000 A 
ATOM      9  C   UNL     1       2.521   4.077  19.294  0.00  0.00    +0.000 A 
ENDROOT
BRANCH   1  13
ATOM     10  C   UNL     1       1.199   9.650  19.607  0.00  0.00    +0.000 A 
ATOM     11  C   UNL     1       1.271   8.676  20.579  0.00  0.00    +0.000 A 
ATOM     12  C   UNL     1       1.799   7.425  20.246  0.00  0.00    +0.000 A 
ATOM     13  C   UNL     1       2.181   7.013  18.912  0.00  0.00    +0.000 A 
ATOM     14  C   UNL     1       2.149   8.028  17.959  0.00  0.00    +0.000 A 
ATOM     15  C   UNL     1       1.656   9.325  18.308  0.00  0.00    +0.000 A 
BRANCH  10  17
ATOM     16  N   UNL     1      -0.599  11.110  20.492  0.00  0.00    +0.000 N 
ATOM     17  C   UNL     1       0.628  11.007  19.888  0.00  0.00    +0.000 C 
ATOM     18  O   UNL     1       1.256  12.006  19.604  0.00  0.00    +0.000 OA
ATOM     19  H   UNL     1      -0.937  12.055  20.655  0.00  0.00    +0.000 HD
ATOM     20  H   UNL     1      -1.211  10.353  20.754  0.00  0.00    +0.000 HD
ENDBRANCH  10  17
ENDBRANCH   1  13
BRANCH   2  21
ATOM     21  C   UNL     1       4.614   5.479  17.927  0.00  0.00    +0.000 A 
ATOM     22  C   UNL     1       5.481   6.091  16.967  0.00  0.00    +0.000 A 
ATOM     23  C   UNL     1       6.766   6.522  17.252  0.00  0.00    +0.000 A 
ATOM     24  C   UNL     1       7.240   6.280  18.518  0.00  0.00    +0.000 A 
ATOM     25  C   UNL     1       6.463   5.602  19.459  0.00  0.00    +0.000 A 
ATOM     26  C   UNL     1       5.140   5.201  19.171  0.00  0.00    +0.000 A 
BRANCH  24  27
ATOM     27  O   UNL     1       8.481   6.728  18.875  0.00  0.00    +0.000 OA
ATOM     28  H   UNL     1       9.059   6.669  18.095  0.00  0.00    +0.000 HD
ENDBRANCH  24  27
ENDBRANCH   2  21
BRANCH   6  29
ATOM     29  O   UNL     1       4.526   0.367  18.688  0.00  0.00    +0.000 OA
ATOM     30  H   UNL     1       5.441   0.625  18.490  0.00  0.00    +0.000 HD
ENDBRANCH   6  29
TORSDOF 5
ENDMDL
MODEL 9
REMARK VINA RESULT:      -7.1      5.064      8.286
REMARK  Name = 
REMARK  5 active torsions:
REMARK  status: ('A' for Active; 'I' for Inactive)
REMARK    1  A    between atoms: C_2  and  C_4
REMARK    2  A    between atoms: C_7  and  C_8
REMARK    3  A    between atoms: C_9  and  C_10
REMARK    4  A    between atoms: C_13  and  O_14
REMARK    5  A    between atoms: C_20  and  O_21
REMARK                            x       y       z     vdW  Elec       q    Type
REMARK                         _______ _______ _______ _____ _____    ______ ____
ROOT
ATOM      1  C   UNL     1       0.785  10.551  20.379  0.00  0.00    +0.000 C 
ATOM      2  C   UNL     1       0.236  11.492  19.565  0.00  0.00    +0.000 C 
ATOM      3  C   UNL     1       0.698  12.804  20.152  0.00  0.00    +0.000 C 
ATOM      4  C   UNL     1       0.297  12.530  21.576  0.00  0.00    +0.000 A 
ATOM      5  C   UNL     1      -0.444  13.511  22.247  0.00  0.00    +0.000 A 
ATOM      6  C   UNL     1      -1.587  13.080  22.878  0.00  0.00    +0.000 A 
ATOM      7  C   UNL     1      -1.858  11.707  22.959  0.00  0.00    +0.000 A 
ATOM      8  C   UNL     1      -0.959  10.717  22.426  0.00  0.00    +0.000 A 
ATOM      9  C   UNL     1       0.174  11.108  21.689  0.00  0.00    +0.000 A 
ENDROOT
BRANCH   1  13
ATOM     10  C   UNL     1       2.741   7.197  18.370  0.00  0.00    +0.000 A 
ATOM     11  C   UNL     1       2.239   7.115  19.650  0.00  0.00    +0.000 A 
ATOM     12  C   UNL     1       1.495   8.186  20.156  0.00  0.00    +0.000 A 
ATOM     13  C   UNL     1       1.296   9.451  19.480  0.00  0.00    +0.000 A 
ATOM     14  C   UNL     1       1.767   9.490  18.170  0.00  0.00    +0.000 A 
ATOM     15  C   UNL     1       2.485   8.377  17.631  0.00  0.00    +0.000 A 
BRANCH  10  17
ATOM     16  N   UNL     1       3.046   4.825  17.714  0.00  0.00    +0.000 N 
ATOM     17  C   UNL     1       3.561   6.095  17.769  0.00  0.00    +0.000 C 
ATOM     18  O   UNL     1       4.662   6.329  17.317  0.00  0.00    +0.000 OA
ATOM     19  H   UNL     1       3.648   4.118  17.300  0.00  0.00    +0.000 HD
ATOM     20  H   UNL     1       2.156   4.516  18.073  0.00  0.00    +0.000 HD
ENDBRANCH  10  17
ENDBRANCH   1  13
BRANCH   2  21
ATOM     21  C   UNL     1      -1.198  11.161  19.174  0.00  0.00    +0.000 A 
ATOM     22  C   UNL     1      -2.248  12.114  19.375  0.00  0.00    +0.000 A 
ATOM     23  C   UNL     1      -3.499  12.018  18.791  0.00  0.00    +0.000 A 
ATOM     24  C   UNL     1      -3.750  10.903  18.030  0.00  0.00    +0.000 A 
ATOM     25  C   UNL     1      -2.789   9.902  17.882  0.00  0.00    +0.000 A 
ATOM     26  C   UNL     1      -1.502  10.027  18.450  0.00  0.00    +0.000 A 
BRANCH  24  27
ATOM     27  O   UNL     1      -4.949  10.778  17.385  0.00  0.00    +0.000 OA
ATOM     28  H   UNL     1      -4.772  10.547  16.458  0.00  0.00    +0.000 HD
ENDBRANCH  24  27
ENDBRANCH   2  21
BRANCH   6  29
ATOM     29  O   UNL     1      -2.524  13.987  23.293  0.00  0.00    +0.000 OA
ATOM     30  H   UNL     1      -3.071  14.250  22.535  0.00  0.00    +0.000 HD
ENDBRANCH   6  29
TORSDOF 5
ENDMDL
