MODEL 1
REMARK VINA RESULT:      -7.3      0.000      0.000
REMARK  Name = 
REMARK  5 active torsions:
REMARK  status: ('A' for Active; 'I' for Inactive)
REMARK    1  A    between atoms: C_1  and  O_2
REMARK    2  A    between atoms: O_2  and  C_3
REMARK    3  A    between atoms: C_6  and  C_7
REMARK    4  A    between atoms: C_15  and  O_16
REMARK    5  A    between atoms: O_16  and  C_17
REMARK                            x       y       z     vdW  Elec       q    Type
REMARK                         _______ _______ _______ _____ _____    ______ ____
ROOT
ATOM      1  C   UNL     1       6.101   6.115  16.884  0.00  0.00    +0.000 A 
ATOM      2  C   UNL     1       6.102   4.726  16.768  0.00  0.00    +0.000 A 
ATOM      3  C   UNL     1       4.947   3.993  17.043  0.00  0.00    +0.000 A 
ATOM      4  C   UNL     1       3.769   4.647  17.433  0.00  0.00    +0.000 A 
ATOM      5  C   UNL     1       3.760   6.049  17.553  0.00  0.00    +0.000 A 
ATOM      6  C   UNL     1       4.932   6.769  17.283  0.00  0.00    +0.000 A 
ENDROOT
BRANCH   4   7
ATOM      7  C   UNL     1       2.588   3.825  17.724  0.00  0.00    +0.000 C 
ATOM      8  C   UNL     1       2.289   3.359  18.946  0.00  0.00    +0.000 C 
ATOM      9  C   UNL     1       3.009   3.531  20.243  0.00  0.00    +0.000 C 
ATOM     10  C   UNL     1       1.973   3.014  21.212  0.00  0.00    +0.000 C 
ATOM     11  O   UNL     1       2.029   3.112  22.429  0.00  0.00    +0.000 OA
ATOM     12  N   UNL     1       0.959   2.421  20.531  0.00  0.00    +0.000 N 
ATOM     13  C   UNL     1       1.032   2.617  19.195  0.00  0.00    +0.000 C 
ATOM     14  O   UNL     1       0.196   2.303  18.366  0.00  0.00    +0.000 OA
ATOM     15  H   UNL     1       0.150   2.023  20.979  0.00  0.00    +0.000 HD
ENDBRANCH   4   7
BRANCH   1  17
ATOM     16  C   UNL     1       7.730   7.746  17.469  0.00  0.00    +0.000 C 
ATOM     17  O   UNL     1       7.288   6.725  16.580  0.00  0.00    +0.000 OA
ENDBRANCH   1  17
BRANCH   5  18
ATOM     18  O   UNL     1       2.573   6.627  17.932  0.00  0.00    +0.000 OA
ATOM     19  C   UNL     1       2.504   7.169  19.247  0.00  0.00    +0.000 C 
ENDBRANCH   5  18
TORSDOF 3
ENDMDL
MODEL 2
REMARK VINA RESULT:      -7.1      2.665      6.111
REMARK  Name = 
REMARK  5 active torsions:
REMARK  status: ('A' for Active; 'I' for Inactive)
REMARK    1  A    between atoms: C_1  and  O_2
REMARK    2  A    between atoms: O_2  and  C_3
REMARK    3  A    between atoms: C_6  and  C_7
REMARK    4  A    between atoms: C_15  and  O_16
REMARK    5  A    between atoms: O_16  and  C_17
REMARK                            x       y       z     vdW  Elec       q    Type
REMARK                         _______ _______ _______ _____ _____    ______ ____
ROOT
ATOM      1  C   UNL     1       2.282   3.298  19.764  0.00  0.00    +0.000 A 
ATOM      2  C   UNL     1       3.586   2.816  19.851  0.00  0.00    +0.000 A 
ATOM      3  C   UNL     1       4.637   3.505  19.244  0.00  0.00    +0.000 A 
ATOM      4  C   UNL     1       4.393   4.696  18.544  0.00  0.00    +0.000 A 
ATOM      5  C   UNL     1       3.078   5.189  18.451  0.00  0.00    +0.000 A 
ATOM      6  C   UNL     1       2.033   4.478  19.058  0.00  0.00    +0.000 A 
ENDROOT
BRANCH   4   7
ATOM      7  C   UNL     1       5.533   5.371  17.912  0.00  0.00    +0.000 C 
ATOM      8  C   UNL     1       6.059   4.999  16.736  0.00  0.00    +0.000 C 
ATOM      9  C   UNL     1       5.667   3.890  15.816  0.00  0.00    +0.000 C 
ATOM     10  C   UNL     1       6.468   4.247  14.586  0.00  0.00    +0.000 C 
ATOM     11  O   UNL     1       6.349   3.728  13.487  0.00  0.00    +0.000 OA
ATOM     12  N   UNL     1       7.346   5.241  14.880  0.00  0.00    +0.000 N 
ATOM     13  C   UNL     1       7.147   5.780  16.104  0.00  0.00    +0.000 C 
ATOM     14  O   UNL     1       7.706   6.757  16.569  0.00  0.00    +0.000 OA
ATOM     15  H   UNL     1       7.968   5.647  14.201  0.00  0.00    +0.000 HD
ENDBRANCH   4   7
BRANCH   1  17
ATOM     16  C   UNL     1       1.373   2.545  21.829  0.00  0.00    +0.000 C 
ATOM     17  O   UNL     1       1.338   2.543  20.405  0.00  0.00    +0.000 OA
ENDBRANCH   1  17
BRANCH   5  18
ATOM     18  O   UNL     1       2.909   6.362  17.757  0.00  0.00    +0.000 OA
ATOM     19  C   UNL     1       2.471   7.498  18.496  0.00  0.00    +0.000 C 
ENDBRANCH   5  18
TORSDOF 3
ENDMDL
MODEL 3
REMARK VINA RESULT:      -6.8      2.449      5.775
REMARK  Name = 
REMARK  5 active torsions:
REMARK  status: ('A' for Active; 'I' for Inactive)
REMARK    1  A    between atoms: C_1  and  O_2
REMARK    2  A    between atoms: O_2  and  C_3
REMARK    3  A    between atoms: C_6  and  C_7
REMARK    4  A    between atoms: C_15  and  O_16
REMARK    5  A    between atoms: O_16  and  C_17
REMARK                            x       y       z     vdW  Elec       q    Type
REMARK                         _______ _______ _______ _____ _____    ______ ____
ROOT
ATOM      1  C   UNL     1       1.834   3.109  19.507  0.00  0.00    +0.000 A 
ATOM      2  C   UNL     1       2.825   2.290  18.970  0.00  0.00    +0.000 A 
ATOM      3  C   UNL     1       3.722   2.793  18.027  0.00  0.00    +0.000 A 
ATOM      4  C   UNL     1       3.640   4.130  17.612  0.00  0.00    +0.000 A 
ATOM      5  C   UNL     1       2.641   4.963  18.149  0.00  0.00    +0.000 A 
ATOM      6  C   UNL     1       1.741   4.439  19.089  0.00  0.00    +0.000 A 
ENDROOT
BRANCH   4   7
ATOM      7  C   UNL     1       4.599   4.600  16.606  0.00  0.00    +0.000 C 
ATOM      8  C   UNL     1       5.627   5.417  16.882  0.00  0.00    +0.000 C 
ATOM      9  C   UNL     1       6.049   6.024  18.180  0.00  0.00    +0.000 C 
ATOM     10  C   UNL     1       7.413   6.558  17.810  0.00  0.00    +0.000 C 
ATOM     11  O   UNL     1       8.240   6.995  18.596  0.00  0.00    +0.000 OA
ATOM     12  N   UNL     1       7.591   6.479  16.466  0.00  0.00    +0.000 N 
ATOM     13  C   UNL     1       6.617   5.779  15.843  0.00  0.00    +0.000 C 
ATOM     14  O   UNL     1       6.592   5.454  14.669  0.00  0.00    +0.000 OA
ATOM     15  H   UNL     1       8.438   6.764  16.004  0.00  0.00    +0.000 HD
ENDBRANCH   4   7
BRANCH   1  17
ATOM     16  C   UNL     1       1.442   2.559  21.788  0.00  0.00    +0.000 C 
ATOM     17  O   UNL     1       1.019   2.508  20.429  0.00  0.00    +0.000 OA
ENDBRANCH   1  17
BRANCH   5  18
ATOM     18  O   UNL     1       2.620   6.262  17.706  0.00  0.00    +0.000 OA
ATOM     19  C   UNL     1       2.472   7.283  18.688  0.00  0.00    +0.000 C 
ENDBRANCH   5  18
TORSDOF 3
ENDMDL
MODEL 4
REMARK VINA RESULT:      -6.8      2.095      3.238
REMARK  Name = 
REMARK  5 active torsions:
REMARK  status: ('A' for Active; 'I' for Inactive)
REMARK    1  A    between atoms: C_1  and  O_2
REMARK    2  A    between atoms: O_2  and  C_3
REMARK    3  A    between atoms: C_6  and  C_7
REMARK    4  A    between atoms: C_15  and  O_16
REMARK    5  A    between atoms: O_16  and  C_17
REMARK                            x       y       z     vdW  Elec       q    Type
REMARK                         _______ _______ _______ _____ _____    ______ ____
ROOT
ATOM      1  C   UNL     1       6.890   5.000  15.323  0.00  0.00    +0.000 A 
ATOM      2  C   UNL     1       5.604   4.536  15.051  0.00  0.00    +0.000 A 
ATOM      3  C   UNL     1       4.769   4.118  16.088  0.00  0.00    +0.000 A 
ATOM      4  C   UNL     1       5.212   4.165  17.418  0.00  0.00    +0.000 A 
ATOM      5  C   UNL     1       6.510   4.632  17.701  0.00  0.00    +0.000 A 
ATOM      6  C   UNL     1       7.339   5.039  16.646  0.00  0.00    +0.000 A 
ENDROOT
BRANCH   4   7
ATOM      7  C   UNL     1       4.299   3.698  18.467  0.00  0.00    +0.000 C 
ATOM      8  C   UNL     1       3.571   4.519  19.239  0.00  0.00    +0.000 C 
ATOM      9  C   UNL     1       3.492   6.011  19.248  0.00  0.00    +0.000 C 
ATOM     10  C   UNL     1       2.288   6.223  20.134  0.00  0.00    +0.000 C 
ATOM     11  O   UNL     1       1.713   7.288  20.306  0.00  0.00    +0.000 OA
ATOM     12  N   UNL     1       1.930   5.050  20.717  0.00  0.00    +0.000 N 
ATOM     13  C   UNL     1       2.595   3.985  20.215  0.00  0.00    +0.000 C 
ATOM     14  O   UNL     1       2.386   2.812  20.468  0.00  0.00    +0.000 OA
ATOM     15  H   UNL     1       1.140   4.958  21.334  0.00  0.00    +0.000 HD
ENDBRANCH   4   7
BRANCH   1  17
ATOM     16  C   UNL     1       7.296   4.757  12.992  0.00  0.00    +0.000 C 
ATOM     17  O   UNL     1       7.612   5.390  14.228  0.00  0.00    +0.000 OA
ENDBRANCH   1  17
BRANCH   5  18
ATOM     18  O   UNL     1       6.879   4.659  19.023  0.00  0.00    +0.000 OA
ATOM     19  C   UNL     1       7.665   5.765  19.457  0.00  0.00    +0.000 C 
ENDBRANCH   5  18
TORSDOF 3
ENDMDL
MODEL 5
REMARK VINA RESULT:      -6.7      2.016      3.156
REMARK  Name = 
REMARK  5 active torsions:
REMARK  status: ('A' for Active; 'I' for Inactive)
REMARK    1  A    between atoms: C_1  and  O_2
REMARK    2  A    between atoms: O_2  and  C_3
REMARK    3  A    between atoms: C_6  and  C_7
REMARK    4  A    between atoms: C_15  and  O_16
REMARK    5  A    between atoms: O_16  and  C_17
REMARK                            x       y       z     vdW  Elec       q    Type
REMARK                         _______ _______ _______ _____ _____    ______ ____
ROOT
ATOM      1  C   UNL     1       6.835   5.276  15.800  0.00  0.00    +0.000 A 
ATOM      2  C   UNL     1       5.512   5.598  15.505  0.00  0.00    +0.000 A 
ATOM      3  C   UNL     1       4.569   5.719  16.526  0.00  0.00    +0.000 A 
ATOM      4  C   UNL     1       4.943   5.522  17.863  0.00  0.00    +0.000 A 
ATOM      5  C   UNL     1       6.277   5.195  18.170  0.00  0.00    +0.000 A 
ATOM      6  C   UNL     1       7.210   5.069  17.130  0.00  0.00    +0.000 A 
ENDROOT
BRANCH   4   7
ATOM      7  C   UNL     1       3.907   5.646  18.895  0.00  0.00    +0.000 C 
ATOM      8  C   UNL     1       2.816   4.868  18.952  0.00  0.00    +0.000 C 
ATOM      9  C   UNL     1       2.385   3.751  18.057  0.00  0.00    +0.000 C 
ATOM     10  C   UNL     1       1.262   3.155  18.872  0.00  0.00    +0.000 C 
ATOM     11  O   UNL     1       0.700   2.096  18.637  0.00  0.00    +0.000 OA
ATOM     12  N   UNL     1       0.965   3.972  19.916  0.00  0.00    +0.000 N 
ATOM     13  C   UNL     1       1.855   4.977  20.073  0.00  0.00    +0.000 C 
ATOM     14  O   UNL     1       1.898   5.775  20.992  0.00  0.00    +0.000 OA
ATOM     15  H   UNL     1       0.258   3.759  20.600  0.00  0.00    +0.000 HD
ENDBRANCH   4   7
BRANCH   1  17
ATOM     16  C   UNL     1       7.095   4.739  13.498  0.00  0.00    +0.000 C 
ATOM     17  O   UNL     1       7.670   5.194  14.718  0.00  0.00    +0.000 OA
ENDBRANCH   1  17
BRANCH   5  18
ATOM     18  O   UNL     1       6.579   5.022  19.498  0.00  0.00    +0.000 OA
ATOM     19  C   UNL     1       7.833   5.523  19.952  0.00  0.00    +0.000 C 
ENDBRANCH   5  18
TORSDOF 3
ENDMDL
MODEL 6
REMARK VINA RESULT:      -6.7      1.060      1.259
REMARK  Name = 
REMARK  5 active torsions:
REMARK  status: ('A' for Active; 'I' for Inactive)
REMARK    1  A    between atoms: C_1  and  O_2
REMARK    2  A    between atoms: O_2  and  C_3
REMARK    3  A    between atoms: C_6  and  C_7
REMARK    4  A    between atoms: C_15  and  O_16
REMARK    5  A    between atoms: O_16  and  C_17
REMARK                            x       y       z     vdW  Elec       q    Type
REMARK                         _______ _______ _______ _____ _____    ______ ____
ROOT
ATOM      1  C   UNL     1       6.075   5.263  16.062  0.00  0.00    +0.000 A 
ATOM      2  C   UNL     1       5.782   3.912  15.889  0.00  0.00    +0.000 A 
ATOM      3  C   UNL     1       4.592   3.379  16.385  0.00  0.00    +0.000 A 
ATOM      4  C   UNL     1       3.674   4.197  17.059  0.00  0.00    +0.000 A 
ATOM      5  C   UNL     1       3.963   5.563  17.238  0.00  0.00    +0.000 A 
ATOM      6  C   UNL     1       5.168   6.081  16.741  0.00  0.00    +0.000 A 
ENDROOT
BRANCH   4   7
ATOM      7  C   UNL     1       2.446   3.580  17.573  0.00  0.00    +0.000 C 
ATOM      8  C   UNL     1       2.261   3.251  18.859  0.00  0.00    +0.000 C 
ATOM      9  C   UNL     1       3.173   3.408  20.032  0.00  0.00    +0.000 C 
ATOM     10  C   UNL     1       2.223   3.118  21.170  0.00  0.00    +0.000 C 
ATOM     11  O   UNL     1       2.461   3.293  22.355  0.00  0.00    +0.000 OA
ATOM     12  N   UNL     1       1.053   2.633  20.681  0.00  0.00    +0.000 N 
ATOM     13  C   UNL     1       0.963   2.720  19.335  0.00  0.00    +0.000 C 
ATOM     14  O   UNL     1      -0.015   2.473  18.653  0.00  0.00    +0.000 OA
ATOM     15  H   UNL     1       0.269   2.390  21.264  0.00  0.00    +0.000 HD
ENDBRANCH   4   7
BRANCH   1  17
ATOM     16  C   UNL     1       7.539   5.271  14.187  0.00  0.00    +0.000 C 
ATOM     17  O   UNL     1       7.266   5.674  15.525  0.00  0.00    +0.000 OA
ENDBRANCH   1  17
BRANCH   5  18
ATOM     18  O   UNL     1       3.020   6.310  17.899  0.00  0.00    +0.000 OA
ATOM     19  C   UNL     1       3.088   7.725  17.750  0.00  0.00    +0.000 C 
ENDBRANCH   5  18
TORSDOF 3
ENDMDL
MODEL 7
REMARK VINA RESULT:      -6.7      2.397      3.699
REMARK  Name = 
REMARK  5 active torsions:
REMARK  status: ('A' for Active; 'I' for Inactive)
REMARK    1  A    between atoms: C_1  and  O_2
REMARK    2  A    between atoms: O_2  and  C_3
REMARK    3  A    between atoms: C_6  and  C_7
REMARK    4  A    between atoms: C_15  and  O_16
REMARK    5  A    between atoms: O_16  and  C_17
REMARK                            x       y       z     vdW  Elec       q    Type
REMARK                         _______ _______ _______ _____ _____    ______ ____
ROOT
ATOM      1  C   UNL     1       6.459   4.272  15.676  0.00  0.00    +0.000 A 
ATOM      2  C   UNL     1       5.103   3.960  15.604  0.00  0.00    +0.000 A 
ATOM      3  C   UNL     1       4.315   3.966  16.755  0.00  0.00    +0.000 A 
ATOM      4  C   UNL     1       4.877   4.291  17.998  0.00  0.00    +0.000 A 
ATOM      5  C   UNL     1       6.246   4.607  18.079  0.00  0.00    +0.000 A 
ATOM      6  C   UNL     1       7.026   4.587  16.914  0.00  0.00    +0.000 A 
ENDROOT
BRANCH   4   7
ATOM      7  C   UNL     1       4.005   4.266  19.178  0.00  0.00    +0.000 C 
ATOM      8  C   UNL     1       3.328   5.334  19.626  0.00  0.00    +0.000 C 
ATOM      9  C   UNL     1       3.274   6.729  19.095  0.00  0.00    +0.000 C 
ATOM     10  C   UNL     1       2.116   7.287  19.887  0.00  0.00    +0.000 C 
ATOM     11  O   UNL     1       1.567   8.359  19.681  0.00  0.00    +0.000 OA
ATOM     12  N   UNL     1       1.766   6.417  20.869  0.00  0.00    +0.000 N 
ATOM     13  C   UNL     1       2.389   5.222  20.765  0.00  0.00    +0.000 C 
ATOM     14  O   UNL     1       2.173   4.227  21.434  0.00  0.00    +0.000 OA
ATOM     15  H   UNL     1       1.004   6.580  21.507  0.00  0.00    +0.000 HD
ENDBRANCH   4   7
BRANCH   1  17
ATOM     16  C   UNL     1       6.351   3.973  13.319  0.00  0.00    +0.000 C 
ATOM     17  O   UNL     1       7.127   4.242  14.481  0.00  0.00    +0.000 OA
ENDBRANCH   1  17
BRANCH   5  18
ATOM     18  O   UNL     1       6.733   4.923  19.324  0.00  0.00    +0.000 OA
ATOM     19  C   UNL     1       7.867   5.782  19.381  0.00  0.00    +0.000 C 
ENDBRANCH   5  18
TORSDOF 3
ENDMDL
MODEL 8
REMARK VINA RESULT:      -6.7      2.540      5.723
REMARK  Name = 
REMARK  5 active torsions:
REMARK  status: ('A' for Active; 'I' for Inactive)
REMARK    1  A    between atoms: C_1  and  O_2
REMARK    2  A    between atoms: O_2  and  C_3
REMARK    3  A    between atoms: C_6  and  C_7
REMARK    4  A    between atoms: C_15  and  O_16
REMARK    5  A    between atoms: O_16  and  C_17
REMARK                            x       y       z     vdW  Elec       q    Type
REMARK                         _______ _______ _______ _____ _____    ______ ____
ROOT
ATOM      1  C   UNL     1       1.456   3.494  19.792  0.00  0.00    +0.000 A 
ATOM      2  C   UNL     1       1.935   2.641  18.799  0.00  0.00    +0.000 A 
ATOM      3  C   UNL     1       2.805   3.117  17.818  0.00  0.00    +0.000 A 
ATOM      4  C   UNL     1       3.213   4.459  17.822  0.00  0.00    +0.000 A 
ATOM      5  C   UNL     1       2.733   5.327  18.821  0.00  0.00    +0.000 A 
ATOM      6  C   UNL     1       1.851   4.834  19.794  0.00  0.00    +0.000 A 
ENDROOT
BRANCH   4   7
ATOM      7  C   UNL     1       4.117   4.910  16.758  0.00  0.00    +0.000 C 
ATOM      8  C   UNL     1       5.453   4.924  16.873  0.00  0.00    +0.000 C 
ATOM      9  C   UNL     1       6.323   4.520  18.017  0.00  0.00    +0.000 C 
ATOM     10  C   UNL     1       7.679   4.513  17.352  0.00  0.00    +0.000 C 
ATOM     11  O   UNL     1       8.707   4.072  17.843  0.00  0.00    +0.000 OA
ATOM     12  N   UNL     1       7.590   5.071  16.117  0.00  0.00    +0.000 N 
ATOM     13  C   UNL     1       6.315   5.298  15.729  0.00  0.00    +0.000 C 
ATOM     14  O   UNL     1       5.945   5.674  14.631  0.00  0.00    +0.000 OA
ATOM     15  H   UNL     1       8.373   5.152  15.490  0.00  0.00    +0.000 HD
ENDBRANCH   4   7
BRANCH   1  17
ATOM     16  C   UNL     1       1.180   2.566  21.964  0.00  0.00    +0.000 C 
ATOM     17  O   UNL     1       0.617   2.912  20.704  0.00  0.00    +0.000 OA
ENDBRANCH   1  17
BRANCH   5  18
ATOM     18  O   UNL     1       3.175   6.626  18.772  0.00  0.00    +0.000 OA
ATOM     19  C   UNL     1       2.253   7.643  19.150  0.00  0.00    +0.000 C 
ENDBRANCH   5  18
TORSDOF 3
ENDMDL
MODEL 9
REMARK VINA RESULT:      -6.7      2.703      5.662
REMARK  Name = 
REMARK  5 active torsions:
REMARK  status: ('A' for Active; 'I' for Inactive)
REMARK    1  A    between atoms: C_1  and  O_2
REMARK    2  A    between atoms: O_2  and  C_3
REMARK    3  A    between atoms: C_6  and  C_7
REMARK    4  A    between atoms: C_15  and  O_16
REMARK    5  A    between atoms: O_16  and  C_17
REMARK                            x       y       z     vdW  Elec       q    Type
REMARK                         _______ _______ _______ _____ _____    ______ ____
ROOT
ATOM      1  C   UNL     1       1.674   3.924  17.767  0.00  0.00    +0.000 A 
ATOM      2  C   UNL     1       2.809   3.381  17.169  0.00  0.00    +0.000 A 
ATOM      3  C   UNL     1       3.965   4.147  17.021  0.00  0.00    +0.000 A 
ATOM      4  C   UNL     1       4.001   5.472  17.478  0.00  0.00    +0.000 A 
ATOM      5  C   UNL     1       2.858   6.029  18.083  0.00  0.00    +0.000 A 
ATOM      6  C   UNL     1       1.701   5.247  18.215  0.00  0.00    +0.000 A 
ENDROOT
BRANCH   4   7
ATOM      7  C   UNL     1       5.238   6.237  17.283  0.00  0.00    +0.000 C 
ATOM      8  C   UNL     1       6.260   6.233  18.151  0.00  0.00    +0.000 C 
ATOM      9  C   UNL     1       6.415   5.511  19.449  0.00  0.00    +0.000 C 
ATOM     10  C   UNL     1       7.886   5.724  19.717  0.00  0.00    +0.000 C 
ATOM     11  O   UNL     1       8.536   5.168  20.589  0.00  0.00    +0.000 OA
ATOM     12  N   UNL     1       8.388   6.631  18.839  0.00  0.00    +0.000 N 
ATOM     13  C   UNL     1       7.521   6.949  17.852  0.00  0.00    +0.000 C 
ATOM     14  O   UNL     1       7.752   7.637  16.873  0.00  0.00    +0.000 OA
ATOM     15  H   UNL     1       9.356   6.909  18.825  0.00  0.00    +0.000 HD
ENDBRANCH   4   7
BRANCH   1  17
ATOM     16  C   UNL     1       0.717   2.006  18.798  0.00  0.00    +0.000 C 
ATOM     17  O   UNL     1       0.604   3.075  17.865  0.00  0.00    +0.000 OA
ENDBRANCH   1  17
BRANCH   5  18
ATOM     18  O   UNL     1       2.961   7.329  18.514  0.00  0.00    +0.000 OA
ATOM     19  C   UNL     1       2.231   8.315  17.792  0.00  0.00    +0.000 C 
ENDBRANCH   5  18
TORSDOF 3
ENDMDL
