MODEL 1
REMARK VINA RESULT:      -6.5      0.000      0.000
REMARK  Name = 
REMARK  5 active torsions:
REMARK  status: ('A' for Active; 'I' for Inactive)
REMARK    1  A    between atoms: C_2  and  C_3
REMARK    2  A    between atoms: C_6  and  O_7
REMARK    3  A    between atoms: O_7  and  C_8
REMARK    4  A    between atoms: C_8  and  C_9
REMARK    5  A    between atoms: C_9  and  N_10
REMARK                            x       y       z     vdW  Elec       q    Type
REMARK                         _______ _______ _______ _____ _____    ______ ____
ROOT
ATOM      1  C   UNL     1       2.017   2.405  19.109  0.00  0.00    +0.000 C 
ENDROOT
BRANCH   1   2
ATOM      2  N   UNL     1       1.168   3.604  19.073  0.00  0.00    +0.000 NA
ATOM      3  C   UNL     1       1.089   4.363  20.339  0.00  0.00    +0.000 C 
ATOM      4  C   UNL     1       2.149   5.470  20.545  0.00  0.00    +0.000 C 
ATOM      5  N   UNL     1       2.148   6.382  19.404  0.00  0.00    +0.000 N 
ATOM      6  C   UNL     1       1.763   7.681  19.562  0.00  0.00    +0.000 A 
ATOM      7  N   UNL     1       1.380   8.189  20.719  0.00  0.00    +0.000 NA
ATOM      8  C   UNL     1       1.067   9.530  20.610  0.00  0.00    +0.000 A 
ATOM      9  C   UNL     1       1.211  10.069  19.355  0.00  0.00    +0.000 A 
ATOM     10  S   UNL     1       1.758   8.858  18.279  0.00  0.00    +0.000 S 
ATOM     11  C   UNL     1       2.375   5.725  18.119  0.00  0.00    +0.000 C 
ATOM     12  C   UNL     1       1.429   4.507  17.926  0.00  0.00    +0.000 C 
ENDBRANCH   1   2
BRANCH   1  13
ATOM     13  C   UNL     1       3.025   2.327  17.929  0.00  0.00    +0.000 C 
BRANCH  13  14
ATOM     14  O   UNL     1       4.357   2.502  18.432  0.00  0.00    +0.000 OA
BRANCH  14  18
ATOM     15  C   UNL     1       6.482   6.035  17.680  0.00  0.00    +0.000 A 
ATOM     16  C   UNL     1       6.252   5.567  18.977  0.00  0.00    +0.000 A 
ATOM     17  C   UNL     1       5.526   4.387  19.181  0.00  0.00    +0.000 A 
ATOM     18  C   UNL     1       5.004   3.666  18.099  0.00  0.00    +0.000 A 
ATOM     19  C   UNL     1       5.230   4.136  16.805  0.00  0.00    +0.000 A 
ATOM     20  C   UNL     1       5.968   5.316  16.596  0.00  0.00    +0.000 A 
BRANCH  15  22
ATOM     21  N   UNL     1       7.858   8.206  17.291  0.00  0.00    +0.000 NA
ATOM     22  C   UNL     1       7.241   7.233  17.463  0.00  0.00    +0.000 C 
ENDBRANCH  15  22
ENDBRANCH  14  18
ENDBRANCH  13  14
ENDBRANCH   1  13
TORSDOF 5
ENDMDL
MODEL 2
REMARK VINA RESULT:      -6.5      3.713      5.610
REMARK  Name = 
REMARK  5 active torsions:
REMARK  status: ('A' for Active; 'I' for Inactive)
REMARK    1  A    between atoms: C_2  and  C_3
REMARK    2  A    between atoms: C_6  and  O_7
REMARK    3  A    between atoms: O_7  and  C_8
REMARK    4  A    between atoms: C_8  and  C_9
REMARK    5  A    between atoms: C_9  and  N_10
REMARK                            x       y       z     vdW  Elec       q    Type
REMARK                         _______ _______ _______ _____ _____    ______ ____
ROOT
ATOM      1  C   UNL     1       6.961   6.292  17.103  0.00  0.00    +0.000 C 
ENDROOT
BRANCH   1   2
ATOM      2  N   UNL     1       5.980   6.316  18.197  0.00  0.00    +0.000 NA
ATOM      3  C   UNL     1       4.565   6.380  17.776  0.00  0.00    +0.000 C 
ATOM      4  C   UNL     1       3.852   5.027  17.550  0.00  0.00    +0.000 C 
ATOM      5  N   UNL     1       3.993   4.183  18.735  0.00  0.00    +0.000 N 
ATOM      6  C   UNL     1       2.898   3.851  19.477  0.00  0.00    +0.000 A 
ATOM      7  N   UNL     1       1.675   4.252  19.186  0.00  0.00    +0.000 NA
ATOM      8  C   UNL     1       0.748   3.756  20.081  0.00  0.00    +0.000 A 
ATOM      9  C   UNL     1       1.257   2.959  21.076  0.00  0.00    +0.000 A 
ATOM     10  S   UNL     1       2.950   2.825  20.883  0.00  0.00    +0.000 S 
ATOM     11  C   UNL     1       5.379   3.942  19.129  0.00  0.00    +0.000 C 
ATOM     12  C   UNL     1       6.183   5.269  19.227  0.00  0.00    +0.000 C 
ENDBRANCH   1   2
BRANCH   1  13
ATOM     13  C   UNL     1       7.237   4.865  16.552  0.00  0.00    +0.000 C 
BRANCH  13  14
ATOM     14  O   UNL     1       7.770   4.965  15.224  0.00  0.00    +0.000 OA
BRANCH  14  18
ATOM     15  C   UNL     1       5.129   3.643  12.251  0.00  0.00    +0.000 A 
ATOM     16  C   UNL     1       4.751   3.738  13.594  0.00  0.00    +0.000 A 
ATOM     17  C   UNL     1       5.671   4.173  14.555  0.00  0.00    +0.000 A 
ATOM     18  C   UNL     1       6.984   4.505  14.197  0.00  0.00    +0.000 A 
ATOM     19  C   UNL     1       7.362   4.406  12.857  0.00  0.00    +0.000 A 
ATOM     20  C   UNL     1       6.437   3.979  11.888  0.00  0.00    +0.000 A 
BRANCH  15  22
ATOM     21  N   UNL     1       3.420   2.867  10.452  0.00  0.00    +0.000 NA
ATOM     22  C   UNL     1       4.185   3.216  11.259  0.00  0.00    +0.000 C 
ENDBRANCH  15  22
ENDBRANCH  14  18
ENDBRANCH  13  14
ENDBRANCH   1  13
TORSDOF 5
ENDMDL
MODEL 3
REMARK VINA RESULT:      -6.4      2.701      5.708
REMARK  Name = 
REMARK  5 active torsions:
REMARK  status: ('A' for Active; 'I' for Inactive)
REMARK    1  A    between atoms: C_2  and  C_3
REMARK    2  A    between atoms: C_6  and  O_7
REMARK    3  A    between atoms: O_7  and  C_8
REMARK    4  A    between atoms: C_8  and  C_9
REMARK    5  A    between atoms: C_9  and  N_10
REMARK                            x       y       z     vdW  Elec       q    Type
REMARK                         _______ _______ _______ _____ _____    ______ ____
ROOT
ATOM      1  C   UNL     1       1.836   2.799  20.339  0.00  0.00    +0.000 C 
ENDROOT
BRANCH   1   2
ATOM      2  N   UNL     1       2.866   2.407  19.368  0.00  0.00    +0.000 NA
ATOM      3  C   UNL     1       2.555   2.717  17.956  0.00  0.00    +0.000 C 
ATOM      4  C   UNL     1       3.006   4.104  17.442  0.00  0.00    +0.000 C 
ATOM      5  N   UNL     1       4.430   4.297  17.704  0.00  0.00    +0.000 N 
ATOM      6  C   UNL     1       5.313   4.392  16.669  0.00  0.00    +0.000 A 
ATOM      7  N   UNL     1       4.955   4.322  15.400  0.00  0.00    +0.000 NA
ATOM      8  C   UNL     1       6.037   4.473  14.555  0.00  0.00    +0.000 A 
ATOM      9  C   UNL     1       7.247   4.664  15.174  0.00  0.00    +0.000 A 
ATOM     10  S   UNL     1       7.022   4.657  16.869  0.00  0.00    +0.000 S 
ATOM     11  C   UNL     1       4.798   4.158  19.111  0.00  0.00    +0.000 C 
ATOM     12  C   UNL     1       4.239   2.841  19.719  0.00  0.00    +0.000 C 
ENDBRANCH   1   2
BRANCH   1  13
ATOM     13  C   UNL     1       1.241   4.210  20.073  0.00  0.00    +0.000 C 
BRANCH  13  14
ATOM     14  O   UNL     1       2.007   5.189  20.790  0.00  0.00    +0.000 OA
BRANCH  14  18
ATOM     15  C   UNL     1       1.380   9.136  19.527  0.00  0.00    +0.000 A 
ATOM     16  C   UNL     1       2.086   8.210  18.753  0.00  0.00    +0.000 A 
ATOM     17  C   UNL     1       2.281   6.905  19.221  0.00  0.00    +0.000 A 
ATOM     18  C   UNL     1       1.793   6.507  20.472  0.00  0.00    +0.000 A 
ATOM     19  C   UNL     1       1.092   7.433  21.246  0.00  0.00    +0.000 A 
ATOM     20  C   UNL     1       0.885   8.742  20.774  0.00  0.00    +0.000 A 
BRANCH  15  22
ATOM     21  N   UNL     1       0.978  11.552  18.656  0.00  0.00    +0.000 NA
ATOM     22  C   UNL     1       1.160  10.469  19.045  0.00  0.00    +0.000 C 
ENDBRANCH  15  22
ENDBRANCH  14  18
ENDBRANCH  13  14
ENDBRANCH   1  13
TORSDOF 5
ENDMDL
MODEL 4
REMARK VINA RESULT:      -6.3      2.731      5.694
REMARK  Name = 
REMARK  5 active torsions:
REMARK  status: ('A' for Active; 'I' for Inactive)
REMARK    1  A    between atoms: C_2  and  C_3
REMARK    2  A    between atoms: C_6  and  O_7
REMARK    3  A    between atoms: O_7  and  C_8
REMARK    4  A    between atoms: C_8  and  C_9
REMARK    5  A    between atoms: C_9  and  N_10
REMARK                            x       y       z     vdW  Elec       q    Type
REMARK                         _______ _______ _______ _____ _____    ______ ____
ROOT
ATOM      1  C   UNL     1       2.171   2.953  20.379  0.00  0.00    +0.000 C 
ENDROOT
BRANCH   1   2
ATOM      2  N   UNL     1       3.170   2.530  19.388  0.00  0.00    +0.000 NA
ATOM      3  C   UNL     1       2.772   2.703  17.975  0.00  0.00    +0.000 C 
ATOM      4  C   UNL     1       3.121   4.061  17.324  0.00  0.00    +0.000 C 
ATOM      5  N   UNL     1       4.544   4.345  17.490  0.00  0.00    +0.000 N 
ATOM      6  C   UNL     1       5.367   4.395  16.404  0.00  0.00    +0.000 A 
ATOM      7  N   UNL     1       4.950   4.199  15.167  0.00  0.00    +0.000 NA
ATOM      8  C   UNL     1       5.978   4.329  14.254  0.00  0.00    +0.000 A 
ATOM      9  C   UNL     1       7.206   4.632  14.788  0.00  0.00    +0.000 A 
ATOM     10  S   UNL     1       7.067   4.760  16.487  0.00  0.00    +0.000 S 
ATOM     11  C   UNL     1       4.989   4.346  18.882  0.00  0.00    +0.000 C 
ATOM     12  C   UNL     1       4.533   3.060  19.627  0.00  0.00    +0.000 C 
ENDBRANCH   1   2
BRANCH   1  13
ATOM     13  C   UNL     1       1.467   4.290  20.015  0.00  0.00    +0.000 C 
BRANCH  13  14
ATOM     14  O   UNL     1       2.200   5.382  20.588  0.00  0.00    +0.000 OA
BRANCH  14  18
ATOM     15  C   UNL     1       1.412   9.309  19.354  0.00  0.00    +0.000 A 
ATOM     16  C   UNL     1       1.012   8.827  20.604  0.00  0.00    +0.000 A 
ATOM     17  C   UNL     1       1.286   7.504  20.969  0.00  0.00    +0.000 A 
ATOM     18  C   UNL     1       1.947   6.636  20.090  0.00  0.00    +0.000 A 
ATOM     19  C   UNL     1       2.343   7.116  18.841  0.00  0.00    +0.000 A 
ATOM     20  C   UNL     1       2.078   8.448  18.475  0.00  0.00    +0.000 A 
BRANCH  15  22
ATOM     21  N   UNL     1       0.937  11.775  18.682  0.00  0.00    +0.000 NA
ATOM     22  C   UNL     1       1.151  10.669  18.982  0.00  0.00    +0.000 C 
ENDBRANCH  15  22
ENDBRANCH  14  18
ENDBRANCH  13  14
ENDBRANCH   1  13
TORSDOF 5
ENDMDL
MODEL 5
REMARK VINA RESULT:      -6.3      0.451      1.128
REMARK  Name = 
REMARK  5 active torsions:
REMARK  status: ('A' for Active; 'I' for Inactive)
REMARK    1  A    between atoms: C_2  and  C_3
REMARK    2  A    between atoms: C_6  and  O_7
REMARK    3  A    between atoms: O_7  and  C_8
REMARK    4  A    between atoms: C_8  and  C_9
REMARK    5  A    between atoms: C_9  and  N_10
REMARK                            x       y       z     vdW  Elec       q    Type
REMARK                         _______ _______ _______ _____ _____    ______ ____
ROOT
ATOM      1  C   UNL     1       2.038   2.250  19.089  0.00  0.00    +0.000 C 
ENDROOT
BRANCH   1   2
ATOM      2  N   UNL     1       1.169   3.434  19.138  0.00  0.00    +0.000 NA
ATOM      3  C   UNL     1       1.079   4.098  20.456  0.00  0.00    +0.000 C 
ATOM      4  C   UNL     1       2.120   5.205  20.740  0.00  0.00    +0.000 C 
ATOM      5  N   UNL     1       2.102   6.197  19.667  0.00  0.00    +0.000 N 
ATOM      6  C   UNL     1       1.696   7.474  19.918  0.00  0.00    +0.000 A 
ATOM      7  N   UNL     1       1.306   7.892  21.109  0.00  0.00    +0.000 NA
ATOM      8  C   UNL     1       0.971   9.231  21.096  0.00  0.00    +0.000 A 
ATOM      9  C   UNL     1       1.104   9.861  19.883  0.00  0.00    +0.000 A 
ATOM     10  S   UNL     1       1.670   8.740  18.723  0.00  0.00    +0.000 S 
ATOM     11  C   UNL     1       2.340   5.638  18.339  0.00  0.00    +0.000 C 
ATOM     12  C   UNL     1       1.414   4.420  18.059  0.00  0.00    +0.000 C 
ENDBRANCH   1   2
BRANCH   1  13
ATOM     13  C   UNL     1       3.514   2.551  19.471  0.00  0.00    +0.000 C 
BRANCH  13  14
ATOM     14  O   UNL     1       4.293   2.694  18.274  0.00  0.00    +0.000 OA
BRANCH  14  18
ATOM     15  C   UNL     1       6.642   6.121  17.722  0.00  0.00    +0.000 A 
ATOM     16  C   UNL     1       6.111   5.401  16.647  0.00  0.00    +0.000 A 
ATOM     17  C   UNL     1       5.342   4.254  16.879  0.00  0.00    +0.000 A 
ATOM     18  C   UNL     1       5.103   3.798  18.182  0.00  0.00    +0.000 A 
ATOM     19  C   UNL     1       5.636   4.515  19.255  0.00  0.00    +0.000 A 
ATOM     20  C   UNL     1       6.401   5.673  19.025  0.00  0.00    +0.000 A 
BRANCH  15  22
ATOM     21  N   UNL     1       8.043   8.270  17.302  0.00  0.00    +0.000 NA
ATOM     22  C   UNL     1       7.414   7.307  17.492  0.00  0.00    +0.000 C 
ENDBRANCH  15  22
ENDBRANCH  14  18
ENDBRANCH  13  14
ENDBRANCH   1  13
TORSDOF 5
ENDMDL
MODEL 6
REMARK VINA RESULT:      -6.2      1.570      1.827
REMARK  Name = 
REMARK  5 active torsions:
REMARK  status: ('A' for Active; 'I' for Inactive)
REMARK    1  A    between atoms: C_2  and  C_3
REMARK    2  A    between atoms: C_6  and  O_7
REMARK    3  A    between atoms: O_7  and  C_8
REMARK    4  A    between atoms: C_8  and  C_9
REMARK    5  A    between atoms: C_9  and  N_10
REMARK                            x       y       z     vdW  Elec       q    Type
REMARK                         _______ _______ _______ _____ _____    ______ ____
ROOT
ATOM      1  C   UNL     1       2.644   3.118  19.701  0.00  0.00    +0.000 C 
ENDROOT
BRANCH   1   2
ATOM      2  N   UNL     1       1.656   4.168  19.417  0.00  0.00    +0.000 NA
ATOM      3  C   UNL     1       1.317   5.043  20.559  0.00  0.00    +0.000 C 
ATOM      4  C   UNL     1       2.186   6.309  20.737  0.00  0.00    +0.000 C 
ATOM      5  N   UNL     1       2.210   7.079  19.495  0.00  0.00    +0.000 N 
ATOM      6  C   UNL     1       1.640   8.316  19.442  0.00  0.00    +0.000 A 
ATOM      7  N   UNL     1       1.049   8.888  20.475  0.00  0.00    +0.000 NA
ATOM      8  C   UNL     1       0.579  10.149  20.161  0.00  0.00    +0.000 A 
ATOM      9  C   UNL     1       0.810  10.560  18.871  0.00  0.00    +0.000 A 
ATOM     10  S   UNL     1       1.644   9.330  18.027  0.00  0.00    +0.000 S 
ATOM     11  C   UNL     1       2.685   6.323  18.339  0.00  0.00    +0.000 C 
ATOM     12  C   UNL     1       1.940   4.965  18.200  0.00  0.00    +0.000 C 
ENDBRANCH   1   2
BRANCH   1  13
ATOM     13  C   UNL     1       3.555   2.783  18.487  0.00  0.00    +0.000 C 
BRANCH  13  14
ATOM     14  O   UNL     1       4.789   3.505  18.608  0.00  0.00    +0.000 OA
BRANCH  14  18
ATOM     15  C   UNL     1       6.819   4.851  15.198  0.00  0.00    +0.000 A 
ATOM     16  C   UNL     1       7.387   4.910  16.474  0.00  0.00    +0.000 A 
ATOM     17  C   UNL     1       6.667   4.460  17.587  0.00  0.00    +0.000 A 
ATOM     18  C   UNL     1       5.365   3.960  17.449  0.00  0.00    +0.000 A 
ATOM     19  C   UNL     1       4.797   3.905  16.175  0.00  0.00    +0.000 A 
ATOM     20  C   UNL     1       5.522   4.348  15.054  0.00  0.00    +0.000 A 
BRANCH  15  22
ATOM     21  N   UNL     1       8.163   5.652  13.122  0.00  0.00    +0.000 NA
ATOM     22  C   UNL     1       7.559   5.293  14.052  0.00  0.00    +0.000 C 
ENDBRANCH  15  22
ENDBRANCH  14  18
ENDBRANCH  13  14
ENDBRANCH   1  13
TORSDOF 5
ENDMDL
MODEL 7
REMARK VINA RESULT:      -6.2      4.406      6.856
REMARK  Name = 
REMARK  5 active torsions:
REMARK  status: ('A' for Active; 'I' for Inactive)
REMARK    1  A    between atoms: C_2  and  C_3
REMARK    2  A    between atoms: C_6  and  O_7
REMARK    3  A    between atoms: O_7  and  C_8
REMARK    4  A    between atoms: C_8  and  C_9
REMARK    5  A    between atoms: C_9  and  N_10
REMARK                            x       y       z     vdW  Elec       q    Type
REMARK                         _______ _______ _______ _____ _____    ______ ____
ROOT
ATOM      1  C   UNL     1       7.974   7.292  18.120  0.00  0.00    +0.000 C 
ENDROOT
BRANCH   1   2
ATOM      2  N   UNL     1       7.148   6.272  17.459  0.00  0.00    +0.000 NA
ATOM      3  C   UNL     1       7.128   4.949  18.118  0.00  0.00    +0.000 C 
ATOM      4  C   UNL     1       6.032   4.731  19.187  0.00  0.00    +0.000 C 
ATOM      5  N   UNL     1       4.718   5.042  18.628  0.00  0.00    +0.000 N 
ATOM      6  C   UNL     1       3.789   4.058  18.468  0.00  0.00    +0.000 A 
ATOM      7  N   UNL     1       4.002   2.797  18.797  0.00  0.00    +0.000 NA
ATOM      8  C   UNL     1       2.891   2.011  18.557  0.00  0.00    +0.000 A 
ATOM      9  C   UNL     1       1.805   2.670  18.037  0.00  0.00    +0.000 A 
ATOM     10  S   UNL     1       2.185   4.325  17.846  0.00  0.00    +0.000 S 
ATOM     11  C   UNL     1       4.608   6.396  18.090  0.00  0.00    +0.000 C 
ATOM     12  C   UNL     1       5.777   6.719  17.117  0.00  0.00    +0.000 C 
ENDBRANCH   1   2
BRANCH   1  13
ATOM     13  C   UNL     1       7.583   8.747  17.737  0.00  0.00    +0.000 C 
BRANCH  13  14
ATOM     14  O   UNL     1       8.775   9.516  17.522  0.00  0.00    +0.000 OA
BRANCH  14  18
ATOM     15  C   UNL     1       9.557  12.658  20.183  0.00  0.00    +0.000 A 
ATOM     16  C   UNL     1       9.629  11.318  20.573  0.00  0.00    +0.000 A 
ATOM     17  C   UNL     1       9.347  10.301  19.653  0.00  0.00    +0.000 A 
ATOM     18  C   UNL     1       8.974  10.603  18.336  0.00  0.00    +0.000 A 
ATOM     19  C   UNL     1       8.899  11.942  17.949  0.00  0.00    +0.000 A 
ATOM     20  C   UNL     1       9.191  12.965  18.868  0.00  0.00    +0.000 A 
BRANCH  15  22
ATOM     21  N   UNL     1      10.115  14.555  21.871  0.00  0.00    +0.000 NA
ATOM     22  C   UNL     1       9.863  13.704  21.115  0.00  0.00    +0.000 C 
ENDBRANCH  15  22
ENDBRANCH  14  18
ENDBRANCH  13  14
ENDBRANCH   1  13
TORSDOF 5
ENDMDL
MODEL 8
REMARK VINA RESULT:      -6.2      3.192      7.025
REMARK  Name = 
REMARK  5 active torsions:
REMARK  status: ('A' for Active; 'I' for Inactive)
REMARK    1  A    between atoms: C_2  and  C_3
REMARK    2  A    between atoms: C_6  and  O_7
REMARK    3  A    between atoms: O_7  and  C_8
REMARK    4  A    between atoms: C_8  and  C_9
REMARK    5  A    between atoms: C_9  and  N_10
REMARK                            x       y       z     vdW  Elec       q    Type
REMARK                         _______ _______ _______ _____ _____    ______ ____
ROOT
ATOM      1  C   UNL     1       4.676   5.245  19.195  0.00  0.00    +0.000 C 
ENDROOT
BRANCH   1   2
ATOM      2  N   UNL     1       4.675   5.649  17.782  0.00  0.00    +0.000 NA
ATOM      3  C   UNL     1       5.919   6.291  17.306  0.00  0.00    +0.000 C 
ATOM      4  C   UNL     1       7.004   5.348  16.738  0.00  0.00    +0.000 C 
ATOM      5  N   UNL     1       6.435   4.501  15.692  0.00  0.00    +0.000 N 
ATOM      6  C   UNL     1       6.851   4.632  14.400  0.00  0.00    +0.000 A 
ATOM      7  N   UNL     1       7.768   5.501  14.016  0.00  0.00    +0.000 NA
ATOM      8  C   UNL     1       8.022   5.411  12.662  0.00  0.00    +0.000 A 
ATOM      9  C   UNL     1       7.297   4.460  11.987  0.00  0.00    +0.000 A 
ATOM     10  S   UNL     1       6.265   3.653  13.085  0.00  0.00    +0.000 S 
ATOM     11  C   UNL     1       5.287   3.711  16.128  0.00  0.00    +0.000 C 
ATOM     12  C   UNL     1       4.225   4.595  16.843  0.00  0.00    +0.000 C 
ENDBRANCH   1   2
BRANCH   1  13
ATOM     13  C   UNL     1       3.407   5.701  19.968  0.00  0.00    +0.000 C 
BRANCH  13  14
ATOM     14  O   UNL     1       2.466   6.264  19.043  0.00  0.00    +0.000 OA
BRANCH  14  18
ATOM     15  C   UNL     1       0.964  10.139  19.584  0.00  0.00    +0.000 A 
ATOM     16  C   UNL     1       1.453   9.696  18.352  0.00  0.00    +0.000 A 
ATOM     17  C   UNL     1       1.957   8.396  18.220  0.00  0.00    +0.000 A 
ATOM     18  C   UNL     1       1.996   7.525  19.317  0.00  0.00    +0.000 A 
ATOM     19  C   UNL     1       1.511   7.969  20.548  0.00  0.00    +0.000 A 
ATOM     20  C   UNL     1       0.995   9.270  20.680  0.00  0.00    +0.000 A 
BRANCH  15  22
ATOM     21  N   UNL     1      -0.006  12.538  19.827  0.00  0.00    +0.000 NA
ATOM     22  C   UNL     1       0.428  11.462  19.720  0.00  0.00    +0.000 C 
ENDBRANCH  15  22
ENDBRANCH  14  18
ENDBRANCH  13  14
ENDBRANCH   1  13
TORSDOF 5
ENDMDL
MODEL 9
REMARK VINA RESULT:      -6.2      1.379      1.798
REMARK  Name = 
REMARK  5 active torsions:
REMARK  status: ('A' for Active; 'I' for Inactive)
REMARK    1  A    between atoms: C_2  and  C_3
REMARK    2  A    between atoms: C_6  and  O_7
REMARK    3  A    between atoms: O_7  and  C_8
REMARK    4  A    between atoms: C_8  and  C_9
REMARK    5  A    between atoms: C_9  and  N_10
REMARK                            x       y       z     vdW  Elec       q    Type
REMARK                         _______ _______ _______ _____ _____    ______ ____
ROOT
ATOM      1  C   UNL     1       3.712   3.545  18.386  0.00  0.00    +0.000 C 
ENDROOT
BRANCH   1   2
ATOM      2  N   UNL     1       2.489   4.351  18.502  0.00  0.00    +0.000 NA
ATOM      3  C   UNL     1       2.016   4.586  19.883  0.00  0.00    +0.000 C 
ATOM      4  C   UNL     1       2.568   5.843  20.593  0.00  0.00    +0.000 C 
ATOM      5  N   UNL     1       2.339   7.027  19.768  0.00  0.00    +0.000 N 
ATOM      6  C   UNL     1       1.489   8.006  20.190  0.00  0.00    +0.000 A 
ATOM      7  N   UNL     1       0.837   7.958  21.337  0.00  0.00    +0.000 NA
ATOM      8  C   UNL     1       0.065   9.085  21.534  0.00  0.00    +0.000 A 
ATOM      9  C   UNL     1       0.119  10.020  20.530  0.00  0.00    +0.000 A 
ATOM     10  S   UNL     1       1.173   9.470  19.302  0.00  0.00    +0.000 S 
ATOM     11  C   UNL     1       2.915   6.935  18.428  0.00  0.00    +0.000 C 
ATOM     12  C   UNL     1       2.508   5.611  17.722  0.00  0.00    +0.000 C 
ENDBRANCH   1   2
BRANCH   1  13
ATOM     13  C   UNL     1       4.507   3.815  17.078  0.00  0.00    +0.000 C 
BRANCH  13  14
ATOM     14  O   UNL     1       5.902   3.940  17.388  0.00  0.00    +0.000 OA
BRANCH  14  18
ATOM     15  C   UNL     1       7.682   7.695  17.924  0.00  0.00    +0.000 A 
ATOM     16  C   UNL     1       8.048   6.583  18.688  0.00  0.00    +0.000 A 
ATOM     17  C   UNL     1       7.417   5.350  18.482  0.00  0.00    +0.000 A 
ATOM     18  C   UNL     1       6.402   5.210  17.526  0.00  0.00    +0.000 A 
ATOM     19  C   UNL     1       6.035   6.322  16.766  0.00  0.00    +0.000 A 
ATOM     20  C   UNL     1       6.674   7.559  16.964  0.00  0.00    +0.000 A 
BRANCH  15  22
ATOM     21  N   UNL     1       8.873   9.980  18.270  0.00  0.00    +0.000 NA
ATOM     22  C   UNL     1       8.338   8.956  18.116  0.00  0.00    +0.000 C 
ENDBRANCH  15  22
ENDBRANCH  14  18
ENDBRANCH  13  14
ENDBRANCH   1  13
TORSDOF 5
ENDMDL
