MODEL 1
REMARK VINA RESULT:      -8.2      0.000      0.000
REMARK  Name = 
REMARK  2 active torsions:
REMARK  status: ('A' for Active; 'I' for Inactive)
REMARK    1  A    between atoms: C_10  and  C_11
REMARK    2  A    between atoms: C_22  and  C_23
REMARK                            x       y       z     vdW  Elec       q    Type
REMARK                         _______ _______ _______ _____ _____    ______ ____
ROOT
ATOM      1  O   UNL     1      -3.089  14.411  25.476  0.00  0.00    +0.000 OA
ATOM      2  S   UNL     1      -2.847  14.477  23.918  0.00  0.00    +0.000 S 
ATOM      3  C   UNL     1      -4.212  15.505  23.272  0.00  0.00    +0.000 A 
ATOM      4  C   UNL     1      -4.744  16.450  24.213  0.00  0.00    +0.000 A 
ATOM      5  C   UNL     1      -5.588  17.506  23.862  0.00  0.00    +0.000 A 
ATOM      6  C   UNL     1      -5.898  17.667  22.527  0.00  0.00    +0.000 A 
ATOM      7  C   UNL     1      -5.426  16.716  21.586  0.00  0.00    +0.000 A 
ATOM      8  C   UNL     1      -4.606  15.578  21.924  0.00  0.00    +0.000 A 
ATOM      9  N   UNL     1      -4.239  14.694  20.850  0.00  0.00    +0.000 NA
ATOM     10  C   UNL     1      -4.099  13.363  20.846  0.00  0.00    +0.000 C 
ATOM     11  C   UNL     1      -4.197  12.639  22.213  0.00  0.00    +0.000 C 
ATOM     12  C   UNL     1      -3.030  12.736  23.283  0.00  0.00    +0.000 C 
ENDROOT
BRANCH  10  13
ATOM     13  C   UNL     1      -3.915  12.411  19.345  0.00  0.00    +0.000 A 
ATOM     14  C   UNL     1      -2.582  12.459  19.688  0.00  0.00    +0.000 A 
ATOM     15  C   UNL     1      -1.613  12.812  18.786  0.00  0.00    +0.000 A 
ATOM     16  C   UNL     1      -1.271  11.656  18.211  0.00  0.00    +0.000 A 
ATOM     17  C   UNL     1      -2.360  11.049  17.661  0.00  0.00    +0.000 A 
ATOM     18  C   UNL     1      -1.985  10.119  16.670  0.00  0.00    +0.000 A 
ATOM     19  C   UNL     1      -2.856   9.772  15.673  0.00  0.00    +0.000 A 
ATOM     20  C   UNL     1      -4.127  10.318  15.755  0.00  0.00    +0.000 A 
ATOM     21  C   UNL     1      -4.555  11.130  16.902  0.00  0.00    +0.000 A 
ATOM     22  C   UNL     1      -3.701  11.566  18.033  0.00  0.00    +0.000 A 
ENDBRANCH  10  13
BRANCH  12  23
ATOM     23  C   UNL     1      -1.608  12.151  22.955  0.00  0.00    +0.000 A 
ATOM     24  C   UNL     1      -1.561  10.767  23.141  0.00  0.00    +0.000 A 
ATOM     25  C   UNL     1      -0.332  10.191  23.049  0.00  0.00    +0.000 A 
ATOM     26  C   UNL     1       0.139  10.427  21.789  0.00  0.00    +0.000 A 
ATOM     27  C   UNL     1       0.339  11.750  21.481  0.00  0.00    +0.000 A 
ATOM     28  C   UNL     1       1.351  11.978  20.530  0.00  0.00    +0.000 A 
ATOM     29  C   UNL     1       1.976  13.201  20.466  0.00  0.00    +0.000 A 
ATOM     30  C   UNL     1       1.489  14.208  21.288  0.00  0.00    +0.000 A 
ATOM     31  C   UNL     1       0.291  14.025  22.072  0.00  0.00    +0.000 A 
ATOM     32  C   UNL     1      -0.390  12.739  22.218  0.00  0.00    +0.000 A 
ENDBRANCH  12  23
TORSDOF 2
ENDMDL
MODEL 2
REMARK VINA RESULT:      -8.0      2.589      4.333
REMARK  Name = 
REMARK  2 active torsions:
REMARK  status: ('A' for Active; 'I' for Inactive)
REMARK    1  A    between atoms: C_10  and  C_11
REMARK    2  A    between atoms: C_22  and  C_23
REMARK                            x       y       z     vdW  Elec       q    Type
REMARK                         _______ _______ _______ _____ _____    ______ ____
ROOT
ATOM      1  O   UNL     1      -3.177  17.265  22.260  0.00  0.00    +0.000 OA
ATOM      2  S   UNL     1      -3.117  15.917  21.442  0.00  0.00    +0.000 S 
ATOM      3  C   UNL     1      -4.197  14.762  22.357  0.00  0.00    +0.000 A 
ATOM      4  C   UNL     1      -5.241  15.393  23.114  0.00  0.00    +0.000 A 
ATOM      5  C   UNL     1      -6.330  14.708  23.657  0.00  0.00    +0.000 A 
ATOM      6  C   UNL     1      -6.421  13.351  23.423  0.00  0.00    +0.000 A 
ATOM      7  C   UNL     1      -5.374  12.697  22.722  0.00  0.00    +0.000 A 
ATOM      8  C   UNL     1      -4.206  13.364  22.203  0.00  0.00    +0.000 A 
ATOM      9  N   UNL     1      -3.225  12.544  21.543  0.00  0.00    +0.000 NA
ATOM     10  C   UNL     1      -1.890  12.641  21.538  0.00  0.00    +0.000 C 
ATOM     11  C   UNL     1      -1.271  13.892  22.214  0.00  0.00    +0.000 C 
ATOM     12  C   UNL     1      -1.355  15.323  21.536  0.00  0.00    +0.000 C 
ENDROOT
BRANCH  10  13
ATOM     13  C   UNL     1      -0.826  11.360  20.891  0.00  0.00    +0.000 A 
ATOM     14  C   UNL     1      -1.309  11.814  19.684  0.00  0.00    +0.000 A 
ATOM     15  C   UNL     1      -1.795  10.960  18.729  0.00  0.00    +0.000 A 
ATOM     16  C   UNL     1      -0.717  10.637  18.008  0.00  0.00    +0.000 A 
ATOM     17  C   UNL     1       0.253  10.104  18.801  0.00  0.00    +0.000 A 
ATOM     18  C   UNL     1       1.166   9.336  18.051  0.00  0.00    +0.000 A 
ATOM     19  C   UNL     1       1.893   8.339  18.645  0.00  0.00    +0.000 A 
ATOM     20  C   UNL     1       1.735   8.200  20.014  0.00  0.00    +0.000 A 
ATOM     21  C   UNL     1       0.926   9.137  20.805  0.00  0.00    +0.000 A 
ATOM     22  C   UNL     1       0.101  10.247  20.272  0.00  0.00    +0.000 A 
ENDBRANCH  10  13
BRANCH  12  23
ATOM     23  C   UNL     1      -0.645  15.585  20.157  0.00  0.00    +0.000 A 
ATOM     24  C   UNL     1      -1.138  16.731  19.529  0.00  0.00    +0.000 A 
ATOM     25  C   UNL     1      -0.710  16.948  18.256  0.00  0.00    +0.000 A 
ATOM     26  C   UNL     1       0.648  17.084  18.296  0.00  0.00    +0.000 A 
ATOM     27  C   UNL     1       1.333  15.971  18.719  0.00  0.00    +0.000 A 
ATOM     28  C   UNL     1       2.632  15.854  18.193  0.00  0.00    +0.000 A 
ATOM     29  C   UNL     1       3.245  14.625  18.135  0.00  0.00    +0.000 A 
ATOM     30  C   UNL     1       2.579  13.553  18.714  0.00  0.00    +0.000 A 
ATOM     31  C   UNL     1       1.364  13.743  19.469  0.00  0.00    +0.000 A 
ATOM     32  C   UNL     1       0.639  15.012  19.528  0.00  0.00    +0.000 A 
ENDBRANCH  12  23
TORSDOF 2
ENDMDL
MODEL 3
REMARK VINA RESULT:      -7.9      3.488      7.002
REMARK  Name = 
REMARK  2 active torsions:
REMARK  status: ('A' for Active; 'I' for Inactive)
REMARK    1  A    between atoms: C_10  and  C_11
REMARK    2  A    between atoms: C_22  and  C_23
REMARK                            x       y       z     vdW  Elec       q    Type
REMARK                         _______ _______ _______ _____ _____    ______ ____
ROOT
ATOM      1  O   UNL     1       0.102   9.262  22.861  0.00  0.00    +0.000 OA
ATOM      2  S   UNL     1      -0.289  10.123  21.598  0.00  0.00    +0.000 S 
ATOM      3  C   UNL     1       0.869   9.595  20.289  0.00  0.00    +0.000 A 
ATOM      4  C   UNL     1       1.364   8.254  20.435  0.00  0.00    +0.000 A 
ATOM      5  C   UNL     1       2.032   7.557  19.426  0.00  0.00    +0.000 A 
ATOM      6  C   UNL     1       2.194   8.185  18.208  0.00  0.00    +0.000 A 
ATOM      7  C   UNL     1       1.760   9.527  18.056  0.00  0.00    +0.000 A 
ATOM      8  C   UNL     1       1.124  10.297  19.097  0.00  0.00    +0.000 A 
ATOM      9  N   UNL     1       0.773  11.656  18.784  0.00  0.00    +0.000 NA
ATOM     10  C   UNL     1       0.801  12.749  19.557  0.00  0.00    +0.000 C 
ATOM     11  C   UNL     1       1.116  12.541  21.061  0.00  0.00    +0.000 C 
ATOM     12  C   UNL     1       0.051  11.898  22.045  0.00  0.00    +0.000 C 
ENDROOT
BRANCH  10  13
ATOM     13  C   UNL     1       0.600  14.401  18.910  0.00  0.00    +0.000 A 
ATOM     14  C   UNL     1       1.974  14.346  18.829  0.00  0.00    +0.000 A 
ATOM     15  C   UNL     1       2.770  15.353  19.307  0.00  0.00    +0.000 A 
ATOM     16  C   UNL     1       2.890  16.188  18.271  0.00  0.00    +0.000 A 
ATOM     17  C   UNL     1       1.667  16.596  17.834  0.00  0.00    +0.000 A 
ATOM     18  C   UNL     1       1.756  17.796  17.099  0.00  0.00    +0.000 A 
ATOM     19  C   UNL     1       0.677  18.631  16.993  0.00  0.00    +0.000 A 
ATOM     20  C   UNL     1      -0.501  18.184  17.570  0.00  0.00    +0.000 A 
ATOM     21  C   UNL     1      -0.621  16.845  18.160  0.00  0.00    +0.000 A 
ATOM     22  C   UNL     1       0.475  15.860  18.328  0.00  0.00    +0.000 A 
ENDBRANCH  10  13
BRANCH  12  23
ATOM     23  C   UNL     1      -1.311  12.635  22.323  0.00  0.00    +0.000 A 
ATOM     24  C   UNL     1      -2.212  11.817  23.007  0.00  0.00    +0.000 A 
ATOM     25  C   UNL     1      -3.477  12.301  23.144  0.00  0.00    +0.000 A 
ATOM     26  C   UNL     1      -3.397  13.466  23.852  0.00  0.00    +0.000 A 
ATOM     27  C   UNL     1      -2.692  14.472  23.241  0.00  0.00    +0.000 A 
ATOM     28  C   UNL     1      -3.106  15.769  23.595  0.00  0.00    +0.000 A 
ATOM     29  C   UNL     1      -2.845  16.830  22.759  0.00  0.00    +0.000 A 
ATOM     30  C   UNL     1      -2.070  16.579  21.634  0.00  0.00    +0.000 A 
ATOM     31  C   UNL     1      -1.446  15.295  21.424  0.00  0.00    +0.000 A 
ATOM     32  C   UNL     1      -1.721  14.118  22.247  0.00  0.00    +0.000 A 
ENDBRANCH  12  23
TORSDOF 2
ENDMDL
MODEL 4
REMARK VINA RESULT:      -7.8      2.672      4.530
REMARK  Name = 
REMARK  2 active torsions:
REMARK  status: ('A' for Active; 'I' for Inactive)
REMARK    1  A    between atoms: C_10  and  C_11
REMARK    2  A    between atoms: C_22  and  C_23
REMARK                            x       y       z     vdW  Elec       q    Type
REMARK                         _______ _______ _______ _____ _____    ______ ____
ROOT
ATOM      1  O   UNL     1      -4.402  12.262  23.407  0.00  0.00    +0.000 OA
ATOM      2  S   UNL     1      -3.017  13.007  23.277  0.00  0.00    +0.000 S 
ATOM      3  C   UNL     1      -3.424  14.784  23.390  0.00  0.00    +0.000 A 
ATOM      4  C   UNL     1      -4.619  15.076  24.132  0.00  0.00    +0.000 A 
ATOM      5  C   UNL     1      -4.967  16.354  24.573  0.00  0.00    +0.000 A 
ATOM      6  C   UNL     1      -4.093  17.389  24.307  0.00  0.00    +0.000 A 
ATOM      7  C   UNL     1      -2.932  17.133  23.531  0.00  0.00    +0.000 A 
ATOM      8  C   UNL     1      -2.576  15.838  23.007  0.00  0.00    +0.000 A 
ATOM      9  N   UNL     1      -1.378  15.760  22.214  0.00  0.00    +0.000 NA
ATOM     10  C   UNL     1      -1.111  15.014  21.135  0.00  0.00    +0.000 C 
ATOM     11  C   UNL     1      -2.170  13.956  20.730  0.00  0.00    +0.000 C 
ATOM     12  C   UNL     1      -2.373  12.628  21.572  0.00  0.00    +0.000 C 
ENDROOT
BRANCH  10  13
ATOM     13  C   UNL     1       0.333  15.264  20.115  0.00  0.00    +0.000 A 
ATOM     14  C   UNL     1       0.908  14.407  21.026  0.00  0.00    +0.000 A 
ATOM     15  C   UNL     1       2.110  14.681  21.624  0.00  0.00    +0.000 A 
ATOM     16  C   UNL     1       3.012  14.160  20.788  0.00  0.00    +0.000 A 
ATOM     17  C   UNL     1       2.871  14.682  19.538  0.00  0.00    +0.000 A 
ATOM     18  C   UNL     1       4.053  14.536  18.784  0.00  0.00    +0.000 A 
ATOM     19  C   UNL     1       4.322  15.379  17.739  0.00  0.00    +0.000 A 
ATOM     20  C   UNL     1       3.338  16.305  17.431  0.00  0.00    +0.000 A 
ATOM     21  C   UNL     1       2.034  16.311  18.106  0.00  0.00    +0.000 A 
ATOM     22  C   UNL     1       1.633  15.448  19.244  0.00  0.00    +0.000 A 
ENDBRANCH  10  13
BRANCH  12  23
ATOM     23  C   UNL     1      -1.208  11.576  21.678  0.00  0.00    +0.000 A 
ATOM     24  C   UNL     1      -1.256  10.869  22.882  0.00  0.00    +0.000 A 
ATOM     25  C   UNL     1      -0.194  10.059  23.144  0.00  0.00    +0.000 A 
ATOM     26  C   UNL     1      -0.134   9.125  22.149  0.00  0.00    +0.000 A 
ATOM     27  C   UNL     1       0.099   9.626  20.893  0.00  0.00    +0.000 A 
ATOM     28  C   UNL     1       0.766   8.739  20.028  0.00  0.00    +0.000 A 
ATOM     29  C   UNL     1       1.467   9.222  18.949  0.00  0.00    +0.000 A 
ATOM     30  C   UNL     1       1.388  10.586  18.697  0.00  0.00    +0.000 A 
ATOM     31  C   UNL     1       0.497  11.438  19.447  0.00  0.00    +0.000 A 
ATOM     32  C   UNL     1      -0.238  10.995  20.632  0.00  0.00    +0.000 A 
ENDBRANCH  12  23
TORSDOF 2
ENDMDL
MODEL 5
REMARK VINA RESULT:      -7.8      3.424      6.555
REMARK  Name = 
REMARK  2 active torsions:
REMARK  status: ('A' for Active; 'I' for Inactive)
REMARK    1  A    between atoms: C_10  and  C_11
REMARK    2  A    between atoms: C_22  and  C_23
REMARK                            x       y       z     vdW  Elec       q    Type
REMARK                         _______ _______ _______ _____ _____    ______ ____
ROOT
ATOM      1  O   UNL     1      -1.195  16.073  19.204  0.00  0.00    +0.000 OA
ATOM      2  S   UNL     1      -0.262  14.972  19.841  0.00  0.00    +0.000 S 
ATOM      3  C   UNL     1       1.300  15.073  18.900  0.00  0.00    +0.000 A 
ATOM      4  C   UNL     1       1.570  16.364  18.329  0.00  0.00    +0.000 A 
ATOM      5  C   UNL     1       2.811  16.741  17.812  0.00  0.00    +0.000 A 
ATOM      6  C   UNL     1       3.844  15.830  17.886  0.00  0.00    +0.000 A 
ATOM      7  C   UNL     1       3.589  14.531  18.399  0.00  0.00    +0.000 A 
ATOM      8  C   UNL     1       2.304  14.089  18.881  0.00  0.00    +0.000 A 
ATOM      9  N   UNL     1       2.211  12.728  19.340  0.00  0.00    +0.000 NA
ATOM     10  C   UNL     1       1.204  11.853  19.229  0.00  0.00    +0.000 C 
ATOM     11  C   UNL     1      -0.134  12.386  18.655  0.00  0.00    +0.000 C 
ATOM     12  C   UNL     1      -1.079  13.332  19.508  0.00  0.00    +0.000 C 
ENDROOT
BRANCH  10  13
ATOM     13  C   UNL     1       1.381  10.117  19.609  0.00  0.00    +0.000 A 
ATOM     14  C   UNL     1       1.915  10.075  18.341  0.00  0.00    +0.000 A 
ATOM     15  C   UNL     1       1.520   9.144  17.416  0.00  0.00    +0.000 A 
ATOM     16  C   UNL     1       2.334   8.108  17.634  0.00  0.00    +0.000 A 
ATOM     17  C   UNL     1       2.250   7.690  18.927  0.00  0.00    +0.000 A 
ATOM     18  C   UNL     1       2.698   6.361  19.069  0.00  0.00    +0.000 A 
ATOM     19  C   UNL     1       2.264   5.585  20.110  0.00  0.00    +0.000 A 
ATOM     20  C   UNL     1       1.444   6.209  21.037  0.00  0.00    +0.000 A 
ATOM     21  C   UNL     1       1.148   7.646  20.974  0.00  0.00    +0.000 A 
ATOM     22  C   UNL     1       1.563   8.579  19.898  0.00  0.00    +0.000 A 
ENDBRANCH  10  13
BRANCH  12  23
ATOM     23  C   UNL     1      -1.737  12.800  20.834  0.00  0.00    +0.000 A 
ATOM     24  C   UNL     1      -0.778  12.485  21.798  0.00  0.00    +0.000 A 
ATOM     25  C   UNL     1      -1.235  11.857  22.916  0.00  0.00    +0.000 A 
ATOM     26  C   UNL     1      -2.130  12.693  23.520  0.00  0.00    +0.000 A 
ATOM     27  C   UNL     1      -3.253  12.975  22.782  0.00  0.00    +0.000 A 
ATOM     28  C   UNL     1      -4.395  13.264  23.552  0.00  0.00    +0.000 A 
ATOM     29  C   UNL     1      -5.650  13.105  23.011  0.00  0.00    +0.000 A 
ATOM     30  C   UNL     1      -5.726  12.767  21.666  0.00  0.00    +0.000 A 
ATOM     31  C   UNL     1      -4.547  12.722  20.835  0.00  0.00    +0.000 A 
ATOM     32  C   UNL     1      -3.185  12.834  21.357  0.00  0.00    +0.000 A 
ENDBRANCH  12  23
TORSDOF 2
ENDMDL
MODEL 6
REMARK VINA RESULT:      -7.8      2.864      4.774
REMARK  Name = 
REMARK  2 active torsions:
REMARK  status: ('A' for Active; 'I' for Inactive)
REMARK    1  A    between atoms: C_10  and  C_11
REMARK    2  A    between atoms: C_22  and  C_23
REMARK                            x       y       z     vdW  Elec       q    Type
REMARK                         _______ _______ _______ _____ _____    ______ ____
ROOT
ATOM      1  O   UNL     1      -3.000  17.253  21.849  0.00  0.00    +0.000 OA
ATOM      2  S   UNL     1      -2.886  15.978  20.927  0.00  0.00    +0.000 S 
ATOM      3  C   UNL     1      -3.952  14.725  21.720  0.00  0.00    +0.000 A 
ATOM      4  C   UNL     1      -5.029  15.266  22.501  0.00  0.00    +0.000 A 
ATOM      5  C   UNL     1      -6.110  14.511  22.962  0.00  0.00    +0.000 A 
ATOM      6  C   UNL     1      -6.158  13.176  22.618  0.00  0.00    +0.000 A 
ATOM      7  C   UNL     1      -5.080  12.608  21.891  0.00  0.00    +0.000 A 
ATOM      8  C   UNL     1      -3.919  13.344  21.455  0.00  0.00    +0.000 A 
ATOM      9  N   UNL     1      -2.902  12.606  20.753  0.00  0.00    +0.000 NA
ATOM     10  C   UNL     1      -1.571  12.738  20.788  0.00  0.00    +0.000 C 
ATOM     11  C   UNL     1      -1.001  13.945  21.576  0.00  0.00    +0.000 C 
ATOM     12  C   UNL     1      -1.110  15.423  21.013  0.00  0.00    +0.000 C 
ENDROOT
BRANCH  10  13
ATOM     13  C   UNL     1      -0.458  11.541  20.065  0.00  0.00    +0.000 A 
ATOM     14  C   UNL     1      -0.589  10.940  21.297  0.00  0.00    +0.000 A 
ATOM     15  C   UNL     1       0.497  10.516  22.018  0.00  0.00    +0.000 A 
ATOM     16  C   UNL     1       0.697   9.265  21.593  0.00  0.00    +0.000 A 
ATOM     17  C   UNL     1       0.869   9.235  20.242  0.00  0.00    +0.000 A 
ATOM     18  C   UNL     1       1.537   8.062  19.834  0.00  0.00    +0.000 A 
ATOM     19  C   UNL     1       2.240   8.032  18.660  0.00  0.00    +0.000 A 
ATOM     20  C   UNL     1       2.179   9.177  17.881  0.00  0.00    +0.000 A 
ATOM     21  C   UNL     1       1.319  10.314  18.233  0.00  0.00    +0.000 A 
ATOM     22  C   UNL     1       0.517  10.455  19.473  0.00  0.00    +0.000 A 
ENDBRANCH  10  13
BRANCH  12  23
ATOM     23  C   UNL     1      -0.378  15.815  19.678  0.00  0.00    +0.000 A 
ATOM     24  C   UNL     1      -0.941  16.950  19.091  0.00  0.00    +0.000 A 
ATOM     25  C   UNL     1      -0.490  17.269  17.847  0.00  0.00    +0.000 A 
ATOM     26  C   UNL     1       0.851  17.509  17.944  0.00  0.00    +0.000 A 
ATOM     27  C   UNL     1       1.608  16.432  18.335  0.00  0.00    +0.000 A 
ATOM     28  C   UNL     1       2.929  16.446  17.852  0.00  0.00    +0.000 A 
ATOM     29  C   UNL     1       3.641  15.273  17.754  0.00  0.00    +0.000 A 
ATOM     30  C   UNL     1       3.044  14.122  18.252  0.00  0.00    +0.000 A 
ATOM     31  C   UNL     1       1.793  14.175  18.970  0.00  0.00    +0.000 A 
ATOM     32  C   UNL     1       0.968  15.379  19.068  0.00  0.00    +0.000 A 
ENDBRANCH  12  23
TORSDOF 2
ENDMDL
MODEL 7
REMARK VINA RESULT:      -7.7      3.605      7.250
REMARK  Name = 
REMARK  2 active torsions:
REMARK  status: ('A' for Active; 'I' for Inactive)
REMARK    1  A    between atoms: C_10  and  C_11
REMARK    2  A    between atoms: C_22  and  C_23
REMARK                            x       y       z     vdW  Elec       q    Type
REMARK                         _______ _______ _______ _____ _____    ______ ____
ROOT
ATOM      1  O   UNL     1      -0.041   9.097  22.430  0.00  0.00    +0.000 OA
ATOM      2  S   UNL     1      -0.304  10.011  21.172  0.00  0.00    +0.000 S 
ATOM      3  C   UNL     1       0.966   9.517  19.955  0.00  0.00    +0.000 A 
ATOM      4  C   UNL     1       1.431   8.165  20.094  0.00  0.00    +0.000 A 
ATOM      5  C   UNL     1       2.183   7.498  19.125  0.00  0.00    +0.000 A 
ATOM      6  C   UNL     1       2.465   8.169  17.953  0.00  0.00    +0.000 A 
ATOM      7  C   UNL     1       2.061   9.522  17.814  0.00  0.00    +0.000 A 
ATOM      8  C   UNL     1       1.339  10.260  18.822  0.00  0.00    +0.000 A 
ATOM      9  N   UNL     1       1.033  11.636  18.531  0.00  0.00    +0.000 NA
ATOM     10  C   UNL     1       1.000  12.697  19.346  0.00  0.00    +0.000 C 
ATOM     11  C   UNL     1       1.171  12.427  20.863  0.00  0.00    +0.000 C 
ATOM     12  C   UNL     1       0.012  11.763  21.718  0.00  0.00    +0.000 C 
ENDROOT
BRANCH  10  13
ATOM     13  C   UNL     1       0.878  14.376  18.748  0.00  0.00    +0.000 A 
ATOM     14  C   UNL     1       2.228  14.209  18.531  0.00  0.00    +0.000 A 
ATOM     15  C   UNL     1       3.150  15.135  18.944  0.00  0.00    +0.000 A 
ATOM     16  C   UNL     1       3.239  15.982  17.915  0.00  0.00    +0.000 A 
ATOM     17  C   UNL     1       2.017  16.500  17.608  0.00  0.00    +0.000 A 
ATOM     18  C   UNL     1       2.136  17.706  16.887  0.00  0.00    +0.000 A 
ATOM     19  C   UNL     1       1.127  18.631  16.903  0.00  0.00    +0.000 A 
ATOM     20  C   UNL     1      -0.023  18.269  17.586  0.00  0.00    +0.000 A 
ATOM     21  C   UNL     1      -0.198  16.930  18.164  0.00  0.00    +0.000 A 
ATOM     22  C   UNL     1       0.822  15.854  18.206  0.00  0.00    +0.000 A 
ENDBRANCH  10  13
BRANCH  12  23
ATOM     23  C   UNL     1      -1.361  12.507  21.897  0.00  0.00    +0.000 A 
ATOM     24  C   UNL     1      -2.310  12.074  20.968  0.00  0.00    +0.000 A 
ATOM     25  C   UNL     1      -3.475  12.777  20.929  0.00  0.00    +0.000 A 
ATOM     26  C   UNL     1      -4.061  12.671  22.158  0.00  0.00    +0.000 A 
ATOM     27  C   UNL     1      -3.346  13.221  23.194  0.00  0.00    +0.000 A 
ATOM     28  C   UNL     1      -4.134  13.681  24.264  0.00  0.00    +0.000 A 
ATOM     29  C   UNL     1      -3.645  14.640  25.119  0.00  0.00    +0.000 A 
ATOM     30  C   UNL     1      -2.324  15.033  24.947  0.00  0.00    +0.000 A 
ATOM     31  C   UNL     1      -1.458  14.366  24.004  0.00  0.00    +0.000 A 
ATOM     32  C   UNL     1      -1.929  13.375  23.036  0.00  0.00    +0.000 A 
ENDBRANCH  12  23
TORSDOF 2
ENDMDL
MODEL 8
REMARK VINA RESULT:      -7.7      2.175      4.688
REMARK  Name = 
REMARK  2 active torsions:
REMARK  status: ('A' for Active; 'I' for Inactive)
REMARK    1  A    between atoms: C_10  and  C_11
REMARK    2  A    between atoms: C_22  and  C_23
REMARK                            x       y       z     vdW  Elec       q    Type
REMARK                         _______ _______ _______ _____ _____    ______ ____
ROOT
ATOM      1  O   UNL     1      -5.040  12.730  22.518  0.00  0.00    +0.000 OA
ATOM      2  S   UNL     1      -3.515  13.131  22.548  0.00  0.00    +0.000 S 
ATOM      3  C   UNL     1      -3.486  14.829  23.220  0.00  0.00    +0.000 A 
ATOM      4  C   UNL     1      -4.593  15.150  24.078  0.00  0.00    +0.000 A 
ATOM      5  C   UNL     1      -4.634  16.274  24.905  0.00  0.00    +0.000 A 
ATOM      6  C   UNL     1      -3.532  17.104  24.921  0.00  0.00    +0.000 A 
ATOM      7  C   UNL     1      -2.449  16.836  24.044  0.00  0.00    +0.000 A 
ATOM      8  C   UNL     1      -2.402  15.720  23.132  0.00  0.00    +0.000 A 
ATOM      9  N   UNL     1      -1.240  15.612  22.290  0.00  0.00    +0.000 NA
ATOM     10  C   UNL     1      -1.136  15.195  21.023  0.00  0.00    +0.000 C 
ATOM     11  C   UNL     1      -2.407  14.594  20.371  0.00  0.00    +0.000 C 
ATOM     12  C   UNL     1      -2.942  13.157  20.777  0.00  0.00    +0.000 C 
ENDROOT
BRANCH  10  13
ATOM     13  C   UNL     1       0.349  15.402  20.052  0.00  0.00    +0.000 A 
ATOM     14  C   UNL     1       0.610  14.127  20.504  0.00  0.00    +0.000 A 
ATOM     15  C   UNL     1       1.819  13.783  21.050  0.00  0.00    +0.000 A 
ATOM     16  C   UNL     1       2.550  13.401  19.998  0.00  0.00    +0.000 A 
ATOM     17  C   UNL     1       2.613  14.392  19.067  0.00  0.00    +0.000 A 
ATOM     18  C   UNL     1       3.720  14.224  18.210  0.00  0.00    +0.000 A 
ATOM     19  C   UNL     1       4.264  15.295  17.554  0.00  0.00    +0.000 A 
ATOM     20  C   UNL     1       3.614  16.508  17.720  0.00  0.00    +0.000 A 
ATOM     21  C   UNL     1       2.350  16.621  18.460  0.00  0.00    +0.000 A 
ATOM     22  C   UNL     1       1.672  15.533  19.206  0.00  0.00    +0.000 A 
ENDBRANCH  10  13
BRANCH  12  23
ATOM     23  C   UNL     1      -2.065  11.882  20.495  0.00  0.00    +0.000 A 
ATOM     24  C   UNL     1      -1.893  11.663  19.127  0.00  0.00    +0.000 A 
ATOM     25  C   UNL     1      -1.295  10.491  18.778  0.00  0.00    +0.000 A 
ATOM     26  C   UNL     1      -0.046  10.486  19.330  0.00  0.00    +0.000 A 
ATOM     27  C   UNL     1      -0.017  10.508  20.703  0.00  0.00    +0.000 A 
ATOM     28  C   UNL     1       1.114   9.891  21.269  0.00  0.00    +0.000 A 
ATOM     29  C   UNL     1       1.071   9.425  22.562  0.00  0.00    +0.000 A 
ATOM     30  C   UNL     1      -0.076   9.692  23.298  0.00  0.00    +0.000 A 
ATOM     31  C   UNL     1      -1.120  10.543  22.779  0.00  0.00    +0.000 A 
ATOM     32  C   UNL     1      -1.155  11.029  21.401  0.00  0.00    +0.000 A 
ENDBRANCH  12  23
TORSDOF 2
ENDMDL
MODEL 9
REMARK VINA RESULT:      -7.5      2.626      5.284
REMARK  Name = 
REMARK  2 active torsions:
REMARK  status: ('A' for Active; 'I' for Inactive)
REMARK    1  A    between atoms: C_10  and  C_11
REMARK    2  A    between atoms: C_22  and  C_23
REMARK                            x       y       z     vdW  Elec       q    Type
REMARK                         _______ _______ _______ _____ _____    ______ ____
ROOT
ATOM      1  O   UNL     1      -4.891  12.555  22.170  0.00  0.00    +0.000 OA
ATOM      2  S   UNL     1      -3.315  12.515  22.146  0.00  0.00    +0.000 S 
ATOM      3  C   UNL     1      -2.791  13.793  23.342  0.00  0.00    +0.000 A 
ATOM      4  C   UNL     1      -3.741  14.057  24.387  0.00  0.00    +0.000 A 
ATOM      5  C   UNL     1      -3.443  14.780  25.544  0.00  0.00    +0.000 A 
ATOM      6  C   UNL     1      -2.152  15.239  25.703  0.00  0.00    +0.000 A 
ATOM      7  C   UNL     1      -1.210  15.035  24.661  0.00  0.00    +0.000 A 
ATOM      8  C   UNL     1      -1.502  14.348  23.427  0.00  0.00    +0.000 A 
ATOM      9  N   UNL     1      -0.439  14.256  22.462  0.00  0.00    +0.000 NA
ATOM     10  C   UNL     1      -0.487  14.308  21.126  0.00  0.00    +0.000 C 
ATOM     11  C   UNL     1      -1.892  14.326  20.471  0.00  0.00    +0.000 C 
ATOM     12  C   UNL     1      -2.800  13.026  20.431  0.00  0.00    +0.000 C 
ENDROOT
BRANCH  10  13
ATOM     13  C   UNL     1       0.972  14.461  20.107  0.00  0.00    +0.000 A 
ATOM     14  C   UNL     1       0.610  15.790  20.099  0.00  0.00    +0.000 A 
ATOM     15  C   UNL     1       0.543  16.517  18.939  0.00  0.00    +0.000 A 
ATOM     16  C   UNL     1       1.778  17.005  18.793  0.00  0.00    +0.000 A 
ATOM     17  C   UNL     1       2.696  16.000  18.776  0.00  0.00    +0.000 A 
ATOM     18  C   UNL     1       3.897  16.410  18.162  0.00  0.00    +0.000 A 
ATOM     19  C   UNL     1       4.741  15.493  17.597  0.00  0.00    +0.000 A 
ATOM     20  C   UNL     1       4.384  14.162  17.743  0.00  0.00    +0.000 A 
ATOM     21  C   UNL     1       3.231  13.749  18.554  0.00  0.00    +0.000 A 
ATOM     22  C   UNL     1       2.252  14.651  19.209  0.00  0.00    +0.000 A 
ENDBRANCH  10  13
BRANCH  12  23
ATOM     23  C   UNL     1      -2.327  11.758  19.631  0.00  0.00    +0.000 A 
ATOM     24  C   UNL     1      -3.085  11.562  18.475  0.00  0.00    +0.000 A 
ATOM     25  C   UNL     1      -2.867  10.397  17.805  0.00  0.00    +0.000 A 
ATOM     26  C   UNL     1      -1.558  10.386  17.415  0.00  0.00    +0.000 A 
ATOM     27  C   UNL     1      -0.645  10.386  18.441  0.00  0.00    +0.000 A 
ATOM     28  C   UNL     1       0.577   9.763  18.130  0.00  0.00    +0.000 A 
ATOM     29  C   UNL     1       1.379   9.275  19.135  0.00  0.00    +0.000 A 
ATOM     30  C   UNL     1       0.986   9.528  20.443  0.00  0.00    +0.000 A 
ATOM     31  C   UNL     1      -0.138  10.384  20.737  0.00  0.00    +0.000 A 
ATOM     32  C   UNL     1      -1.055  10.893  19.718  0.00  0.00    +0.000 A 
ENDBRANCH  12  23
TORSDOF 2
ENDMDL
