MODEL 1
REMARK VINA RESULT:      -8.2      0.000      0.000
REMARK  Name = 
REMARK  8 active torsions:
REMARK  status: ('A' for Active; 'I' for Inactive)
REMARK    1  A    between atoms: C_1  and  C_2
REMARK    2  A    between atoms: C_2  and  O_3
REMARK    3  A    between atoms: O_3  and  C_4
REMARK    4  A    between atoms: C_4  and  C_6
REMARK    5  A    between atoms: C_14  and  N_15
REMARK    6  A    between atoms: N_18  and  C_19
REMARK    7  A    between atoms: C_22  and  O_23
REMARK    8  A    between atoms: O_23  and  C_24
REMARK                            x       y       z     vdW  Elec       q    Type
REMARK                         _______ _______ _______ _____ _____    ______ ____
ROOT
ATOM      1  C   UNL     1       4.320   3.470  18.851  0.00  0.00    +0.000 A 
ATOM      2  N   UNL     1       4.800   2.978  17.659  0.00  0.00    +0.000 N 
ATOM      3  C   UNL     1       5.033   3.985  16.765  0.00  0.00    +0.000 A 
ATOM      4  C   UNL     1       5.574   3.925  15.475  0.00  0.00    +0.000 A 
ATOM      5  C   UNL     1       5.736   5.124  14.779  0.00  0.00    +0.000 A 
ATOM      6  C   UNL     1       5.387   6.334  15.366  0.00  0.00    +0.000 A 
ATOM      7  C   UNL     1       4.853   6.373  16.659  0.00  0.00    +0.000 A 
ATOM      8  C   UNL     1       4.641   5.175  17.379  0.00  0.00    +0.000 A 
ATOM      9  C   UNL     1       4.128   4.834  18.681  0.00  0.00    +0.000 A 
ATOM     10  H   UNL     1       5.015   2.001  17.504  0.00  0.00    +0.000 HD
ENDROOT
BRANCH   9  11
ATOM     11  N   UNL     1       3.590   5.647  19.683  0.00  0.00    +0.000 N 
ATOM     12  C   UNL     1       2.556   6.538  19.472  0.00  0.00    +0.000 C 
ATOM     13  O   UNL     1       1.894   6.604  18.442  0.00  0.00    +0.000 OA
ATOM     14  N   UNL     1       2.366   7.372  20.568  0.00  0.00    +0.000 N 
ATOM     15  H   UNL     1       3.704   5.309  20.634  0.00  0.00    +0.000 HD
ATOM     16  H   UNL     1       3.197   7.553  21.113  0.00  0.00    +0.000 HD
BRANCH  14  17
ATOM     17  C   UNL     1       1.365   8.373  20.570  0.00  0.00    +0.000 A 
ATOM     18  C   UNL     1       1.252   9.298  19.528  0.00  0.00    +0.000 A 
ATOM     19  C   UNL     1       0.316  10.330  19.594  0.00  0.00    +0.000 A 
ATOM     20  C   UNL     1      -0.531  10.443  20.693  0.00  0.00    +0.000 A 
ATOM     21  C   UNL     1      -0.438   9.511  21.728  0.00  0.00    +0.000 A 
ATOM     22  C   UNL     1       0.491   8.463  21.655  0.00  0.00    +0.000 A 
BRANCH  20  23
ATOM     23  O   UNL     1      -1.366  11.526  20.671  0.00  0.00    +0.000 OA
ATOM     24  C   UNL     1      -1.670  12.100  21.935  0.00  0.00    +0.000 C 
ENDBRANCH  20  23
ENDBRANCH  14  17
ENDBRANCH   9  11
BRANCH   1  25
ATOM     25  C   UNL     1       4.106   2.659  20.018  0.00  0.00    +0.000 C 
ATOM     26  O   UNL     1       4.928   1.893  20.505  0.00  0.00    +0.000 OA
BRANCH  25  27
ATOM     27  O   UNL     1       2.813   2.800  20.425  0.00  0.00    +0.000 OA
BRANCH  27  29
ATOM     28  C   UNL     1       0.691   3.121  19.377  0.00  0.00    +0.000 C 
ATOM     29  C   UNL     1       1.833   2.147  19.609  0.00  0.00    +0.000 C 
ENDBRANCH  27  29
ENDBRANCH  25  27
ENDBRANCH   1  25
TORSDOF 6
ENDMDL
MODEL 2
REMARK VINA RESULT:      -8.1      0.578      1.143
REMARK  Name = 
REMARK  8 active torsions:
REMARK  status: ('A' for Active; 'I' for Inactive)
REMARK    1  A    between atoms: C_1  and  C_2
REMARK    2  A    between atoms: C_2  and  O_3
REMARK    3  A    between atoms: O_3  and  C_4
REMARK    4  A    between atoms: C_4  and  C_6
REMARK    5  A    between atoms: C_14  and  N_15
REMARK    6  A    between atoms: N_18  and  C_19
REMARK    7  A    between atoms: C_22  and  O_23
REMARK    8  A    between atoms: O_23  and  C_24
REMARK                            x       y       z     vdW  Elec       q    Type
REMARK                         _______ _______ _______ _____ _____    ______ ____
ROOT
ATOM      1  C   UNL     1       4.320   3.527  18.913  0.00  0.00    +0.000 A 
ATOM      2  N   UNL     1       4.828   3.021  17.738  0.00  0.00    +0.000 N 
ATOM      3  C   UNL     1       5.052   4.015  16.827  0.00  0.00    +0.000 A 
ATOM      4  C   UNL     1       5.612   3.940  15.546  0.00  0.00    +0.000 A 
ATOM      5  C   UNL     1       5.758   5.128  14.827  0.00  0.00    +0.000 A 
ATOM      6  C   UNL     1       5.374   6.342  15.385  0.00  0.00    +0.000 A 
ATOM      7  C   UNL     1       4.821   6.395  16.669  0.00  0.00    +0.000 A 
ATOM      8  C   UNL     1       4.624   5.208  17.411  0.00  0.00    +0.000 A 
ATOM      9  C   UNL     1       4.100   4.883  18.712  0.00  0.00    +0.000 A 
ATOM     10  H   UNL     1       5.066   2.046  17.607  0.00  0.00    +0.000 HD
ENDROOT
BRANCH   9  11
ATOM     11  N   UNL     1       3.530   5.703  19.689  0.00  0.00    +0.000 N 
ATOM     12  C   UNL     1       2.567   6.656  19.421  0.00  0.00    +0.000 C 
ATOM     13  O   UNL     1       1.994   6.782  18.344  0.00  0.00    +0.000 OA
ATOM     14  N   UNL     1       2.337   7.477  20.519  0.00  0.00    +0.000 N 
ATOM     15  H   UNL     1       3.548   5.339  20.637  0.00  0.00    +0.000 HD
ATOM     16  H   UNL     1       3.131   7.598  21.132  0.00  0.00    +0.000 HD
BRANCH  14  17
ATOM     17  C   UNL     1       1.396   8.533  20.468  0.00  0.00    +0.000 A 
ATOM     18  C   UNL     1       0.405   8.679  21.443  0.00  0.00    +0.000 A 
ATOM     19  C   UNL     1      -0.566   9.674  21.323  0.00  0.00    +0.000 A 
ATOM     20  C   UNL     1      -0.551  10.547  20.238  0.00  0.00    +0.000 A 
ATOM     21  C   UNL     1       0.448  10.419  19.271  0.00  0.00    +0.000 A 
ATOM     22  C   UNL     1       1.435   9.431  19.399  0.00  0.00    +0.000 A 
BRANCH  20  23
ATOM     23  O   UNL     1      -1.584  11.441  20.201  0.00  0.00    +0.000 OA
ATOM     24  C   UNL     1      -2.257  11.559  18.954  0.00  0.00    +0.000 C 
ENDBRANCH  20  23
ENDBRANCH  14  17
ENDBRANCH   9  11
BRANCH   1  25
ATOM     25  C   UNL     1       4.107   2.735  20.094  0.00  0.00    +0.000 C 
ATOM     26  O   UNL     1       4.886   1.899  20.532  0.00  0.00    +0.000 OA
BRANCH  25  27
ATOM     27  O   UNL     1       2.859   2.989  20.578  0.00  0.00    +0.000 OA
BRANCH  27  29
ATOM     28  C   UNL     1       0.728   3.315  19.550  0.00  0.00    +0.000 C 
ATOM     29  C   UNL     1       1.788   2.295  19.925  0.00  0.00    +0.000 C 
ENDBRANCH  27  29
ENDBRANCH  25  27
ENDBRANCH   1  25
TORSDOF 6
ENDMDL
MODEL 3
REMARK VINA RESULT:      -7.9      2.385      4.016
REMARK  Name = 
REMARK  8 active torsions:
REMARK  status: ('A' for Active; 'I' for Inactive)
REMARK    1  A    between atoms: C_1  and  C_2
REMARK    2  A    between atoms: C_2  and  O_3
REMARK    3  A    between atoms: O_3  and  C_4
REMARK    4  A    between atoms: C_4  and  C_6
REMARK    5  A    between atoms: C_14  and  N_15
REMARK    6  A    between atoms: N_18  and  C_19
REMARK    7  A    between atoms: C_22  and  O_23
REMARK    8  A    between atoms: O_23  and  C_24
REMARK                            x       y       z     vdW  Elec       q    Type
REMARK                         _______ _______ _______ _____ _____    ______ ____
ROOT
ATOM      1  C   UNL     1       5.259   5.189  17.870  0.00  0.00    +0.000 A 
ATOM      2  N   UNL     1       5.272   3.900  18.351  0.00  0.00    +0.000 N 
ATOM      3  C   UNL     1       4.004   3.411  18.491  0.00  0.00    +0.000 A 
ATOM      4  C   UNL     1       3.577   2.137  18.886  0.00  0.00    +0.000 A 
ATOM      5  C   UNL     1       2.204   1.888  18.915  0.00  0.00    +0.000 A 
ATOM      6  C   UNL     1       1.300   2.876  18.541  0.00  0.00    +0.000 A 
ATOM      7  C   UNL     1       1.747   4.140  18.144  0.00  0.00    +0.000 A 
ATOM      8  C   UNL     1       3.128   4.439  18.138  0.00  0.00    +0.000 A 
ATOM      9  C   UNL     1       3.932   5.587  17.806  0.00  0.00    +0.000 A 
ATOM     10  H   UNL     1       6.121   3.370  18.507  0.00  0.00    +0.000 HD
ENDROOT
BRANCH   9  11
ATOM     11  N   UNL     1       3.552   6.874  17.413  0.00  0.00    +0.000 N 
ATOM     12  C   UNL     1       2.734   7.693  18.165  0.00  0.00    +0.000 C 
ATOM     13  O   UNL     1       2.382   7.458  19.316  0.00  0.00    +0.000 OA
ATOM     14  N   UNL     1       2.336   8.818  17.450  0.00  0.00    +0.000 N 
ATOM     15  H   UNL     1       4.179   7.341  16.764  0.00  0.00    +0.000 HD
ATOM     16  H   UNL     1       2.279   8.686  16.450  0.00  0.00    +0.000 HD
BRANCH  14  17
ATOM     17  C   UNL     1       1.483   9.793  18.020  0.00  0.00    +0.000 A 
ATOM     18  C   UNL     1       0.107   9.580  18.142  0.00  0.00    +0.000 A 
ATOM     19  C   UNL     1      -0.726  10.590  18.624  0.00  0.00    +0.000 A 
ATOM     20  C   UNL     1      -0.195  11.819  19.007  0.00  0.00    +0.000 A 
ATOM     21  C   UNL     1       1.181  12.031  18.907  0.00  0.00    +0.000 A 
ATOM     22  C   UNL     1       2.022  11.011  18.438  0.00  0.00    +0.000 A 
BRANCH  20  23
ATOM     23  O   UNL     1      -1.115  12.747  19.410  0.00  0.00    +0.000 OA
ATOM     24  C   UNL     1      -2.456  12.285  19.510  0.00  0.00    +0.000 C 
ENDBRANCH  20  23
ENDBRANCH  14  17
ENDBRANCH   9  11
BRANCH   1  25
ATOM     25  C   UNL     1       6.446   5.913  17.503  0.00  0.00    +0.000 C 
ATOM     26  O   UNL     1       7.246   6.403  18.290  0.00  0.00    +0.000 OA
BRANCH  25  27
ATOM     27  O   UNL     1       6.476   6.055  16.148  0.00  0.00    +0.000 OA
BRANCH  27  29
ATOM     28  C   UNL     1       5.940   4.535  14.386  0.00  0.00    +0.000 C 
ATOM     29  C   UNL     1       6.981   4.930  15.418  0.00  0.00    +0.000 C 
ENDBRANCH  27  29
ENDBRANCH  25  27
ENDBRANCH   1  25
TORSDOF 6
ENDMDL
MODEL 4
REMARK VINA RESULT:      -7.9      2.598      4.169
REMARK  Name = 
REMARK  8 active torsions:
REMARK  status: ('A' for Active; 'I' for Inactive)
REMARK    1  A    between atoms: C_1  and  C_2
REMARK    2  A    between atoms: C_2  and  O_3
REMARK    3  A    between atoms: O_3  and  C_4
REMARK    4  A    between atoms: C_4  and  C_6
REMARK    5  A    between atoms: C_14  and  N_15
REMARK    6  A    between atoms: N_18  and  C_19
REMARK    7  A    between atoms: C_22  and  O_23
REMARK    8  A    between atoms: O_23  and  C_24
REMARK                            x       y       z     vdW  Elec       q    Type
REMARK                         _______ _______ _______ _____ _____    ______ ____
ROOT
ATOM      1  C   UNL     1       4.979   4.968  18.991  0.00  0.00    +0.000 A 
ATOM      2  N   UNL     1       4.804   3.706  19.510  0.00  0.00    +0.000 N 
ATOM      3  C   UNL     1       3.534   3.253  19.292  0.00  0.00    +0.000 A 
ATOM      4  C   UNL     1       2.964   2.011  19.600  0.00  0.00    +0.000 A 
ATOM      5  C   UNL     1       1.635   1.794  19.234  0.00  0.00    +0.000 A 
ATOM      6  C   UNL     1       0.916   2.779  18.567  0.00  0.00    +0.000 A 
ATOM      7  C   UNL     1       1.506   4.011  18.263  0.00  0.00    +0.000 A 
ATOM      8  C   UNL     1       2.838   4.280  18.651  0.00  0.00    +0.000 A 
ATOM      9  C   UNL     1       3.744   5.391  18.520  0.00  0.00    +0.000 A 
ATOM     10  H   UNL     1       5.549   3.167  19.933  0.00  0.00    +0.000 HD
ENDROOT
BRANCH   9  11
ATOM     11  N   UNL     1       3.544   6.663  17.976  0.00  0.00    +0.000 N 
ATOM     12  C   UNL     1       2.674   7.594  18.508  0.00  0.00    +0.000 C 
ATOM     13  O   UNL     1       2.107   7.478  19.589  0.00  0.00    +0.000 OA
ATOM     14  N   UNL     1       2.499   8.679  17.656  0.00  0.00    +0.000 N 
ATOM     15  H   UNL     1       4.310   7.031  17.421  0.00  0.00    +0.000 HD
ATOM     16  H   UNL     1       2.608   8.468  16.674  0.00  0.00    +0.000 HD
BRANCH  14  17
ATOM     17  C   UNL     1       1.639   9.752  17.992  0.00  0.00    +0.000 A 
ATOM     18  C   UNL     1       2.140  11.003  18.361  0.00  0.00    +0.000 A 
ATOM     19  C   UNL     1       1.277  12.018  18.776  0.00  0.00    +0.000 A 
ATOM     20  C   UNL     1      -0.098  11.803  18.811  0.00  0.00    +0.000 A 
ATOM     21  C   UNL     1      -0.607  10.562  18.425  0.00  0.00    +0.000 A 
ATOM     22  C   UNL     1       0.258   9.546  17.992  0.00  0.00    +0.000 A 
BRANCH  20  23
ATOM     23  O   UNL     1      -0.835  12.851  19.287  0.00  0.00    +0.000 OA
ATOM     24  C   UNL     1      -0.289  14.144  19.063  0.00  0.00    +0.000 C 
ENDBRANCH  20  23
ENDBRANCH  14  17
ENDBRANCH   9  11
BRANCH   1  25
ATOM     25  C   UNL     1       6.247   5.645  18.957  0.00  0.00    +0.000 C 
ATOM     26  O   UNL     1       7.114   5.563  19.818  0.00  0.00    +0.000 OA
BRANCH  25  27
ATOM     27  O   UNL     1       6.279   6.471  17.873  0.00  0.00    +0.000 OA
BRANCH  27  29
ATOM     28  C   UNL     1       7.851   8.259  17.682  0.00  0.00    +0.000 C 
ATOM     29  C   UNL     1       7.585   6.795  17.380  0.00  0.00    +0.000 C 
ENDBRANCH  27  29
ENDBRANCH  25  27
ENDBRANCH   1  25
TORSDOF 6
ENDMDL
MODEL 5
REMARK VINA RESULT:      -7.9      2.045      4.118
REMARK  Name = 
REMARK  8 active torsions:
REMARK  status: ('A' for Active; 'I' for Inactive)
REMARK    1  A    between atoms: C_1  and  C_2
REMARK    2  A    between atoms: C_2  and  O_3
REMARK    3  A    between atoms: O_3  and  C_4
REMARK    4  A    between atoms: C_4  and  C_6
REMARK    5  A    between atoms: C_14  and  N_15
REMARK    6  A    between atoms: N_18  and  C_19
REMARK    7  A    between atoms: C_22  and  O_23
REMARK    8  A    between atoms: O_23  and  C_24
REMARK                            x       y       z     vdW  Elec       q    Type
REMARK                         _______ _______ _______ _____ _____    ______ ____
ROOT
ATOM      1  C   UNL     1       4.462   5.372  17.204  0.00  0.00    +0.000 A 
ATOM      2  N   UNL     1       4.635   4.007  17.222  0.00  0.00    +0.000 N 
ATOM      3  C   UNL     1       3.540   3.376  17.740  0.00  0.00    +0.000 A 
ATOM      4  C   UNL     1       3.282   2.007  17.880  0.00  0.00    +0.000 A 
ATOM      5  C   UNL     1       2.053   1.626  18.420  0.00  0.00    +0.000 A 
ATOM      6  C   UNL     1       1.115   2.585  18.786  0.00  0.00    +0.000 A 
ATOM      7  C   UNL     1       1.390   3.948  18.633  0.00  0.00    +0.000 A 
ATOM      8  C   UNL     1       2.639   4.371  18.124  0.00  0.00    +0.000 A 
ATOM      9  C   UNL     1       3.258   5.639  17.839  0.00  0.00    +0.000 A 
ATOM     10  H   UNL     1       5.445   3.542  16.832  0.00  0.00    +0.000 HD
ENDROOT
BRANCH   9  11
ATOM     11  N   UNL     1       2.794   6.941  18.052  0.00  0.00    +0.000 N 
ATOM     12  C   UNL     1       2.227   7.366  19.237  0.00  0.00    +0.000 C 
ATOM     13  O   UNL     1       2.211   6.713  20.274  0.00  0.00    +0.000 OA
ATOM     14  N   UNL     1       1.653   8.627  19.108  0.00  0.00    +0.000 N 
ATOM     15  H   UNL     1       3.217   7.661  17.473  0.00  0.00    +0.000 HD
ATOM     16  H   UNL     1       1.317   8.846  18.181  0.00  0.00    +0.000 HD
BRANCH  14  17
ATOM     17  C   UNL     1       1.003   9.257  20.196  0.00  0.00    +0.000 A 
ATOM     18  C   UNL     1       1.224   8.853  21.515  0.00  0.00    +0.000 A 
ATOM     19  C   UNL     1       0.505   9.428  22.563  0.00  0.00    +0.000 A 
ATOM     20  C   UNL     1      -0.432  10.427  22.310  0.00  0.00    +0.000 A 
ATOM     21  C   UNL     1      -0.643  10.850  20.996  0.00  0.00    +0.000 A 
ATOM     22  C   UNL     1       0.091  10.284  19.944  0.00  0.00    +0.000 A 
BRANCH  20  23
ATOM     23  O   UNL     1      -1.112  10.874  23.408  0.00  0.00    +0.000 OA
ATOM     24  C   UNL     1      -2.084  11.882  23.167  0.00  0.00    +0.000 C 
ENDBRANCH  20  23
ENDBRANCH  14  17
ENDBRANCH   9  11
BRANCH   1  25
ATOM     25  C   UNL     1       5.394   6.284  16.597  0.00  0.00    +0.000 C 
ATOM     26  O   UNL     1       5.600   6.385  15.394  0.00  0.00    +0.000 OA
BRANCH  25  27
ATOM     27  O   UNL     1       6.080   6.934  17.579  0.00  0.00    +0.000 OA
BRANCH  27  29
ATOM     28  C   UNL     1       7.918   8.452  17.722  0.00  0.00    +0.000 C 
ATOM     29  C   UNL     1       7.496   7.033  17.382  0.00  0.00    +0.000 C 
ENDBRANCH  27  29
ENDBRANCH  25  27
ENDBRANCH   1  25
TORSDOF 6
ENDMDL
MODEL 6
REMARK VINA RESULT:      -7.8      2.283      3.907
REMARK  Name = 
REMARK  8 active torsions:
REMARK  status: ('A' for Active; 'I' for Inactive)
REMARK    1  A    between atoms: C_1  and  C_2
REMARK    2  A    between atoms: C_2  and  O_3
REMARK    3  A    between atoms: O_3  and  C_4
REMARK    4  A    between atoms: C_4  and  C_6
REMARK    5  A    between atoms: C_14  and  N_15
REMARK    6  A    between atoms: N_18  and  C_19
REMARK    7  A    between atoms: C_22  and  O_23
REMARK    8  A    between atoms: O_23  and  C_24
REMARK                            x       y       z     vdW  Elec       q    Type
REMARK                         _______ _______ _______ _____ _____    ______ ____
ROOT
ATOM      1  C   UNL     1       5.130   5.086  18.137  0.00  0.00    +0.000 A 
ATOM      2  N   UNL     1       5.081   3.804  18.635  0.00  0.00    +0.000 N 
ATOM      3  C   UNL     1       3.796   3.344  18.693  0.00  0.00    +0.000 A 
ATOM      4  C   UNL     1       3.315   2.086  19.076  0.00  0.00    +0.000 A 
ATOM      5  C   UNL     1       1.939   1.866  19.013  0.00  0.00    +0.000 A 
ATOM      6  C   UNL     1       1.084   2.866  18.564  0.00  0.00    +0.000 A 
ATOM      7  C   UNL     1       1.585   4.115  18.181  0.00  0.00    +0.000 A 
ATOM      8  C   UNL     1       2.970   4.385  18.267  0.00  0.00    +0.000 A 
ATOM      9  C   UNL     1       3.819   5.511  17.976  0.00  0.00    +0.000 A 
ATOM     10  H   UNL     1       5.905   3.259  18.856  0.00  0.00    +0.000 HD
ENDROOT
BRANCH   9  11
ATOM     11  N   UNL     1       3.496   6.799  17.540  0.00  0.00    +0.000 N 
ATOM     12  C   UNL     1       2.678   7.662  18.243  0.00  0.00    +0.000 C 
ATOM     13  O   UNL     1       2.279   7.466  19.385  0.00  0.00    +0.000 OA
ATOM     14  N   UNL     1       2.343   8.781  17.488  0.00  0.00    +0.000 N 
ATOM     15  H   UNL     1       4.160   7.230  16.903  0.00  0.00    +0.000 HD
ATOM     16  H   UNL     1       2.317   8.626  16.490  0.00  0.00    +0.000 HD
BRANCH  14  17
ATOM     17  C   UNL     1       1.502   9.796  18.005  0.00  0.00    +0.000 A 
ATOM     18  C   UNL     1       2.023  10.988  18.515  0.00  0.00    +0.000 A 
ATOM     19  C   UNL     1       1.183  11.935  19.102  0.00  0.00    +0.000 A 
ATOM     20  C   UNL     1      -0.190  11.713  19.171  0.00  0.00    +0.000 A 
ATOM     21  C   UNL     1      -0.719  10.532  18.646  0.00  0.00    +0.000 A 
ATOM     22  C   UNL     1       0.122   9.587  18.041  0.00  0.00    +0.000 A 
BRANCH  20  23
ATOM     23  O   UNL     1      -0.901  12.685  19.817  0.00  0.00    +0.000 OA
ATOM     24  C   UNL     1      -0.627  12.835  21.204  0.00  0.00    +0.000 C 
ENDBRANCH  20  23
ENDBRANCH  14  17
ENDBRANCH   9  11
BRANCH   1  25
ATOM     25  C   UNL     1       6.355   5.779  17.842  0.00  0.00    +0.000 C 
ATOM     26  O   UNL     1       7.173   6.151  18.674  0.00  0.00    +0.000 OA
BRANCH  25  27
ATOM     27  O   UNL     1       6.401   6.047  16.507  0.00  0.00    +0.000 OA
BRANCH  27  29
ATOM     28  C   UNL     1       5.823   4.676  14.639  0.00  0.00    +0.000 C 
ATOM     29  C   UNL     1       6.886   4.983  15.679  0.00  0.00    +0.000 C 
ENDBRANCH  27  29
ENDBRANCH  25  27
ENDBRANCH   1  25
TORSDOF 6
ENDMDL
MODEL 7
REMARK VINA RESULT:      -7.8      1.662      2.308
REMARK  Name = 
REMARK  8 active torsions:
REMARK  status: ('A' for Active; 'I' for Inactive)
REMARK    1  A    between atoms: C_1  and  C_2
REMARK    2  A    between atoms: C_2  and  O_3
REMARK    3  A    between atoms: O_3  and  C_4
REMARK    4  A    between atoms: C_4  and  C_6
REMARK    5  A    between atoms: C_14  and  N_15
REMARK    6  A    between atoms: N_18  and  C_19
REMARK    7  A    between atoms: C_22  and  O_23
REMARK    8  A    between atoms: O_23  and  C_24
REMARK                            x       y       z     vdW  Elec       q    Type
REMARK                         _______ _______ _______ _____ _____    ______ ____
ROOT
ATOM      1  C   UNL     1       2.991   4.531  18.137  0.00  0.00    +0.000 A 
ATOM      2  N   UNL     1       3.919   4.112  17.212  0.00  0.00    +0.000 N 
ATOM      3  C   UNL     1       5.180   4.505  17.563  0.00  0.00    +0.000 A 
ATOM      4  C   UNL     1       6.404   4.238  16.938  0.00  0.00    +0.000 A 
ATOM      5  C   UNL     1       7.563   4.740  17.531  0.00  0.00    +0.000 A 
ATOM      6  C   UNL     1       7.493   5.463  18.716  0.00  0.00    +0.000 A 
ATOM      7  C   UNL     1       6.260   5.714  19.328  0.00  0.00    +0.000 A 
ATOM      8  C   UNL     1       5.063   5.253  18.736  0.00  0.00    +0.000 A 
ATOM      9  C   UNL     1       3.662   5.320  19.060  0.00  0.00    +0.000 A 
ATOM     10  H   UNL     1       3.691   3.529  16.416  0.00  0.00    +0.000 HD
ENDROOT
BRANCH   9  11
ATOM     11  N   UNL     1       3.007   5.963  20.115  0.00  0.00    +0.000 N 
ATOM     12  C   UNL     1       2.253   7.109  19.962  0.00  0.00    +0.000 C 
ATOM     13  O   UNL     1       1.942   7.597  18.881  0.00  0.00    +0.000 OA
ATOM     14  N   UNL     1       1.902   7.661  21.189  0.00  0.00    +0.000 N 
ATOM     15  H   UNL     1       2.777   5.379  20.914  0.00  0.00    +0.000 HD
ATOM     16  H   UNL     1       2.557   7.482  21.937  0.00  0.00    +0.000 HD
BRANCH  14  17
ATOM     17  C   UNL     1       1.137   8.849  21.273  0.00  0.00    +0.000 A 
ATOM     18  C   UNL     1       0.466   9.206  22.446  0.00  0.00    +0.000 A 
ATOM     19  C   UNL     1      -0.355  10.333  22.478  0.00  0.00    +0.000 A 
ATOM     20  C   UNL     1      -0.504  11.129  21.345  0.00  0.00    +0.000 A 
ATOM     21  C   UNL     1       0.179  10.789  20.175  0.00  0.00    +0.000 A 
ATOM     22  C   UNL     1       1.018   9.666  20.147  0.00  0.00    +0.000 A 
BRANCH  20  23
ATOM     23  O   UNL     1      -1.376  12.173  21.481  0.00  0.00    +0.000 OA
ATOM     24  C   UNL     1      -1.113  13.063  22.558  0.00  0.00    +0.000 C 
ENDBRANCH  20  23
ENDBRANCH  14  17
ENDBRANCH   9  11
BRANCH   1  25
ATOM     25  C   UNL     1       1.603   4.155  18.098  0.00  0.00    +0.000 C 
ATOM     26  O   UNL     1       0.890   4.192  17.103  0.00  0.00    +0.000 OA
BRANCH  25  27
ATOM     27  O   UNL     1       1.190   3.857  19.362  0.00  0.00    +0.000 OA
BRANCH  27  29
ATOM     28  C   UNL     1       1.543   2.609  21.368  0.00  0.00    +0.000 C 
ATOM     29  C   UNL     1       1.573   2.565  19.850  0.00  0.00    +0.000 C 
ENDBRANCH  27  29
ENDBRANCH  25  27
ENDBRANCH   1  25
TORSDOF 6
ENDMDL
MODEL 8
REMARK VINA RESULT:      -7.7      2.311      4.196
REMARK  Name = 
REMARK  8 active torsions:
REMARK  status: ('A' for Active; 'I' for Inactive)
REMARK    1  A    between atoms: C_1  and  C_2
REMARK    2  A    between atoms: C_2  and  O_3
REMARK    3  A    between atoms: O_3  and  C_4
REMARK    4  A    between atoms: C_4  and  C_6
REMARK    5  A    between atoms: C_14  and  N_15
REMARK    6  A    between atoms: N_18  and  C_19
REMARK    7  A    between atoms: C_22  and  O_23
REMARK    8  A    between atoms: O_23  and  C_24
REMARK                            x       y       z     vdW  Elec       q    Type
REMARK                         _______ _______ _______ _____ _____    ______ ____
ROOT
ATOM      1  C   UNL     1       4.699   5.141  18.491  0.00  0.00    +0.000 A 
ATOM      2  N   UNL     1       4.791   4.033  19.302  0.00  0.00    +0.000 N 
ATOM      3  C   UNL     1       3.579   3.715  19.846  0.00  0.00    +0.000 A 
ATOM      4  C   UNL     1       3.225   2.639  20.668  0.00  0.00    +0.000 A 
ATOM      5  C   UNL     1       1.891   2.530  21.063  0.00  0.00    +0.000 A 
ATOM      6  C   UNL     1       0.949   3.456  20.630  0.00  0.00    +0.000 A 
ATOM      7  C   UNL     1       1.322   4.522  19.804  0.00  0.00    +0.000 A 
ATOM      8  C   UNL     1       2.671   4.684  19.415  0.00  0.00    +0.000 A 
ATOM      9  C   UNL     1       3.403   5.623  18.606  0.00  0.00    +0.000 A 
ATOM     10  H   UNL     1       5.640   3.492  19.414  0.00  0.00    +0.000 HD
ENDROOT
BRANCH   9  11
ATOM     11  N   UNL     1       2.974   6.785  17.956  0.00  0.00    +0.000 N 
ATOM     12  C   UNL     1       2.315   7.818  18.592  0.00  0.00    +0.000 C 
ATOM     13  O   UNL     1       2.173   7.909  19.806  0.00  0.00    +0.000 OA
ATOM     14  N   UNL     1       1.808   8.740  17.683  0.00  0.00    +0.000 N 
ATOM     15  H   UNL     1       3.480   7.029  17.109  0.00  0.00    +0.000 HD
ATOM     16  H   UNL     1       1.570   8.357  16.779  0.00  0.00    +0.000 HD
BRANCH  14  17
ATOM     17  C   UNL     1       1.083   9.878  18.111  0.00  0.00    +0.000 A 
ATOM     18  C   UNL     1       1.730  11.056  18.496  0.00  0.00    +0.000 A 
ATOM     19  C   UNL     1       1.001  12.133  19.000  0.00  0.00    +0.000 A 
ATOM     20  C   UNL     1      -0.385  12.056  19.111  0.00  0.00    +0.000 A 
ATOM     21  C   UNL     1      -1.040  10.889  18.709  0.00  0.00    +0.000 A 
ATOM     22  C   UNL     1      -0.310   9.812  18.187  0.00  0.00    +0.000 A 
BRANCH  20  23
ATOM     23  O   UNL     1      -0.983  13.151  19.669  0.00  0.00    +0.000 OA
ATOM     24  C   UNL     1      -2.308  12.957  20.147  0.00  0.00    +0.000 C 
ENDBRANCH  20  23
ENDBRANCH  14  17
ENDBRANCH   9  11
BRANCH   1  25
ATOM     25  C   UNL     1       5.785   5.630  17.685  0.00  0.00    +0.000 C 
ATOM     26  O   UNL     1       5.945   6.796  17.349  0.00  0.00    +0.000 OA
BRANCH  25  27
ATOM     27  O   UNL     1       6.539   4.573  17.272  0.00  0.00    +0.000 OA
BRANCH  27  29
ATOM     28  C   UNL     1       6.126   3.971  14.998  0.00  0.00    +0.000 C 
ATOM     29  C   UNL     1       7.078   4.677  15.948  0.00  0.00    +0.000 C 
ENDBRANCH  27  29
ENDBRANCH  25  27
ENDBRANCH   1  25
TORSDOF 6
ENDMDL
MODEL 9
REMARK VINA RESULT:      -7.7      2.397      4.305
REMARK  Name = 
REMARK  8 active torsions:
REMARK  status: ('A' for Active; 'I' for Inactive)
REMARK    1  A    between atoms: C_1  and  C_2
REMARK    2  A    between atoms: C_2  and  O_3
REMARK    3  A    between atoms: O_3  and  C_4
REMARK    4  A    between atoms: C_4  and  C_6
REMARK    5  A    between atoms: C_14  and  N_15
REMARK    6  A    between atoms: N_18  and  C_19
REMARK    7  A    between atoms: C_22  and  O_23
REMARK    8  A    between atoms: O_23  and  C_24
REMARK                            x       y       z     vdW  Elec       q    Type
REMARK                         _______ _______ _______ _____ _____    ______ ____
ROOT
ATOM      1  C   UNL     1       4.874   4.658  18.250  0.00  0.00    +0.000 A 
ATOM      2  N   UNL     1       4.945   3.587  19.111  0.00  0.00    +0.000 N 
ATOM      3  C   UNL     1       3.780   3.436  19.810  0.00  0.00    +0.000 A 
ATOM      4  C   UNL     1       3.415   2.447  20.732  0.00  0.00    +0.000 A 
ATOM      5  C   UNL     1       2.135   2.511  21.284  0.00  0.00    +0.000 A 
ATOM      6  C   UNL     1       1.253   3.517  20.907  0.00  0.00    +0.000 A 
ATOM      7  C   UNL     1       1.636   4.492  19.980  0.00  0.00    +0.000 A 
ATOM      8  C   UNL     1       2.936   4.480  19.428  0.00  0.00    +0.000 A 
ATOM      9  C   UNL     1       3.662   5.291  18.484  0.00  0.00    +0.000 A 
ATOM     10  H   UNL     1       5.737   2.958  19.157  0.00  0.00    +0.000 HD
ENDROOT
BRANCH   9  11
ATOM     11  N   UNL     1       3.285   6.461  17.819  0.00  0.00    +0.000 N 
ATOM     12  C   UNL     1       2.649   7.520  18.436  0.00  0.00    +0.000 C 
ATOM     13  O   UNL     1       2.489   7.625  19.647  0.00  0.00    +0.000 OA
ATOM     14  N   UNL     1       2.191   8.453  17.511  0.00  0.00    +0.000 N 
ATOM     15  H   UNL     1       3.814   6.682  16.980  0.00  0.00    +0.000 HD
ATOM     16  H   UNL     1       1.957   8.071  16.605  0.00  0.00    +0.000 HD
BRANCH  14  17
ATOM     17  C   UNL     1       1.498   9.618  17.918  0.00  0.00    +0.000 A 
ATOM     18  C   UNL     1       2.173  10.805  18.215  0.00  0.00    +0.000 A 
ATOM     19  C   UNL     1       1.478  11.913  18.701  0.00  0.00    +0.000 A 
ATOM     20  C   UNL     1       0.098  11.857  18.881  0.00  0.00    +0.000 A 
ATOM     21  C   UNL     1      -0.585  10.680  18.568  0.00  0.00    +0.000 A 
ATOM     22  C   UNL     1       0.110   9.571  18.064  0.00  0.00    +0.000 A 
BRANCH  20  23
ATOM     23  O   UNL     1      -0.462  12.984  19.414  0.00  0.00    +0.000 OA
ATOM     24  C   UNL     1      -0.460  13.064  20.833  0.00  0.00    +0.000 C 
ENDBRANCH  20  23
ENDBRANCH  14  17
ENDBRANCH   9  11
BRANCH   1  25
ATOM     25  C   UNL     1       5.901   4.981  17.296  0.00  0.00    +0.000 C 
ATOM     26  O   UNL     1       6.485   4.171  16.588  0.00  0.00    +0.000 OA
BRANCH  25  27
ATOM     27  O   UNL     1       6.188   6.310  17.389  0.00  0.00    +0.000 OA
BRANCH  27  29
ATOM     28  C   UNL     1       7.798   8.054  17.652  0.00  0.00    +0.000 C 
ATOM     29  C   UNL     1       7.426   6.632  18.034  0.00  0.00    +0.000 C 
ENDBRANCH  27  29
ENDBRANCH  25  27
ENDBRANCH   1  25
TORSDOF 6
ENDMDL
