MODEL 1
REMARK VINA RESULT:      -7.6      0.000      0.000
REMARK  Name = 
REMARK  11 active torsions:
REMARK  status: ('A' for Active; 'I' for Inactive)
REMARK    1  A    between atoms: C_1  and  C_2
REMARK    2  A    between atoms: C_2  and  C_3
REMARK    3  A    between atoms: C_2  and  C_4
REMARK    4  A    between atoms: C_2  and  C_5
REMARK    5  A    between atoms: C_7  and  N_8
REMARK    6  A    between atoms: N_8  and  C_9
REMARK    7  A    between atoms: C_15  and  O_16
REMARK    8  A    between atoms: C_17  and  C_18
REMARK    9  A    between atoms: C_18  and  C_19
REMARK   10  A    between atoms: C_18  and  C_20
REMARK   11  A    between atoms: C_18  and  C_21
REMARK                            x       y       z     vdW  Elec       q    Type
REMARK                         _______ _______ _______ _____ _____    ______ ____
ROOT
ATOM      1  C   UNL     1       5.587   5.488  18.373  0.00  0.00    +0.000 A 
ATOM      2  C   UNL     1       4.637   6.457  18.043  0.00  0.00    +0.000 A 
ATOM      3  C   UNL     1       3.270   6.269  18.293  0.00  0.00    +0.000 A 
ATOM      4  C   UNL     1       2.838   5.033  18.834  0.00  0.00    +0.000 A 
ATOM      5  C   UNL     1       3.749   4.051  19.261  0.00  0.00    +0.000 A 
ATOM      6  C   UNL     1       5.113   4.315  18.991  0.00  0.00    +0.000 A 
ENDROOT
BRANCH   1   8
ATOM      7  C   UNL     1       7.620   4.570  17.258  0.00  0.00    +0.000 C 
ATOM      8  C   UNL     1       7.095   5.715  18.146  0.00  0.00    +0.000 C 
ATOM      9  C   UNL     1       7.910   5.730  19.457  0.00  0.00    +0.000 C 
ATOM     10  C   UNL     1       7.388   7.062  17.441  0.00  0.00    +0.000 C 
ENDBRANCH   1   8
BRANCH   5  11
ATOM     11  C   UNL     1       3.368   2.703  19.927  0.00  0.00    +0.000 C 
ATOM     12  C   UNL     1       2.574   1.857  18.911  0.00  0.00    +0.000 C 
ATOM     13  C   UNL     1       4.631   1.902  20.356  0.00  0.00    +0.000 C 
ATOM     14  C   UNL     1       2.522   2.818  21.216  0.00  0.00    +0.000 C 
ENDBRANCH   5  11
BRANCH   3  15
ATOM     15  N   UNL     1       2.331   7.278  17.908  0.00  0.00    +0.000 N 
ATOM     16  H   UNL     1       1.498   6.833  17.535  0.00  0.00    +0.000 HD
BRANCH  15  17
ATOM     17  C   UNL     1       1.854   8.318  18.768  0.00  0.00    +0.000 A 
ATOM     18  C   UNL     1       1.354   9.487  18.190  0.00  0.00    +0.000 A 
ATOM     19  C   UNL     1       0.712  10.453  18.972  0.00  0.00    +0.000 A 
ATOM     20  C   UNL     1       0.542  10.247  20.341  0.00  0.00    +0.000 A 
ATOM     21  C   UNL     1       1.039   9.082  20.929  0.00  0.00    +0.000 A 
ATOM     22  C   UNL     1       1.681   8.120  20.147  0.00  0.00    +0.000 A 
ENDBRANCH  15  17
ENDBRANCH   3  15
BRANCH   4  23
ATOM     23  O   UNL     1       1.492   4.804  18.928  0.00  0.00    +0.000 OA
ATOM     24  H   UNL     1       1.296   4.057  18.337  0.00  0.00    +0.000 HD
ENDBRANCH   4  23
TORSDOF 5
ENDMDL
MODEL 2
REMARK VINA RESULT:      -7.4      0.134      1.290
REMARK  Name = 
REMARK  11 active torsions:
REMARK  status: ('A' for Active; 'I' for Inactive)
REMARK    1  A    between atoms: C_1  and  C_2
REMARK    2  A    between atoms: C_2  and  C_3
REMARK    3  A    between atoms: C_2  and  C_4
REMARK    4  A    between atoms: C_2  and  C_5
REMARK    5  A    between atoms: C_7  and  N_8
REMARK    6  A    between atoms: N_8  and  C_9
REMARK    7  A    between atoms: C_15  and  O_16
REMARK    8  A    between atoms: C_17  and  C_18
REMARK    9  A    between atoms: C_18  and  C_19
REMARK   10  A    between atoms: C_18  and  C_20
REMARK   11  A    between atoms: C_18  and  C_21
REMARK                            x       y       z     vdW  Elec       q    Type
REMARK                         _______ _______ _______ _____ _____    ______ ____
ROOT
ATOM      1  C   UNL     1       5.532   5.507  18.366  0.00  0.00    +0.000 A 
ATOM      2  C   UNL     1       4.606   6.495  18.022  0.00  0.00    +0.000 A 
ATOM      3  C   UNL     1       3.234   6.340  18.266  0.00  0.00    +0.000 A 
ATOM      4  C   UNL     1       2.772   5.119  18.816  0.00  0.00    +0.000 A 
ATOM      5  C   UNL     1       3.657   4.120  19.256  0.00  0.00    +0.000 A 
ATOM      6  C   UNL     1       5.028   4.351  18.991  0.00  0.00    +0.000 A 
ENDROOT
BRANCH   1   8
ATOM      7  C   UNL     1       7.732   5.698  19.524  0.00  0.00    +0.000 C 
ATOM      8  C   UNL     1       7.046   5.698  18.144  0.00  0.00    +0.000 C 
ATOM      9  C   UNL     1       7.391   7.021  17.426  0.00  0.00    +0.000 C 
ATOM     10  C   UNL     1       7.663   4.568  17.285  0.00  0.00    +0.000 C 
ENDBRANCH   1   8
BRANCH   5  11
ATOM     11  C   UNL     1       3.242   2.788  19.932  0.00  0.00    +0.000 C 
ATOM     12  C   UNL     1       4.514   1.973  20.240  0.00  0.00    +0.000 C 
ATOM     13  C   UNL     1       2.481   3.039  21.266  0.00  0.00    +0.000 C 
ATOM     14  C   UNL     1       2.292   1.893  19.103  0.00  0.00    +0.000 C 
ENDBRANCH   5  11
BRANCH   3  15
ATOM     15  N   UNL     1       2.320   7.366  17.868  0.00  0.00    +0.000 N 
ATOM     16  H   UNL     1       1.497   6.939  17.456  0.00  0.00    +0.000 HD
BRANCH  15  17
ATOM     17  C   UNL     1       1.824   8.395  18.730  0.00  0.00    +0.000 A 
ATOM     18  C   UNL     1       1.282   9.547  18.154  0.00  0.00    +0.000 A 
ATOM     19  C   UNL     1       0.621  10.497  18.942  0.00  0.00    +0.000 A 
ATOM     20  C   UNL     1       0.475  10.291  20.313  0.00  0.00    +0.000 A 
ATOM     21  C   UNL     1       1.013   9.143  20.898  0.00  0.00    +0.000 A 
ATOM     22  C   UNL     1       1.673   8.198  20.111  0.00  0.00    +0.000 A 
ENDBRANCH  15  17
ENDBRANCH   3  15
BRANCH   4  23
ATOM     23  O   UNL     1       1.420   4.922  18.905  0.00  0.00    +0.000 OA
ATOM     24  H   UNL     1       1.284   4.228  19.572  0.00  0.00    +0.000 HD
ENDBRANCH   4  23
TORSDOF 5
ENDMDL
MODEL 3
REMARK VINA RESULT:      -7.3      1.404      2.238
REMARK  Name = 
REMARK  11 active torsions:
REMARK  status: ('A' for Active; 'I' for Inactive)
REMARK    1  A    between atoms: C_1  and  C_2
REMARK    2  A    between atoms: C_2  and  C_3
REMARK    3  A    between atoms: C_2  and  C_4
REMARK    4  A    between atoms: C_2  and  C_5
REMARK    5  A    between atoms: C_7  and  N_8
REMARK    6  A    between atoms: N_8  and  C_9
REMARK    7  A    between atoms: C_15  and  O_16
REMARK    8  A    between atoms: C_17  and  C_18
REMARK    9  A    between atoms: C_18  and  C_19
REMARK   10  A    between atoms: C_18  and  C_20
REMARK   11  A    between atoms: C_18  and  C_21
REMARK                            x       y       z     vdW  Elec       q    Type
REMARK                         _______ _______ _______ _____ _____    ______ ____
ROOT
ATOM      1  C   UNL     1       4.233   5.391  17.635  0.00  0.00    +0.000 A 
ATOM      2  C   UNL     1       3.840   6.505  18.381  0.00  0.00    +0.000 A 
ATOM      3  C   UNL     1       2.898   6.410  19.415  0.00  0.00    +0.000 A 
ATOM      4  C   UNL     1       2.281   5.159  19.663  0.00  0.00    +0.000 A 
ATOM      5  C   UNL     1       2.688   3.986  19.004  0.00  0.00    +0.000 A 
ATOM      6  C   UNL     1       3.655   4.156  17.983  0.00  0.00    +0.000 A 
ENDROOT
BRANCH   1   8
ATOM      7  C   UNL     1       5.022   6.752  15.700  0.00  0.00    +0.000 C 
ATOM      8  C   UNL     1       5.307   5.486  16.532  0.00  0.00    +0.000 C 
ATOM      9  C   UNL     1       5.310   4.268  15.583  0.00  0.00    +0.000 C 
ATOM     10  C   UNL     1       6.739   5.585  17.111  0.00  0.00    +0.000 C 
ENDBRANCH   1   8
BRANCH   5  11
ATOM     11  C   UNL     1       2.118   2.568  19.263  0.00  0.00    +0.000 C 
ATOM     12  C   UNL     1       3.037   1.534  18.580  0.00  0.00    +0.000 C 
ATOM     13  C   UNL     1       2.060   2.247  20.785  0.00  0.00    +0.000 C 
ATOM     14  C   UNL     1       0.677   2.332  18.758  0.00  0.00    +0.000 C 
ENDBRANCH   5  11
BRANCH   3  15
ATOM     15  N   UNL     1       2.505   7.585  20.129  0.00  0.00    +0.000 N 
ATOM     16  H   UNL     1       3.318   8.175  20.274  0.00  0.00    +0.000 HD
BRANCH  15  17
ATOM     17  C   UNL     1       1.458   8.474  19.725  0.00  0.00    +0.000 A 
ATOM     18  C   UNL     1       0.593   8.976  20.699  0.00  0.00    +0.000 A 
ATOM     19  C   UNL     1      -0.328   9.984  20.388  0.00  0.00    +0.000 A 
ATOM     20  C   UNL     1      -0.375  10.515  19.100  0.00  0.00    +0.000 A 
ATOM     21  C   UNL     1       0.486  10.020  18.118  0.00  0.00    +0.000 A 
ATOM     22  C   UNL     1       1.402   9.014  18.431  0.00  0.00    +0.000 A 
ENDBRANCH  15  17
ENDBRANCH   3  15
BRANCH   4  23
ATOM     23  O   UNL     1       1.254   5.114  20.567  0.00  0.00    +0.000 OA
ATOM     24  H   UNL     1       1.222   4.203  20.904  0.00  0.00    +0.000 HD
ENDBRANCH   4  23
TORSDOF 5
ENDMDL
MODEL 4
REMARK VINA RESULT:      -7.3      1.417      1.935
REMARK  Name = 
REMARK  11 active torsions:
REMARK  status: ('A' for Active; 'I' for Inactive)
REMARK    1  A    between atoms: C_1  and  C_2
REMARK    2  A    between atoms: C_2  and  C_3
REMARK    3  A    between atoms: C_2  and  C_4
REMARK    4  A    between atoms: C_2  and  C_5
REMARK    5  A    between atoms: C_7  and  N_8
REMARK    6  A    between atoms: N_8  and  C_9
REMARK    7  A    between atoms: C_15  and  O_16
REMARK    8  A    between atoms: C_17  and  C_18
REMARK    9  A    between atoms: C_18  and  C_19
REMARK   10  A    between atoms: C_18  and  C_20
REMARK   11  A    between atoms: C_18  and  C_21
REMARK                            x       y       z     vdW  Elec       q    Type
REMARK                         _______ _______ _______ _____ _____    ______ ____
ROOT
ATOM      1  C   UNL     1       4.152   5.509  17.777  0.00  0.00    +0.000 A 
ATOM      2  C   UNL     1       3.731   6.594  18.550  0.00  0.00    +0.000 A 
ATOM      3  C   UNL     1       2.775   6.452  19.566  0.00  0.00    +0.000 A 
ATOM      4  C   UNL     1       2.174   5.185  19.766  0.00  0.00    +0.000 A 
ATOM      5  C   UNL     1       2.609   4.039  19.078  0.00  0.00    +0.000 A 
ATOM      6  C   UNL     1       3.588   4.255  18.078  0.00  0.00    +0.000 A 
ENDROOT
BRANCH   1   8
ATOM      7  C   UNL     1       5.295   4.337  15.895  0.00  0.00    +0.000 C 
ATOM      8  C   UNL     1       5.241   5.654  16.694  0.00  0.00    +0.000 C 
ATOM      9  C   UNL     1       6.643   5.930  17.278  0.00  0.00    +0.000 C 
ATOM     10  C   UNL     1       4.946   6.816  15.715  0.00  0.00    +0.000 C 
ENDBRANCH   1   8
BRANCH   5  11
ATOM     11  C   UNL     1       2.058   2.605  19.285  0.00  0.00    +0.000 C 
ATOM     12  C   UNL     1       3.009   1.606  18.595  0.00  0.00    +0.000 C 
ATOM     13  C   UNL     1       1.971   2.241  20.796  0.00  0.00    +0.000 C 
ATOM     14  C   UNL     1       0.632   2.359  18.741  0.00  0.00    +0.000 C 
ENDBRANCH   5  11
BRANCH   3  15
ATOM     15  N   UNL     1       2.352   7.599  20.310  0.00  0.00    +0.000 N 
ATOM     16  H   UNL     1       3.169   8.086  20.663  0.00  0.00    +0.000 HD
BRANCH  15  17
ATOM     17  C   UNL     1       1.486   8.622  19.809  0.00  0.00    +0.000 A 
ATOM     18  C   UNL     1       1.517   8.917  18.444  0.00  0.00    +0.000 A 
ATOM     19  C   UNL     1       0.568   9.775  17.876  0.00  0.00    +0.000 A 
ATOM     20  C   UNL     1      -0.438  10.328  18.666  0.00  0.00    +0.000 A 
ATOM     21  C   UNL     1      -0.478  10.040  20.032  0.00  0.00    +0.000 A 
ATOM     22  C   UNL     1       0.470   9.185  20.597  0.00  0.00    +0.000 A 
ENDBRANCH  15  17
ENDBRANCH   3  15
BRANCH   4  23
ATOM     23  O   UNL     1       1.135   5.096  20.653  0.00  0.00    +0.000 OA
ATOM     24  H   UNL     1       0.721   4.229  20.509  0.00  0.00    +0.000 HD
ENDBRANCH   4  23
TORSDOF 5
ENDMDL
MODEL 5
REMARK VINA RESULT:      -7.3      0.178      1.372
REMARK  Name = 
REMARK  11 active torsions:
REMARK  status: ('A' for Active; 'I' for Inactive)
REMARK    1  A    between atoms: C_1  and  C_2
REMARK    2  A    between atoms: C_2  and  C_3
REMARK    3  A    between atoms: C_2  and  C_4
REMARK    4  A    between atoms: C_2  and  C_5
REMARK    5  A    between atoms: C_7  and  N_8
REMARK    6  A    between atoms: N_8  and  C_9
REMARK    7  A    between atoms: C_15  and  O_16
REMARK    8  A    between atoms: C_17  and  C_18
REMARK    9  A    between atoms: C_18  and  C_19
REMARK   10  A    between atoms: C_18  and  C_20
REMARK   11  A    between atoms: C_18  and  C_21
REMARK                            x       y       z     vdW  Elec       q    Type
REMARK                         _______ _______ _______ _____ _____    ______ ____
ROOT
ATOM      1  C   UNL     1       5.585   5.525  18.377  0.00  0.00    +0.000 A 
ATOM      2  C   UNL     1       4.653   6.511  18.043  0.00  0.00    +0.000 A 
ATOM      3  C   UNL     1       3.280   6.338  18.267  0.00  0.00    +0.000 A 
ATOM      4  C   UNL     1       2.823   5.102  18.786  0.00  0.00    +0.000 A 
ATOM      5  C   UNL     1       3.713   4.103  19.216  0.00  0.00    +0.000 A 
ATOM      6  C   UNL     1       5.085   4.352  18.972  0.00  0.00    +0.000 A 
ENDROOT
BRANCH   1   8
ATOM      7  C   UNL     1       7.625   4.590  17.290  0.00  0.00    +0.000 C 
ATOM      8  C   UNL     1       7.099   5.735  18.178  0.00  0.00    +0.000 C 
ATOM      9  C   UNL     1       7.891   5.729  19.504  0.00  0.00    +0.000 C 
ATOM     10  C   UNL     1       7.422   7.083  17.490  0.00  0.00    +0.000 C 
ENDBRANCH   1   8
BRANCH   5  11
ATOM     11  C   UNL     1       3.302   2.753  19.858  0.00  0.00    +0.000 C 
ATOM     12  C   UNL     1       4.579   1.946  20.171  0.00  0.00    +0.000 C 
ATOM     13  C   UNL     1       2.517   2.969  21.185  0.00  0.00    +0.000 C 
ATOM     14  C   UNL     1       2.376   1.864  18.997  0.00  0.00    +0.000 C 
ENDBRANCH   5  11
BRANCH   3  15
ATOM     15  N   UNL     1       2.361   7.365  17.879  0.00  0.00    +0.000 N 
ATOM     16  H   UNL     1       1.614   6.953  17.328  0.00  0.00    +0.000 HD
BRANCH  15  17
ATOM     17  C   UNL     1       1.714   8.265  18.784  0.00  0.00    +0.000 A 
ATOM     18  C   UNL     1       1.752   7.982  20.151  0.00  0.00    +0.000 A 
ATOM     19  C   UNL     1       1.297   8.917  21.088  0.00  0.00    +0.000 A 
ATOM     20  C   UNL     1       0.820  10.157  20.665  0.00  0.00    +0.000 A 
ATOM     21  C   UNL     1       0.777  10.450  19.300  0.00  0.00    +0.000 A 
ATOM     22  C   UNL     1       1.230   9.515  18.368  0.00  0.00    +0.000 A 
ENDBRANCH  15  17
ENDBRANCH   3  15
BRANCH   4  23
ATOM     23  O   UNL     1       1.472   4.891  18.853  0.00  0.00    +0.000 OA
ATOM     24  H   UNL     1       1.307   4.419  19.687  0.00  0.00    +0.000 HD
ENDBRANCH   4  23
TORSDOF 5
ENDMDL
MODEL 6
REMARK VINA RESULT:      -7.3      0.311      1.411
REMARK  Name = 
REMARK  11 active torsions:
REMARK  status: ('A' for Active; 'I' for Inactive)
REMARK    1  A    between atoms: C_1  and  C_2
REMARK    2  A    between atoms: C_2  and  C_3
REMARK    3  A    between atoms: C_2  and  C_4
REMARK    4  A    between atoms: C_2  and  C_5
REMARK    5  A    between atoms: C_7  and  N_8
REMARK    6  A    between atoms: N_8  and  C_9
REMARK    7  A    between atoms: C_15  and  O_16
REMARK    8  A    between atoms: C_17  and  C_18
REMARK    9  A    between atoms: C_18  and  C_19
REMARK   10  A    between atoms: C_18  and  C_20
REMARK   11  A    between atoms: C_18  and  C_21
REMARK                            x       y       z     vdW  Elec       q    Type
REMARK                         _______ _______ _______ _____ _____    ______ ____
ROOT
ATOM      1  C   UNL     1       5.542   5.500  18.421  0.00  0.00    +0.000 A 
ATOM      2  C   UNL     1       4.596   6.490  18.145  0.00  0.00    +0.000 A 
ATOM      3  C   UNL     1       3.234   6.313  18.428  0.00  0.00    +0.000 A 
ATOM      4  C   UNL     1       2.801   5.069  18.947  0.00  0.00    +0.000 A 
ATOM      5  C   UNL     1       3.709   4.063  19.320  0.00  0.00    +0.000 A 
ATOM      6  C   UNL     1       5.069   4.317  19.019  0.00  0.00    +0.000 A 
ENDROOT
BRANCH   1   8
ATOM      7  C   UNL     1       7.771   5.718  19.517  0.00  0.00    +0.000 C 
ATOM      8  C   UNL     1       7.046   5.713  18.157  0.00  0.00    +0.000 C 
ATOM      9  C   UNL     1       7.352   7.044  17.435  0.00  0.00    +0.000 C 
ATOM     10  C   UNL     1       7.654   4.596  17.276  0.00  0.00    +0.000 C 
ENDBRANCH   1   8
BRANCH   5  11
ATOM     11  C   UNL     1       3.328   2.702  19.959  0.00  0.00    +0.000 C 
ATOM     12  C   UNL     1       2.515   1.886  18.933  0.00  0.00    +0.000 C 
ATOM     13  C   UNL     1       4.591   1.883  20.352  0.00  0.00    +0.000 C 
ATOM     14  C   UNL     1       2.499   2.792  21.260  0.00  0.00    +0.000 C 
ENDBRANCH   5  11
BRANCH   3  15
ATOM     15  N   UNL     1       2.300   7.345  18.098  0.00  0.00    +0.000 N 
ATOM     16  H   UNL     1       1.532   6.943  17.570  0.00  0.00    +0.000 HD
BRANCH  15  17
ATOM     17  C   UNL     1       1.689   8.226  19.047  0.00  0.00    +0.000 A 
ATOM     18  C   UNL     1       1.722   7.880  20.400  0.00  0.00    +0.000 A 
ATOM     19  C   UNL     1       1.304   8.786  21.380  0.00  0.00    +0.000 A 
ATOM     20  C   UNL     1       0.870  10.060  21.017  0.00  0.00    +0.000 A 
ATOM     21  C   UNL     1       0.833  10.416  19.667  0.00  0.00    +0.000 A 
ATOM     22  C   UNL     1       1.248   9.510  18.690  0.00  0.00    +0.000 A 
ENDBRANCH  15  17
ENDBRANCH   3  15
BRANCH   4  23
ATOM     23  O   UNL     1       1.454   4.855  19.072  0.00  0.00    +0.000 OA
ATOM     24  H   UNL     1       1.020   5.702  18.874  0.00  0.00    +0.000 HD
ENDBRANCH   4  23
TORSDOF 5
ENDMDL
MODEL 7
REMARK VINA RESULT:      -7.2      1.417      1.997
REMARK  Name = 
REMARK  11 active torsions:
REMARK  status: ('A' for Active; 'I' for Inactive)
REMARK    1  A    between atoms: C_1  and  C_2
REMARK    2  A    between atoms: C_2  and  C_3
REMARK    3  A    between atoms: C_2  and  C_4
REMARK    4  A    between atoms: C_2  and  C_5
REMARK    5  A    between atoms: C_7  and  N_8
REMARK    6  A    between atoms: N_8  and  C_9
REMARK    7  A    between atoms: C_15  and  O_16
REMARK    8  A    between atoms: C_17  and  C_18
REMARK    9  A    between atoms: C_18  and  C_19
REMARK   10  A    between atoms: C_18  and  C_20
REMARK   11  A    between atoms: C_18  and  C_21
REMARK                            x       y       z     vdW  Elec       q    Type
REMARK                         _______ _______ _______ _____ _____    ______ ____
ROOT
ATOM      1  C   UNL     1       4.202   5.451  17.664  0.00  0.00    +0.000 A 
ATOM      2  C   UNL     1       3.795   6.565  18.402  0.00  0.00    +0.000 A 
ATOM      3  C   UNL     1       2.861   6.463  19.443  0.00  0.00    +0.000 A 
ATOM      4  C   UNL     1       2.268   5.204  19.707  0.00  0.00    +0.000 A 
ATOM      5  C   UNL     1       2.690   4.033  19.056  0.00  0.00    +0.000 A 
ATOM      6  C   UNL     1       3.647   4.209  18.027  0.00  0.00    +0.000 A 
ENDROOT
BRANCH   1   8
ATOM      7  C   UNL     1       5.238   4.242  15.745  0.00  0.00    +0.000 C 
ATOM      8  C   UNL     1       5.266   5.554  16.553  0.00  0.00    +0.000 C 
ATOM      9  C   UNL     1       6.695   5.760  17.101  0.00  0.00    +0.000 C 
ATOM     10  C   UNL     1       5.000   6.736  15.590  0.00  0.00    +0.000 C 
ENDBRANCH   1   8
BRANCH   5  11
ATOM     11  C   UNL     1       2.146   2.607  19.332  0.00  0.00    +0.000 C 
ATOM     12  C   UNL     1       0.744   2.483  18.702  0.00  0.00    +0.000 C 
ATOM     13  C   UNL     1       3.065   1.516  18.709  0.00  0.00    +0.000 C 
ATOM     14  C   UNL     1       2.034   2.219  20.824  0.00  0.00    +0.000 C 
ENDBRANCH   5  11
BRANCH   3  15
ATOM     15  N   UNL     1       2.453   7.638  20.150  0.00  0.00    +0.000 N 
ATOM     16  H   UNL     1       3.261   8.231  20.307  0.00  0.00    +0.000 HD
BRANCH  15  17
ATOM     17  C   UNL     1       1.409   8.521  19.729  0.00  0.00    +0.000 A 
ATOM     18  C   UNL     1       0.536   9.034  20.691  0.00  0.00    +0.000 A 
ATOM     19  C   UNL     1      -0.383  10.038  20.362  0.00  0.00    +0.000 A 
ATOM     20  C   UNL     1      -0.420  10.556  19.069  0.00  0.00    +0.000 A 
ATOM     21  C   UNL     1       0.449  10.051  18.098  0.00  0.00    +0.000 A 
ATOM     22  C   UNL     1       1.362   9.049  18.428  0.00  0.00    +0.000 A 
ENDBRANCH  15  17
ENDBRANCH   3  15
BRANCH   4  23
ATOM     23  O   UNL     1       1.248   5.150  20.619  0.00  0.00    +0.000 OA
ATOM     24  H   UNL     1       0.429   5.023  20.111  0.00  0.00    +0.000 HD
ENDBRANCH   4  23
TORSDOF 5
ENDMDL
MODEL 8
REMARK VINA RESULT:      -7.0      0.600      1.490
REMARK  Name = 
REMARK  11 active torsions:
REMARK  status: ('A' for Active; 'I' for Inactive)
REMARK    1  A    between atoms: C_1  and  C_2
REMARK    2  A    between atoms: C_2  and  C_3
REMARK    3  A    between atoms: C_2  and  C_4
REMARK    4  A    between atoms: C_2  and  C_5
REMARK    5  A    between atoms: C_7  and  N_8
REMARK    6  A    between atoms: N_8  and  C_9
REMARK    7  A    between atoms: C_15  and  O_16
REMARK    8  A    between atoms: C_17  and  C_18
REMARK    9  A    between atoms: C_18  and  C_19
REMARK   10  A    between atoms: C_18  and  C_20
REMARK   11  A    between atoms: C_18  and  C_21
REMARK                            x       y       z     vdW  Elec       q    Type
REMARK                         _______ _______ _______ _____ _____    ______ ____
ROOT
ATOM      1  C   UNL     1       5.566   5.568  18.162  0.00  0.00    +0.000 A 
ATOM      2  C   UNL     1       4.719   6.646  17.889  0.00  0.00    +0.000 A 
ATOM      3  C   UNL     1       3.324   6.527  17.956  0.00  0.00    +0.000 A 
ATOM      4  C   UNL     1       2.760   5.260  18.243  0.00  0.00    +0.000 A 
ATOM      5  C   UNL     1       3.554   4.158  18.604  0.00  0.00    +0.000 A 
ATOM      6  C   UNL     1       4.954   4.355  18.530  0.00  0.00    +0.000 A 
ENDROOT
BRANCH   1   8
ATOM      7  C   UNL     1       7.443   7.043  17.441  0.00  0.00    +0.000 C 
ATOM      8  C   UNL     1       7.101   5.712  18.139  0.00  0.00    +0.000 C 
ATOM      9  C   UNL     1       7.805   4.567  17.379  0.00  0.00    +0.000 C 
ATOM     10  C   UNL     1       7.712   5.726  19.560  0.00  0.00    +0.000 C 
ENDBRANCH   1   8
BRANCH   5  11
ATOM     11  C   UNL     1       3.018   2.758  19.001  0.00  0.00    +0.000 C 
ATOM     12  C   UNL     1       2.487   2.055  17.735  0.00  0.00    +0.000 C 
ATOM     13  C   UNL     1       4.138   1.874  19.623  0.00  0.00    +0.000 C 
ATOM     14  C   UNL     1       1.888   2.756  20.055  0.00  0.00    +0.000 C 
ENDBRANCH   5  11
BRANCH   3  15
ATOM     15  N   UNL     1       2.498   7.651  17.637  0.00  0.00    +0.000 N 
ATOM     16  H   UNL     1       1.822   7.379  16.931  0.00  0.00    +0.000 HD
BRANCH  15  17
ATOM     17  C   UNL     1       1.760   8.418  18.594  0.00  0.00    +0.000 A 
ATOM     18  C   UNL     1       1.807   8.037  19.937  0.00  0.00    +0.000 A 
ATOM     19  C   UNL     1       1.256   8.853  20.932  0.00  0.00    +0.000 A 
ATOM     20  C   UNL     1       0.672  10.072  20.594  0.00  0.00    +0.000 A 
ATOM     21  C   UNL     1       0.619  10.463  19.254  0.00  0.00    +0.000 A 
ATOM     22  C   UNL     1       1.168   9.647  18.263  0.00  0.00    +0.000 A 
ENDBRANCH  15  17
ENDBRANCH   3  15
BRANCH   4  23
ATOM     23  O   UNL     1       1.400   5.123  18.152  0.00  0.00    +0.000 OA
ATOM     24  H   UNL     1       1.031   6.022  18.142  0.00  0.00    +0.000 HD
ENDBRANCH   4  23
TORSDOF 5
ENDMDL
