MODEL 1
REMARK VINA RESULT:      -7.1      0.000      0.000
REMARK  Name = 
REMARK  2 active torsions:
REMARK  status: ('A' for Active; 'I' for Inactive)
REMARK    1  A    between atoms: N_3  and  C_4
REMARK    2  A    between atoms: C_4  and  C_5
REMARK                            x       y       z     vdW  Elec       q    Type
REMARK                         _______ _______ _______ _____ _____    ______ ____
ROOT
ATOM      1  C   UNL     1       5.958   4.271  17.729  0.00  0.00    +0.000 C 
ENDROOT
BRANCH   1   4
ATOM      2  O   UNL     1       6.344   6.195  15.673  0.00  0.00    +0.000 OA
ATOM      3  C   UNL     1       6.273   4.996  15.439  0.00  0.00    +0.000 C 
ATOM      4  N   UNL     1       6.068   3.967  16.322  0.00  0.00    +0.000 N 
ATOM      5  N   UNL     1       6.503   4.536  14.141  0.00  0.00    +0.000 N 
ATOM      6  C   UNL     1       5.760   3.618  13.414  0.00  0.00    +0.000 A 
ATOM      7  C   UNL     1       6.343   3.575  12.170  0.00  0.00    +0.000 A 
ATOM      8  N   UNL     1       7.457   4.375  12.129  0.00  0.00    +0.000 NA
ATOM      9  C   UNL     1       7.511   4.953  13.308  0.00  0.00    +0.000 A 
ATOM     10  H   UNL     1       6.421   3.050  16.074  0.00  0.00    +0.000 HD
ENDBRANCH   1   4
BRANCH   1  11
ATOM     11  C   UNL     1       4.588   3.938  18.252  0.00  0.00    +0.000 A 
ATOM     12  C   UNL     1       3.481   3.986  17.366  0.00  0.00    +0.000 A 
ATOM     13  C   UNL     1       2.191   3.678  17.807  0.00  0.00    +0.000 A 
ATOM     14  C   UNL     1       2.037   3.325  19.127  0.00  0.00    +0.000 A 
ATOM     15  C   UNL     1       3.103   3.271  19.993  0.00  0.00    +0.000 A 
ATOM     16  C   UNL     1       4.390   3.568  19.587  0.00  0.00    +0.000 A 
ATOM     17  O   UNL     1       2.731   2.907  21.251  0.00  0.00    +0.000 OA
ATOM     18  C   UNL     1       1.305   2.769  21.083  0.00  0.00    +0.000 C 
ATOM     19  O   UNL     1       0.862   2.998  19.729  0.00  0.00    +0.000 OA
ENDBRANCH   1  11
TORSDOF 2
ENDMDL
MODEL 2
REMARK VINA RESULT:      -7.1      2.803      7.052
REMARK  Name = 
REMARK  2 active torsions:
REMARK  status: ('A' for Active; 'I' for Inactive)
REMARK    1  A    between atoms: N_3  and  C_4
REMARK    2  A    between atoms: C_4  and  C_5
REMARK                            x       y       z     vdW  Elec       q    Type
REMARK                         _______ _______ _______ _____ _____    ______ ____
ROOT
ATOM      1  C   UNL     1       5.805   4.986  18.440  0.00  0.00    +0.000 C 
ENDROOT
BRANCH   1   4
ATOM      2  O   UNL     1       5.135   2.635  19.889  0.00  0.00    +0.000 OA
ATOM      3  C   UNL     1       4.290   3.453  19.547  0.00  0.00    +0.000 C 
ATOM      4  N   UNL     1       4.468   4.609  18.832  0.00  0.00    +0.000 N 
ATOM      5  N   UNL     1       2.972   3.297  19.977  0.00  0.00    +0.000 N 
ATOM      6  C   UNL     1       1.810   3.405  19.227  0.00  0.00    +0.000 A 
ATOM      7  C   UNL     1       0.787   3.075  20.085  0.00  0.00    +0.000 A 
ATOM      8  N   UNL     1       1.269   2.843  21.349  0.00  0.00    +0.000 NA
ATOM      9  C   UNL     1       2.575   2.957  21.246  0.00  0.00    +0.000 A 
ATOM     10  H   UNL     1       3.797   5.357  18.965  0.00  0.00    +0.000 HD
ENDBRANCH   1   4
BRANCH   1  11
ATOM     11  C   UNL     1       6.024   4.762  16.969  0.00  0.00    +0.000 A 
ATOM     12  C   UNL     1       5.143   3.903  16.264  0.00  0.00    +0.000 A 
ATOM     13  C   UNL     1       5.305   3.671  14.895  0.00  0.00    +0.000 A 
ATOM     14  C   UNL     1       6.345   4.308  14.260  0.00  0.00    +0.000 A 
ATOM     15  C   UNL     1       7.202   5.146  14.934  0.00  0.00    +0.000 A 
ATOM     16  C   UNL     1       7.067   5.397  16.285  0.00  0.00    +0.000 A 
ATOM     17  O   UNL     1       8.162   5.667  14.121  0.00  0.00    +0.000 OA
ATOM     18  C   UNL     1       7.829   5.035  12.867  0.00  0.00    +0.000 C 
ATOM     19  O   UNL     1       6.656   4.199  12.940  0.00  0.00    +0.000 OA
ENDBRANCH   1  11
TORSDOF 2
ENDMDL
MODEL 3
REMARK VINA RESULT:      -7.0      3.097      6.844
REMARK  Name = 
REMARK  2 active torsions:
REMARK  status: ('A' for Active; 'I' for Inactive)
REMARK    1  A    between atoms: N_3  and  C_4
REMARK    2  A    between atoms: C_4  and  C_5
REMARK                            x       y       z     vdW  Elec       q    Type
REMARK                         _______ _______ _______ _____ _____    ______ ____
ROOT
ATOM      1  C   UNL     1       3.205   3.512  16.514  0.00  0.00    +0.000 C 
ENDROOT
BRANCH   1   4
ATOM      2  O   UNL     1       3.753   1.483  18.426  0.00  0.00    +0.000 OA
ATOM      3  C   UNL     1       3.010   2.425  18.670  0.00  0.00    +0.000 C 
ATOM      4  N   UNL     1       2.642   3.454  17.842  0.00  0.00    +0.000 N 
ATOM      5  N   UNL     1       2.503   2.581  19.960  0.00  0.00    +0.000 N 
ATOM      6  C   UNL     1       1.198   2.860  20.338  0.00  0.00    +0.000 A 
ATOM      7  C   UNL     1       1.197   2.824  21.713  0.00  0.00    +0.000 A 
ATOM      8  N   UNL     1       2.464   2.606  22.193  0.00  0.00    +0.000 NA
ATOM      9  C   UNL     1       3.214   2.440  21.126  0.00  0.00    +0.000 A 
ATOM     10  H   UNL     1       2.372   4.332  18.268  0.00  0.00    +0.000 HD
ENDBRANCH   1   4
BRANCH   1  11
ATOM     11  C   UNL     1       4.469   4.327  16.494  0.00  0.00    +0.000 A 
ATOM     12  C   UNL     1       5.585   3.851  15.760  0.00  0.00    +0.000 A 
ATOM     13  C   UNL     1       6.778   4.578  15.710  0.00  0.00    +0.000 A 
ATOM     14  C   UNL     1       6.826   5.770  16.393  0.00  0.00    +0.000 A 
ATOM     15  C   UNL     1       5.749   6.243  17.104  0.00  0.00    +0.000 A 
ATOM     16  C   UNL     1       4.556   5.549  17.172  0.00  0.00    +0.000 A 
ATOM     17  O   UNL     1       6.010   7.434  17.709  0.00  0.00    +0.000 OA
ATOM     18  C   UNL     1       7.385   7.640  17.322  0.00  0.00    +0.000 C 
ATOM     19  O   UNL     1       7.898   6.605  16.458  0.00  0.00    +0.000 OA
ENDBRANCH   1  11
TORSDOF 2
ENDMDL
MODEL 4
REMARK VINA RESULT:      -6.9      2.976      6.919
REMARK  Name = 
REMARK  2 active torsions:
REMARK  status: ('A' for Active; 'I' for Inactive)
REMARK    1  A    between atoms: N_3  and  C_4
REMARK    2  A    between atoms: C_4  and  C_5
REMARK                            x       y       z     vdW  Elec       q    Type
REMARK                         _______ _______ _______ _____ _____    ______ ____
ROOT
ATOM      1  C   UNL     1       5.947   5.105  18.789  0.00  0.00    +0.000 C 
ENDROOT
BRANCH   1   4
ATOM      2  O   UNL     1       3.404   6.201  19.430  0.00  0.00    +0.000 OA
ATOM      3  C   UNL     1       3.672   5.021  19.619  0.00  0.00    +0.000 C 
ATOM      4  N   UNL     1       4.854   4.369  19.380  0.00  0.00    +0.000 N 
ATOM      5  N   UNL     1       2.671   4.152  20.053  0.00  0.00    +0.000 N 
ATOM      6  C   UNL     1       2.738   3.207  21.066  0.00  0.00    +0.000 A 
ATOM      7  C   UNL     1       1.472   2.679  21.162  0.00  0.00    +0.000 A 
ATOM      8  N   UNL     1       0.651   3.211  20.200  0.00  0.00    +0.000 NA
ATOM      9  C   UNL     1       1.386   4.103  19.573  0.00  0.00    +0.000 A 
ATOM     10  H   UNL     1       4.819   3.372  19.202  0.00  0.00    +0.000 HD
ENDBRANCH   1   4
BRANCH   1  11
ATOM     11  C   UNL     1       6.077   4.799  17.322  0.00  0.00    +0.000 A 
ATOM     12  C   UNL     1       5.200   3.852  16.735  0.00  0.00    +0.000 A 
ATOM     13  C   UNL     1       5.281   3.541  15.374  0.00  0.00    +0.000 A 
ATOM     14  C   UNL     1       6.238   4.189  14.629  0.00  0.00    +0.000 A 
ATOM     15  C   UNL     1       7.091   5.112  15.188  0.00  0.00    +0.000 A 
ATOM     16  C   UNL     1       7.035   5.441  16.528  0.00  0.00    +0.000 A 
ATOM     17  O   UNL     1       7.963   5.628  14.279  0.00  0.00    +0.000 OA
ATOM     18  C   UNL     1       7.581   4.901  13.093  0.00  0.00    +0.000 C 
ATOM     19  O   UNL     1       6.464   4.012  13.300  0.00  0.00    +0.000 OA
ENDBRANCH   1  11
TORSDOF 2
ENDMDL
MODEL 5
REMARK VINA RESULT:      -6.8      1.022      1.191
REMARK  Name = 
REMARK  2 active torsions:
REMARK  status: ('A' for Active; 'I' for Inactive)
REMARK    1  A    between atoms: N_3  and  C_4
REMARK    2  A    between atoms: C_4  and  C_5
REMARK                            x       y       z     vdW  Elec       q    Type
REMARK                         _______ _______ _______ _____ _____    ______ ____
ROOT
ATOM      1  C   UNL     1       6.321   4.427  17.869  0.00  0.00    +0.000 C 
ENDROOT
BRANCH   1   4
ATOM      2  O   UNL     1       6.561   6.279  15.726  0.00  0.00    +0.000 OA
ATOM      3  C   UNL     1       6.455   5.074  15.538  0.00  0.00    +0.000 C 
ATOM      4  N   UNL     1       6.310   4.077  16.468  0.00  0.00    +0.000 N 
ATOM      5  N   UNL     1       6.571   4.570  14.242  0.00  0.00    +0.000 N 
ATOM      6  C   UNL     1       5.758   3.642  13.609  0.00  0.00    +0.000 A 
ATOM      7  C   UNL     1       6.235   3.551  12.322  0.00  0.00    +0.000 A 
ATOM      8  N   UNL     1       7.353   4.331  12.163  0.00  0.00    +0.000 NA
ATOM      9  C   UNL     1       7.512   4.945  13.315  0.00  0.00    +0.000 A 
ATOM     10  H   UNL     1       6.630   3.147  16.222  0.00  0.00    +0.000 HD
ENDBRANCH   1   4
BRANCH   1  11
ATOM     11  C   UNL     1       4.934   4.397  18.448  0.00  0.00    +0.000 A 
ATOM     12  C   UNL     1       4.345   5.609  18.890  0.00  0.00    +0.000 A 
ATOM     13  C   UNL     1       3.056   5.629  19.429  0.00  0.00    +0.000 A 
ATOM     14  C   UNL     1       2.381   4.433  19.511  0.00  0.00    +0.000 A 
ATOM     15  C   UNL     1       2.941   3.253  19.081  0.00  0.00    +0.000 A 
ATOM     16  C   UNL     1       4.212   3.201  18.542  0.00  0.00    +0.000 A 
ATOM     17  O   UNL     1       2.109   2.191  19.257  0.00  0.00    +0.000 OA
ATOM     18  C   UNL     1       0.974   2.833  19.876  0.00  0.00    +0.000 C 
ATOM     19  O   UNL     1       1.126   4.262  20.007  0.00  0.00    +0.000 OA
ENDBRANCH   1  11
TORSDOF 2
ENDMDL
MODEL 6
REMARK VINA RESULT:      -6.6      3.169      6.932
REMARK  Name = 
REMARK  2 active torsions:
REMARK  status: ('A' for Active; 'I' for Inactive)
REMARK    1  A    between atoms: N_3  and  C_4
REMARK    2  A    between atoms: C_4  and  C_5
REMARK                            x       y       z     vdW  Elec       q    Type
REMARK                         _______ _______ _______ _____ _____    ______ ____
ROOT
ATOM      1  C   UNL     1       4.693   4.333  16.714  0.00  0.00    +0.000 C 
ENDROOT
BRANCH   1   4
ATOM      2  O   UNL     1       4.139   1.983  18.214  0.00  0.00    +0.000 OA
ATOM      3  C   UNL     1       3.462   2.997  18.317  0.00  0.00    +0.000 C 
ATOM      4  N   UNL     1       3.600   4.184  17.645  0.00  0.00    +0.000 N 
ATOM      5  N   UNL     1       2.455   3.054  19.282  0.00  0.00    +0.000 N 
ATOM      6  C   UNL     1       1.152   3.505  19.134  0.00  0.00    +0.000 A 
ATOM      7  C   UNL     1       0.541   3.271  20.343  0.00  0.00    +0.000 A 
ATOM      8  N   UNL     1       1.439   2.763  21.249  0.00  0.00    +0.000 NA
ATOM      9  C   UNL     1       2.562   2.621  20.580  0.00  0.00    +0.000 A 
ATOM     10  H   UNL     1       3.257   5.027  18.093  0.00  0.00    +0.000 HD
ENDBRANCH   1   4
BRANCH   1  11
ATOM     11  C   UNL     1       5.761   5.236  17.268  0.00  0.00    +0.000 A 
ATOM     12  C   UNL     1       6.678   4.717  18.217  0.00  0.00    +0.000 A 
ATOM     13  C   UNL     1       7.690   5.518  18.754  0.00  0.00    +0.000 A 
ATOM     14  C   UNL     1       7.763   6.823  18.327  0.00  0.00    +0.000 A 
ATOM     15  C   UNL     1       6.881   7.335  17.404  0.00  0.00    +0.000 A 
ATOM     16  C   UNL     1       5.872   6.568  16.854  0.00  0.00    +0.000 A 
ATOM     17  O   UNL     1       7.125   8.644  17.125  0.00  0.00    +0.000 OA
ATOM     18  C   UNL     1       8.242   8.905  18.001  0.00  0.00    +0.000 C 
ATOM     19  O   UNL     1       8.674   7.744  18.740  0.00  0.00    +0.000 OA
ENDBRANCH   1  11
TORSDOF 2
ENDMDL
MODEL 7
REMARK VINA RESULT:      -6.6      2.486      3.522
REMARK  Name = 
REMARK  2 active torsions:
REMARK  status: ('A' for Active; 'I' for Inactive)
REMARK    1  A    between atoms: N_3  and  C_4
REMARK    2  A    between atoms: C_4  and  C_5
REMARK                            x       y       z     vdW  Elec       q    Type
REMARK                         _______ _______ _______ _____ _____    ______ ____
ROOT
ATOM      1  C   UNL     1       5.066   4.064  17.087  0.00  0.00    +0.000 C 
ENDROOT
BRANCH   1   4
ATOM      2  O   UNL     1       6.738   5.830  15.615  0.00  0.00    +0.000 OA
ATOM      3  C   UNL     1       6.668   5.864  16.837  0.00  0.00    +0.000 C 
ATOM      4  N   UNL     1       5.928   5.065  17.669  0.00  0.00    +0.000 N 
ATOM      5  N   UNL     1       7.336   6.872  17.533  0.00  0.00    +0.000 N 
ATOM      6  C   UNL     1       8.127   6.751  18.666  0.00  0.00    +0.000 A 
ATOM      7  C   UNL     1       8.624   8.010  18.905  0.00  0.00    +0.000 A 
ATOM      8  N   UNL     1       8.110   8.913  18.008  0.00  0.00    +0.000 NA
ATOM      9  C   UNL     1       7.368   8.201  17.189  0.00  0.00    +0.000 A 
ATOM     10  H   UNL     1       5.656   5.441  18.571  0.00  0.00    +0.000 HD
ENDBRANCH   1   4
BRANCH   1  11
ATOM     11  C   UNL     1       3.885   3.780  17.974  0.00  0.00    +0.000 A 
ATOM     12  C   UNL     1       2.577   3.928  17.448  0.00  0.00    +0.000 A 
ATOM     13  C   UNL     1       1.451   3.669  18.234  0.00  0.00    +0.000 A 
ATOM     14  C   UNL     1       1.659   3.263  19.532  0.00  0.00    +0.000 A 
ATOM     15  C   UNL     1       2.924   3.112  20.050  0.00  0.00    +0.000 A 
ATOM     16  C   UNL     1       4.056   3.359  19.298  0.00  0.00    +0.000 A 
ATOM     17  O   UNL     1       2.907   2.710  21.350  0.00  0.00    +0.000 OA
ATOM     18  C   UNL     1       1.486   2.656  21.599  0.00  0.00    +0.000 C 
ATOM     19  O   UNL     1       0.688   2.971  20.439  0.00  0.00    +0.000 OA
ENDBRANCH   1  11
TORSDOF 2
ENDMDL
MODEL 8
REMARK VINA RESULT:      -6.6      3.202      6.929
REMARK  Name = 
REMARK  2 active torsions:
REMARK  status: ('A' for Active; 'I' for Inactive)
REMARK    1  A    between atoms: N_3  and  C_4
REMARK    2  A    between atoms: C_4  and  C_5
REMARK                            x       y       z     vdW  Elec       q    Type
REMARK                         _______ _______ _______ _____ _____    ______ ____
ROOT
ATOM      1  C   UNL     1       5.099   4.194  16.902  0.00  0.00    +0.000 C 
ENDROOT
BRANCH   1   4
ATOM      2  O   UNL     1       2.778   5.453  17.953  0.00  0.00    +0.000 OA
ATOM      3  C   UNL     1       3.173   4.369  18.361  0.00  0.00    +0.000 C 
ATOM      4  N   UNL     1       4.279   3.662  17.965  0.00  0.00    +0.000 N 
ATOM      5  N   UNL     1       2.404   3.665  19.289  0.00  0.00    +0.000 N 
ATOM      6  C   UNL     1       2.829   3.035  20.450  0.00  0.00    +0.000 A 
ATOM      7  C   UNL     1       1.686   2.569  21.056  0.00  0.00    +0.000 A 
ATOM      8  N   UNL     1       0.586   2.823  20.275  0.00  0.00    +0.000 NA
ATOM      9  C   UNL     1       1.042   3.499  19.244  0.00  0.00    +0.000 A 
ATOM     10  H   UNL     1       4.266   2.655  18.079  0.00  0.00    +0.000 HD
ENDBRANCH   1   4
BRANCH   1  11
ATOM     11  C   UNL     1       6.076   5.210  17.426  0.00  0.00    +0.000 A 
ATOM     12  C   UNL     1       6.992   4.828  18.439  0.00  0.00    +0.000 A 
ATOM     13  C   UNL     1       7.922   5.737  18.950  0.00  0.00    +0.000 A 
ATOM     14  C   UNL     1       7.917   7.011  18.433  0.00  0.00    +0.000 A 
ATOM     15  C   UNL     1       7.037   7.391  17.448  0.00  0.00    +0.000 A 
ATOM     16  C   UNL     1       6.107   6.515  16.921  0.00  0.00    +0.000 A 
ATOM     17  O   UNL     1       7.197   8.693  17.084  0.00  0.00    +0.000 OA
ATOM     18  C   UNL     1       8.257   9.096  17.975  0.00  0.00    +0.000 C 
ATOM     19  O   UNL     1       8.743   8.024  18.810  0.00  0.00    +0.000 OA
ENDBRANCH   1  11
TORSDOF 2
ENDMDL
MODEL 9
REMARK VINA RESULT:      -6.5      4.627      5.491
REMARK  Name = 
REMARK  2 active torsions:
REMARK  status: ('A' for Active; 'I' for Inactive)
REMARK    1  A    between atoms: N_3  and  C_4
REMARK    2  A    between atoms: C_4  and  C_5
REMARK                            x       y       z     vdW  Elec       q    Type
REMARK                         _______ _______ _______ _____ _____    ______ ____
ROOT
ATOM      1  C   UNL     1       2.683   5.830  19.758  0.00  0.00    +0.000 C 
ENDROOT
BRANCH   1   4
ATOM      2  O   UNL     1       3.480   3.739  18.006  0.00  0.00    +0.000 OA
ATOM      3  C   UNL     1       4.261   4.598  18.394  0.00  0.00    +0.000 C 
ATOM      4  N   UNL     1       4.021   5.642  19.250  0.00  0.00    +0.000 N 
ATOM      5  N   UNL     1       5.556   4.631  17.875  0.00  0.00    +0.000 N 
ATOM      6  C   UNL     1       6.751   4.776  18.565  0.00  0.00    +0.000 A 
ATOM      7  C   UNL     1       7.740   4.654  17.618  0.00  0.00    +0.000 A 
ATOM      8  N   UNL     1       7.197   4.514  16.366  0.00  0.00    +0.000 NA
ATOM      9  C   UNL     1       5.897   4.478  16.554  0.00  0.00    +0.000 A 
ATOM     10  H   UNL     1       4.604   6.467  19.168  0.00  0.00    +0.000 HD
ENDBRANCH   1   4
BRANCH   1  11
ATOM     11  C   UNL     1       2.180   7.217  19.466  0.00  0.00    +0.000 A 
ATOM     12  C   UNL     1       2.333   7.745  18.159  0.00  0.00    +0.000 A 
ATOM     13  C   UNL     1       1.876   9.027  17.841  0.00  0.00    +0.000 A 
ATOM     14  C   UNL     1       1.271   9.753  18.840  0.00  0.00    +0.000 A 
ATOM     15  C   UNL     1       1.114   9.249  20.110  0.00  0.00    +0.000 A 
ATOM     16  C   UNL     1       1.553   7.986  20.454  0.00  0.00    +0.000 A 
ATOM     17  O   UNL     1       0.497  10.130  20.944  0.00  0.00    +0.000 OA
ATOM     18  C   UNL     1       0.314  11.258  20.062  0.00  0.00    +0.000 C 
ATOM     19  O   UNL     1       0.771  11.012  18.716  0.00  0.00    +0.000 OA
ENDBRANCH   1  11
TORSDOF 2
ENDMDL
