MODEL 1
REMARK VINA RESULT:      -7.5      0.000      0.000
REMARK  Name = 
REMARK  5 active torsions:
REMARK  status: ('A' for Active; 'I' for Inactive)
REMARK    1  A    between atoms: C_1  and  C_2
REMARK    2  A    between atoms: C_4  and  C_5
REMARK    3  A    between atoms: C_7  and  O_8
REMARK    4  A    between atoms: N_9  and  C_10
REMARK    5  A    between atoms: C_10  and  C_11
REMARK                            x       y       z     vdW  Elec       q    Type
REMARK                         _______ _______ _______ _____ _____    ______ ____
ROOT
ATOM      1  C   UNL     1      -0.444   9.633  23.074  0.00  0.00    +0.000 C 
ATOM      2  C   UNL     1      -0.069   9.930  21.663  0.00  0.00    +0.000 A 
ATOM      3  N   UNL     1      -0.540  11.087  21.042  0.00  0.00    +0.000 NA
ATOM      4  C   UNL     1      -0.033  11.054  19.830  0.00  0.00    +0.000 A 
ATOM      5  C   UNL     1      -0.263  12.109  18.803  0.00  0.00    +0.000 C 
ATOM      6  C   UNL     1       0.793   9.852  19.603  0.00  0.00    +0.000 A 
ATOM      7  C   UNL     1       1.520   9.293  18.625  0.00  0.00    +0.000 A 
ATOM      8  N   UNL     1       2.180   8.073  18.855  0.00  0.00    +0.000 N 
ATOM      9  N   UNL     1       2.154   7.392  20.084  0.00  0.00    +0.000 NA
ATOM     10  C   UNL     1       1.445   7.929  21.034  0.00  0.00    +0.000 A 
ATOM     11  C   UNL     1       0.711   9.183  20.869  0.00  0.00    +0.000 A 
ENDROOT
BRANCH   7  12
ATOM     12  O   UNL     1       1.675   9.853  17.377  0.00  0.00    +0.000 OA
ATOM     13  H   UNL     1       1.617  10.816  17.444  0.00  0.00    +0.000 HD
ENDBRANCH   7  12
BRANCH   8  14
ATOM     14  C   UNL     1       2.996   7.420  17.818  0.00  0.00    +0.000 C 
BRANCH  14  15
ATOM     15  C   UNL     1       3.111   5.922  18.026  0.00  0.00    +0.000 A 
ATOM     16  C   UNL     1       2.002   5.085  17.822  0.00  0.00    +0.000 A 
ATOM     17  C   UNL     1       2.129   3.698  17.935  0.00  0.00    +0.000 A 
ATOM     18  C   UNL     1       3.363   3.137  18.257  0.00  0.00    +0.000 A 
ATOM     19 CL   UNL     1       3.525   1.428  18.367  0.00  0.00    +0.000 Cl
ATOM     20  C   UNL     1       4.469   3.953  18.480  0.00  0.00    +0.000 A 
ATOM     21  C   UNL     1       4.342   5.340  18.366  0.00  0.00    +0.000 A 
ENDBRANCH  14  15
ENDBRANCH   8  14
TORSDOF 3
ENDMDL
MODEL 2
REMARK VINA RESULT:      -7.4      0.125      1.087
REMARK  Name = 
REMARK  5 active torsions:
REMARK  status: ('A' for Active; 'I' for Inactive)
REMARK    1  A    between atoms: C_1  and  C_2
REMARK    2  A    between atoms: C_4  and  C_5
REMARK    3  A    between atoms: C_7  and  O_8
REMARK    4  A    between atoms: N_9  and  C_10
REMARK    5  A    between atoms: C_10  and  C_11
REMARK                            x       y       z     vdW  Elec       q    Type
REMARK                         _______ _______ _______ _____ _____    ______ ____
ROOT
ATOM      1  C   UNL     1      -0.492   9.545  23.020  0.00  0.00    +0.000 C 
ATOM      2  C   UNL     1      -0.114   9.863  21.615  0.00  0.00    +0.000 A 
ATOM      3  N   UNL     1      -0.618  11.006  20.995  0.00  0.00    +0.000 NA
ATOM      4  C   UNL     1      -0.099  10.998  19.788  0.00  0.00    +0.000 A 
ATOM      5  C   UNL     1      -0.356  12.050  18.765  0.00  0.00    +0.000 C 
ATOM      6  C   UNL     1       0.770   9.827  19.562  0.00  0.00    +0.000 A 
ATOM      7  C   UNL     1       1.525   9.300  18.588  0.00  0.00    +0.000 A 
ATOM      8  N   UNL     1       2.226   8.103  18.818  0.00  0.00    +0.000 N 
ATOM      9  N   UNL     1       2.212   7.414  20.043  0.00  0.00    +0.000 NA
ATOM     10  C   UNL     1       1.476   7.920  20.989  0.00  0.00    +0.000 A 
ATOM     11  C   UNL     1       0.700   9.148  20.824  0.00  0.00    +0.000 A 
ENDROOT
BRANCH   7  12
ATOM     12  O   UNL     1       1.673   9.873  17.345  0.00  0.00    +0.000 OA
ATOM     13  H   UNL     1       1.119  10.662  17.283  0.00  0.00    +0.000 HD
ENDBRANCH   7  12
BRANCH   8  14
ATOM     14  C   UNL     1       3.074   7.484  17.786  0.00  0.00    +0.000 C 
BRANCH  14  15
ATOM     15  C   UNL     1       3.139   5.974  17.913  0.00  0.00    +0.000 A 
ATOM     16  C   UNL     1       4.350   5.334  18.225  0.00  0.00    +0.000 A 
ATOM     17  C   UNL     1       4.392   3.952  18.421  0.00  0.00    +0.000 A 
ATOM     18  C   UNL     1       3.227   3.197  18.302  0.00  0.00    +0.000 A 
ATOM     19 CL   UNL     1       3.276   1.499  18.573  0.00  0.00    +0.000 Cl
ATOM     20  C   UNL     1       2.022   3.812  17.976  0.00  0.00    +0.000 A 
ATOM     21  C   UNL     1       1.979   5.195  17.781  0.00  0.00    +0.000 A 
ENDBRANCH  14  15
ENDBRANCH   8  14
TORSDOF 3
ENDMDL
MODEL 3
REMARK VINA RESULT:      -7.3      1.755      2.798
REMARK  Name = 
REMARK  5 active torsions:
REMARK  status: ('A' for Active; 'I' for Inactive)
REMARK    1  A    between atoms: C_1  and  C_2
REMARK    2  A    between atoms: C_4  and  C_5
REMARK    3  A    between atoms: C_7  and  O_8
REMARK    4  A    between atoms: N_9  and  C_10
REMARK    5  A    between atoms: C_10  and  C_11
REMARK                            x       y       z     vdW  Elec       q    Type
REMARK                         _______ _______ _______ _____ _____    ______ ____
ROOT
ATOM      1  C   UNL     1      -1.440  12.146  18.267  0.00  0.00    +0.000 C 
ATOM      2  C   UNL     1      -0.837  11.312  19.344  0.00  0.00    +0.000 A 
ATOM      3  N   UNL     1      -1.205  11.511  20.674  0.00  0.00    +0.000 NA
ATOM      4  C   UNL     1      -0.511  10.630  21.357  0.00  0.00    +0.000 A 
ATOM      5  C   UNL     1      -0.594  10.470  22.836  0.00  0.00    +0.000 C 
ATOM      6  C   UNL     1       0.360   9.813  20.490  0.00  0.00    +0.000 A 
ATOM      7  C   UNL     1       1.253   8.818  20.601  0.00  0.00    +0.000 A 
ATOM      8  N   UNL     1       1.879   8.311  19.448  0.00  0.00    +0.000 N 
ATOM      9  N   UNL     1       1.607   8.768  18.148  0.00  0.00    +0.000 NA
ATOM     10  C   UNL     1       0.745   9.736  18.037  0.00  0.00    +0.000 A 
ATOM     11  C   UNL     1       0.067  10.334  19.186  0.00  0.00    +0.000 A 
ENDROOT
BRANCH   7  12
ATOM     12  O   UNL     1       1.600   8.238  21.799  0.00  0.00    +0.000 OA
ATOM     13  H   UNL     1       2.563   8.220  21.885  0.00  0.00    +0.000 HD
ENDBRANCH   7  12
BRANCH   8  14
ATOM     14  C   UNL     1       2.861   7.215  19.512  0.00  0.00    +0.000 C 
BRANCH  14  15
ATOM     15  C   UNL     1       2.227   5.853  19.306  0.00  0.00    +0.000 A 
ATOM     16  C   UNL     1       2.210   5.258  18.034  0.00  0.00    +0.000 A 
ATOM     17  C   UNL     1       1.699   3.969  17.859  0.00  0.00    +0.000 A 
ATOM     18  C   UNL     1       1.196   3.268  18.953  0.00  0.00    +0.000 A 
ATOM     19 CL   UNL     1       0.594   1.670  18.741  0.00  0.00    +0.000 Cl
ATOM     20  C   UNL     1       1.188   3.849  20.218  0.00  0.00    +0.000 A 
ATOM     21  C   UNL     1       1.701   5.137  20.392  0.00  0.00    +0.000 A 
ENDBRANCH  14  15
ENDBRANCH   8  14
TORSDOF 3
ENDMDL
MODEL 4
REMARK VINA RESULT:      -7.2      1.801      2.813
REMARK  Name = 
REMARK  5 active torsions:
REMARK  status: ('A' for Active; 'I' for Inactive)
REMARK    1  A    between atoms: C_1  and  C_2
REMARK    2  A    between atoms: C_4  and  C_5
REMARK    3  A    between atoms: C_7  and  O_8
REMARK    4  A    between atoms: N_9  and  C_10
REMARK    5  A    between atoms: C_10  and  C_11
REMARK                            x       y       z     vdW  Elec       q    Type
REMARK                         _______ _______ _______ _____ _____    ______ ____
ROOT
ATOM      1  C   UNL     1      -1.688  11.918  18.012  0.00  0.00    +0.000 C 
ATOM      2  C   UNL     1      -1.021  11.186  19.124  0.00  0.00    +0.000 A 
ATOM      3  N   UNL     1      -1.373  11.451  20.448  0.00  0.00    +0.000 NA
ATOM      4  C   UNL     1      -0.619  10.652  21.169  0.00  0.00    +0.000 A 
ATOM      5  C   UNL     1      -0.665  10.583  22.656  0.00  0.00    +0.000 C 
ATOM      6  C   UNL     1       0.277   9.828  20.335  0.00  0.00    +0.000 A 
ATOM      7  C   UNL     1       1.224   8.891  20.487  0.00  0.00    +0.000 A 
ATOM      8  N   UNL     1       1.853   8.344  19.355  0.00  0.00    +0.000 N 
ATOM      9  N   UNL     1       1.532   8.702  18.035  0.00  0.00    +0.000 NA
ATOM     10  C   UNL     1       0.618   9.615  17.884  0.00  0.00    +0.000 A 
ATOM     11  C   UNL     1      -0.069  10.249  19.008  0.00  0.00    +0.000 A 
ENDROOT
BRANCH   7  12
ATOM     12  O   UNL     1       1.625   8.407  21.712  0.00  0.00    +0.000 OA
ATOM     13  H   UNL     1       1.561   7.442  21.716  0.00  0.00    +0.000 HD
ENDBRANCH   7  12
BRANCH   8  14
ATOM     14  C   UNL     1       2.894   7.307  19.466  0.00  0.00    +0.000 C 
BRANCH  14  15
ATOM     15  C   UNL     1       2.337   5.905  19.307  0.00  0.00    +0.000 A 
ATOM     16  C   UNL     1       1.770   5.233  20.402  0.00  0.00    +0.000 A 
ATOM     17  C   UNL     1       1.186   3.975  20.238  0.00  0.00    +0.000 A 
ATOM     18  C   UNL     1       1.168   3.376  18.980  0.00  0.00    +0.000 A 
ATOM     19 CL   UNL     1       0.423   1.839  18.773  0.00  0.00    +0.000 Cl
ATOM     20  C   UNL     1       1.743   4.019  17.887  0.00  0.00    +0.000 A 
ATOM     21  C   UNL     1       2.326   5.279  18.052  0.00  0.00    +0.000 A 
ENDBRANCH  14  15
ENDBRANCH   8  14
TORSDOF 3
ENDMDL
MODEL 5
REMARK VINA RESULT:      -7.1      3.735      5.432
REMARK  Name = 
REMARK  5 active torsions:
REMARK  status: ('A' for Active; 'I' for Inactive)
REMARK    1  A    between atoms: C_1  and  C_2
REMARK    2  A    between atoms: C_4  and  C_5
REMARK    3  A    between atoms: C_7  and  O_8
REMARK    4  A    between atoms: N_9  and  C_10
REMARK    5  A    between atoms: C_10  and  C_11
REMARK                            x       y       z     vdW  Elec       q    Type
REMARK                         _______ _______ _______ _____ _____    ______ ____
ROOT
ATOM      1  C   UNL     1       1.472   3.159  21.454  0.00  0.00    +0.000 C 
ATOM      2  C   UNL     1       2.116   4.259  20.683  0.00  0.00    +0.000 A 
ATOM      3  N   UNL     1       1.497   5.505  20.590  0.00  0.00    +0.000 NA
ATOM      4  C   UNL     1       2.308   6.237  19.861  0.00  0.00    +0.000 A 
ATOM      5  C   UNL     1       2.055   7.662  19.509  0.00  0.00    +0.000 C 
ATOM      6  C   UNL     1       3.504   5.485  19.432  0.00  0.00    +0.000 A 
ATOM      7  C   UNL     1       4.617   5.679  18.710  0.00  0.00    +0.000 A 
ATOM      8  N   UNL     1       5.538   4.629  18.552  0.00  0.00    +0.000 N 
ATOM      9  N   UNL     1       5.385   3.361  19.138  0.00  0.00    +0.000 NA
ATOM     10  C   UNL     1       4.303   3.168  19.835  0.00  0.00    +0.000 A 
ATOM     11  C   UNL     1       3.285   4.199  20.030  0.00  0.00    +0.000 A 
ENDROOT
BRANCH   7  12
ATOM     12  O   UNL     1       4.931   6.873  18.103  0.00  0.00    +0.000 OA
ATOM     13  H   UNL     1       4.153   7.221  17.646  0.00  0.00    +0.000 HD
ENDBRANCH   7  12
BRANCH   8  14
ATOM     14  C   UNL     1       6.779   4.790  17.775  0.00  0.00    +0.000 C 
BRANCH  14  15
ATOM     15  C   UNL     1       6.573   4.549  16.292  0.00  0.00    +0.000 A 
ATOM     16  C   UNL     1       7.444   5.115  15.347  0.00  0.00    +0.000 A 
ATOM     17  C   UNL     1       7.302   4.827  13.987  0.00  0.00    +0.000 A 
ATOM     18  C   UNL     1       6.285   3.976  13.560  0.00  0.00    +0.000 A 
ATOM     19 CL   UNL     1       6.129   3.599  11.889  0.00  0.00    +0.000 Cl
ATOM     20  C   UNL     1       5.400   3.420  14.481  0.00  0.00    +0.000 A 
ATOM     21  C   UNL     1       5.544   3.707  15.841  0.00  0.00    +0.000 A 
ENDBRANCH  14  15
ENDBRANCH   8  14
TORSDOF 3
ENDMDL
MODEL 6
REMARK VINA RESULT:      -7.0      3.713      5.388
REMARK  Name = 
REMARK  5 active torsions:
REMARK  status: ('A' for Active; 'I' for Inactive)
REMARK    1  A    between atoms: C_1  and  C_2
REMARK    2  A    between atoms: C_4  and  C_5
REMARK    3  A    between atoms: C_7  and  O_8
REMARK    4  A    between atoms: N_9  and  C_10
REMARK    5  A    between atoms: C_10  and  C_11
REMARK                            x       y       z     vdW  Elec       q    Type
REMARK                         _______ _______ _______ _____ _____    ______ ____
ROOT
ATOM      1  C   UNL     1       1.542   2.904  21.521  0.00  0.00    +0.000 C 
ATOM      2  C   UNL     1       2.139   4.048  20.777  0.00  0.00    +0.000 A 
ATOM      3  N   UNL     1       1.474   5.273  20.724  0.00  0.00    +0.000 NA
ATOM      4  C   UNL     1       2.252   6.055  20.010  0.00  0.00    +0.000 A 
ATOM      5  C   UNL     1       1.943   7.479  19.700  0.00  0.00    +0.000 C 
ATOM      6  C   UNL     1       3.471   5.360  19.552  0.00  0.00    +0.000 A 
ATOM      7  C   UNL     1       4.571   5.615  18.829  0.00  0.00    +0.000 A 
ATOM      8  N   UNL     1       5.530   4.605  18.636  0.00  0.00    +0.000 N 
ATOM      9  N   UNL     1       5.427   3.317  19.186  0.00  0.00    +0.000 NA
ATOM     10  C   UNL     1       4.359   3.064  19.885  0.00  0.00    +0.000 A 
ATOM     11  C   UNL     1       3.305   4.051  20.115  0.00  0.00    +0.000 A 
ENDROOT
BRANCH   7  12
ATOM     12  O   UNL     1       4.836   6.838  18.255  0.00  0.00    +0.000 OA
ATOM     13  H   UNL     1       4.009   7.251  17.972  0.00  0.00    +0.000 HD
ENDBRANCH   7  12
BRANCH   8  14
ATOM     14  C   UNL     1       6.758   4.835  17.856  0.00  0.00    +0.000 C 
BRANCH  14  15
ATOM     15  C   UNL     1       6.590   4.487  16.389  0.00  0.00    +0.000 A 
ATOM     16  C   UNL     1       5.510   3.699  15.960  0.00  0.00    +0.000 A 
ATOM     17  C   UNL     1       5.310   3.446  14.601  0.00  0.00    +0.000 A 
ATOM     18  C   UNL     1       6.191   3.975  13.660  0.00  0.00    +0.000 A 
ATOM     19 CL   UNL     1       5.927   3.688  11.984  0.00  0.00    +0.000 Cl
ATOM     20  C   UNL     1       7.277   4.744  14.068  0.00  0.00    +0.000 A 
ATOM     21  C   UNL     1       7.475   4.998  15.428  0.00  0.00    +0.000 A 
ENDBRANCH  14  15
ENDBRANCH   8  14
TORSDOF 3
ENDMDL
MODEL 7
REMARK VINA RESULT:      -6.8      4.633      6.369
REMARK  Name = 
REMARK  5 active torsions:
REMARK  status: ('A' for Active; 'I' for Inactive)
REMARK    1  A    between atoms: C_1  and  C_2
REMARK    2  A    between atoms: C_4  and  C_5
REMARK    3  A    between atoms: C_7  and  O_8
REMARK    4  A    between atoms: N_9  and  C_10
REMARK    5  A    between atoms: C_10  and  C_11
REMARK                            x       y       z     vdW  Elec       q    Type
REMARK                         _______ _______ _______ _____ _____    ______ ____
ROOT
ATOM      1  C   UNL     1       0.681   4.215  20.483  0.00  0.00    +0.000 C 
ATOM      2  C   UNL     1       2.096   3.891  20.150  0.00  0.00    +0.000 A 
ATOM      3  N   UNL     1       2.717   2.785  20.731  0.00  0.00    +0.000 NA
ATOM      4  C   UNL     1       3.933   2.776  20.236  0.00  0.00    +0.000 A 
ATOM      5  C   UNL     1       4.961   1.751  20.571  0.00  0.00    +0.000 C 
ATOM      6  C   UNL     1       4.165   3.898  19.305  0.00  0.00    +0.000 A 
ATOM      7  C   UNL     1       5.149   4.392  18.540  0.00  0.00    +0.000 A 
ATOM      8  N   UNL     1       4.921   5.545  17.768  0.00  0.00    +0.000 N 
ATOM      9  N   UNL     1       3.690   6.220  17.719  0.00  0.00    +0.000 NA
ATOM     10  C   UNL     1       2.735   5.747  18.465  0.00  0.00    +0.000 A 
ATOM     11  C   UNL     1       2.896   4.567  19.312  0.00  0.00    +0.000 A 
ENDROOT
BRANCH   7  12
ATOM     12  O   UNL     1       6.399   3.825  18.449  0.00  0.00    +0.000 OA
ATOM     13  H   UNL     1       6.940   4.329  17.826  0.00  0.00    +0.000 HD
ENDBRANCH   7  12
BRANCH   8  14
ATOM     14  C   UNL     1       5.964   6.125  16.905  0.00  0.00    +0.000 C 
BRANCH  14  15
ATOM     15  C   UNL     1       6.176   5.328  15.632  0.00  0.00    +0.000 A 
ATOM     16  C   UNL     1       5.156   4.508  15.124  0.00  0.00    +0.000 A 
ATOM     17  C   UNL     1       5.323   3.837  13.909  0.00  0.00    +0.000 A 
ATOM     18  C   UNL     1       6.511   3.978  13.196  0.00  0.00    +0.000 A 
ATOM     19 CL   UNL     1       6.704   3.175  11.686  0.00  0.00    +0.000 Cl
ATOM     20  C   UNL     1       7.541   4.772  13.694  0.00  0.00    +0.000 A 
ATOM     21  C   UNL     1       7.373   5.444  14.908  0.00  0.00    +0.000 A 
ENDBRANCH  14  15
ENDBRANCH   8  14
TORSDOF 3
ENDMDL
MODEL 8
REMARK VINA RESULT:      -6.8      3.834      7.453
REMARK  Name = 
REMARK  5 active torsions:
REMARK  status: ('A' for Active; 'I' for Inactive)
REMARK    1  A    between atoms: C_1  and  C_2
REMARK    2  A    between atoms: C_4  and  C_5
REMARK    3  A    between atoms: C_7  and  O_8
REMARK    4  A    between atoms: N_9  and  C_10
REMARK    5  A    between atoms: C_10  and  C_11
REMARK                            x       y       z     vdW  Elec       q    Type
REMARK                         _______ _______ _______ _____ _____    ______ ____
ROOT
ATOM      1  C   UNL     1       6.396   3.771  14.337  0.00  0.00    +0.000 C 
ATOM      2  C   UNL     1       6.409   4.225  15.755  0.00  0.00    +0.000 A 
ATOM      3  N   UNL     1       7.616   4.538  16.381  0.00  0.00    +0.000 NA
ATOM      4  C   UNL     1       7.285   4.901  17.599  0.00  0.00    +0.000 A 
ATOM      5  C   UNL     1       8.266   5.338  18.632  0.00  0.00    +0.000 C 
ATOM      6  C   UNL     1       5.829   4.829  17.827  0.00  0.00    +0.000 A 
ATOM      7  C   UNL     1       4.946   5.054  18.811  0.00  0.00    +0.000 A 
ATOM      8  N   UNL     1       3.575   4.847  18.579  0.00  0.00    +0.000 N 
ATOM      9  N   UNL     1       3.046   4.436  17.344  0.00  0.00    +0.000 NA
ATOM     10  C   UNL     1       3.900   4.212  16.389  0.00  0.00    +0.000 A 
ATOM     11  C   UNL     1       5.343   4.382  16.554  0.00  0.00    +0.000 A 
ENDROOT
BRANCH   7  12
ATOM     12  O   UNL     1       5.301   5.495  20.066  0.00  0.00    +0.000 OA
ATOM     13  H   UNL     1       4.558   5.379  20.673  0.00  0.00    +0.000 HD
ENDBRANCH   7  12
BRANCH   8  14
ATOM     14  C   UNL     1       2.562   5.085  19.622  0.00  0.00    +0.000 C 
BRANCH  14  15
ATOM     15  C   UNL     1       2.140   6.540  19.703  0.00  0.00    +0.000 A 
ATOM     16  C   UNL     1       2.320   7.398  18.606  0.00  0.00    +0.000 A 
ATOM     17  C   UNL     1       1.858   8.716  18.653  0.00  0.00    +0.000 A 
ATOM     18  C   UNL     1       1.218   9.188  19.797  0.00  0.00    +0.000 A 
ATOM     19 CL   UNL     1       0.624  10.801  19.843  0.00  0.00    +0.000 Cl
ATOM     20  C   UNL     1       1.048   8.356  20.901  0.00  0.00    +0.000 A 
ATOM     21  C   UNL     1       1.508   7.037  20.853  0.00  0.00    +0.000 A 
ENDBRANCH  14  15
ENDBRANCH   8  14
TORSDOF 3
ENDMDL
MODEL 9
REMARK VINA RESULT:      -6.8      3.515      6.526
REMARK  Name = 
REMARK  5 active torsions:
REMARK  status: ('A' for Active; 'I' for Inactive)
REMARK    1  A    between atoms: C_1  and  C_2
REMARK    2  A    between atoms: C_4  and  C_5
REMARK    3  A    between atoms: C_7  and  O_8
REMARK    4  A    between atoms: N_9  and  C_10
REMARK    5  A    between atoms: C_10  and  C_11
REMARK                            x       y       z     vdW  Elec       q    Type
REMARK                         _______ _______ _______ _____ _____    ______ ____
ROOT
ATOM      1  C   UNL     1       2.264   4.540  21.220  0.00  0.00    +0.000 C 
ATOM      2  C   UNL     1       2.501   5.523  20.126  0.00  0.00    +0.000 A 
ATOM      3  N   UNL     1       3.324   5.189  19.051  0.00  0.00    +0.000 NA
ATOM      4  C   UNL     1       3.321   6.249  18.276  0.00  0.00    +0.000 A 
ATOM      5  C   UNL     1       4.065   6.342  16.988  0.00  0.00    +0.000 C 
ATOM      6  C   UNL     1       2.492   7.340  18.826  0.00  0.00    +0.000 A 
ATOM      7  C   UNL     1       2.128   8.592  18.512  0.00  0.00    +0.000 A 
ATOM      8  N   UNL     1       1.273   9.305  19.370  0.00  0.00    +0.000 N 
ATOM      9  N   UNL     1       0.735   8.775  20.554  0.00  0.00    +0.000 NA
ATOM     10  C   UNL     1       1.091   7.562  20.864  0.00  0.00    +0.000 A 
ATOM     11  C   UNL     1       1.992   6.760  20.039  0.00  0.00    +0.000 A 
ENDROOT
BRANCH   7  12
ATOM     12  O   UNL     1       2.539   9.240  17.370  0.00  0.00    +0.000 OA
ATOM     13  H   UNL     1       2.312  10.178  17.428  0.00  0.00    +0.000 HD
ENDBRANCH   7  12
BRANCH   8  14
ATOM     14  C   UNL     1       0.837  10.680  19.070  0.00  0.00    +0.000 C 
BRANCH  14  15
ATOM     15  C   UNL     1      -0.621  10.751  18.658  0.00  0.00    +0.000 A 
ATOM     16  C   UNL     1      -1.494  11.664  19.271  0.00  0.00    +0.000 A 
ATOM     17  C   UNL     1      -2.816  11.786  18.836  0.00  0.00    +0.000 A 
ATOM     18  C   UNL     1      -3.277  10.992  17.788  0.00  0.00    +0.000 A 
ATOM     19 CL   UNL     1      -4.897  11.163  17.233  0.00  0.00    +0.000 Cl
ATOM     20  C   UNL     1      -2.431  10.068  17.180  0.00  0.00    +0.000 A 
ATOM     21  C   UNL     1      -1.109   9.948  17.615  0.00  0.00    +0.000 A 
ENDBRANCH  14  15
ENDBRANCH   8  14
TORSDOF 3
ENDMDL
