MODEL 1
REMARK VINA RESULT:      -8.0      0.000      0.000
REMARK  Name = 
REMARK  3 active torsions:
REMARK  status: ('A' for Active; 'I' for Inactive)
REMARK    1  A    between atoms: N_3  and  C_4
REMARK    2  A    between atoms: C_4  and  C_5
REMARK    3  A    between atoms: C_9  and  C_10
REMARK                            x       y       z     vdW  Elec       q    Type
REMARK                         _______ _______ _______ _____ _____    ______ ____
ROOT
ATOM      1  C   UNL     1       6.287   5.037  18.030  0.00  0.00    +0.000 C 
ENDROOT
BRANCH   1   4
ATOM      2  O   UNL     1       4.878   3.205  16.101  0.00  0.00    +0.000 OA
ATOM      3  C   UNL     1       5.760   3.984  15.774  0.00  0.00    +0.000 A 
ATOM      4  N   UNL     1       6.467   4.866  16.605  0.00  0.00    +0.000 N 
ATOM      5  N   UNL     1       7.386   5.598  15.866  0.00  0.00    +0.000 NA
ATOM      6  C   UNL     1       7.231   5.143  14.657  0.00  0.00    +0.000 A 
ATOM      7  N   UNL     1       7.959   5.576  13.584  0.00  0.00    +0.000 NA
ATOM      8  C   UNL     1       7.703   4.987  12.459  0.00  0.00    +0.000 A 
ATOM      9  C   UNL     1       6.709   3.901  12.252  0.00  0.00    +0.000 A 
ATOM     10  C   UNL     1       6.022   3.545  13.345  0.00  0.00    +0.000 A 
ATOM     11  N   UNL     1       6.294   4.175  14.523  0.00  0.00    +0.000 N 
ENDBRANCH   1   4
BRANCH   1  12
ATOM     12  C   UNL     1       4.996   5.754  18.343  0.00  0.00    +0.000 A 
ATOM     13  C   UNL     1       4.616   6.883  17.607  0.00  0.00    +0.000 A 
ATOM     14  C   UNL     1       3.358   7.457  17.789  0.00  0.00    +0.000 A 
ATOM     15  C   UNL     1       2.468   6.910  18.711  0.00  0.00    +0.000 A 
ATOM     16  C   UNL     1       2.838   5.802  19.488  0.00  0.00    +0.000 A 
ATOM     17  C   UNL     1       4.111   5.239  19.305  0.00  0.00    +0.000 A 
BRANCH  16  18
ATOM     18  C   UNL     1       1.878   5.194  20.481  0.00  0.00    +0.000 C 
ATOM     19  F   UNL     1       1.196   4.120  19.988  0.00  0.00    +0.000 F 
ATOM     20  F   UNL     1       2.503   4.747  21.606  0.00  0.00    +0.000 F 
ATOM     21  F   UNL     1       0.929   6.074  20.903  0.00  0.00    +0.000 F 
ENDBRANCH  16  18
ENDBRANCH   1  12
TORSDOF 3
ENDMDL
MODEL 2
REMARK VINA RESULT:      -7.8      0.658      1.144
REMARK  Name = 
REMARK  3 active torsions:
REMARK  status: ('A' for Active; 'I' for Inactive)
REMARK    1  A    between atoms: N_3  and  C_4
REMARK    2  A    between atoms: C_4  and  C_5
REMARK    3  A    between atoms: C_9  and  C_10
REMARK                            x       y       z     vdW  Elec       q    Type
REMARK                         _______ _______ _______ _____ _____    ______ ____
ROOT
ATOM      1  C   UNL     1       6.312   4.812  18.251  0.00  0.00    +0.000 C 
ENDROOT
BRANCH   1   4
ATOM      2  O   UNL     1       4.832   3.133  16.239  0.00  0.00    +0.000 OA
ATOM      3  C   UNL     1       5.737   3.899  15.947  0.00  0.00    +0.000 A 
ATOM      4  N   UNL     1       6.478   4.712  16.818  0.00  0.00    +0.000 N 
ATOM      5  N   UNL     1       7.417   5.451  16.112  0.00  0.00    +0.000 NA
ATOM      6  C   UNL     1       7.240   5.067  14.882  0.00  0.00    +0.000 A 
ATOM      7  N   UNL     1       7.976   5.532  13.828  0.00  0.00    +0.000 NA
ATOM      8  C   UNL     1       7.694   5.014  12.676  0.00  0.00    +0.000 A 
ATOM      9  C   UNL     1       6.662   3.973  12.419  0.00  0.00    +0.000 A 
ATOM     10  C   UNL     1       5.971   3.583  13.496  0.00  0.00    +0.000 A 
ATOM     11  N   UNL     1       6.271   4.139  14.704  0.00  0.00    +0.000 N 
ENDBRANCH   1   4
BRANCH   1  12
ATOM     12  C   UNL     1       4.935   5.313  18.617  0.00  0.00    +0.000 A 
ATOM     13  C   UNL     1       4.425   6.477  18.025  0.00  0.00    +0.000 A 
ATOM     14  C   UNL     1       3.102   6.859  18.242  0.00  0.00    +0.000 A 
ATOM     15  C   UNL     1       2.276   6.085  19.054  0.00  0.00    +0.000 A 
ATOM     16  C   UNL     1       2.772   4.937  19.688  0.00  0.00    +0.000 A 
ATOM     17  C   UNL     1       4.110   4.567  19.473  0.00  0.00    +0.000 A 
BRANCH  16  18
ATOM     18  C   UNL     1       1.884   4.084  20.560  0.00  0.00    +0.000 C 
ATOM     19  F   UNL     1       2.172   4.181  21.889  0.00  0.00    +0.000 F 
ATOM     20  F   UNL     1       0.567   4.414  20.444  0.00  0.00    +0.000 F 
ATOM     21  F   UNL     1       1.965   2.759  20.257  0.00  0.00    +0.000 F 
ENDBRANCH  16  18
ENDBRANCH   1  12
TORSDOF 3
ENDMDL
MODEL 3
REMARK VINA RESULT:      -7.8      1.885      2.407
REMARK  Name = 
REMARK  3 active torsions:
REMARK  status: ('A' for Active; 'I' for Inactive)
REMARK    1  A    between atoms: N_3  and  C_4
REMARK    2  A    between atoms: C_4  and  C_5
REMARK    3  A    between atoms: C_9  and  C_10
REMARK                            x       y       z     vdW  Elec       q    Type
REMARK                         _______ _______ _______ _____ _____    ______ ____
ROOT
ATOM      1  C   UNL     1       5.938   4.544  17.958  0.00  0.00    +0.000 C 
ENDROOT
BRANCH   1   4
ATOM      2  O   UNL     1       7.766   6.293  16.327  0.00  0.00    +0.000 OA
ATOM      3  C   UNL     1       7.123   5.365  15.862  0.00  0.00    +0.000 A 
ATOM      4  N   UNL     1       6.251   4.506  16.547  0.00  0.00    +0.000 N 
ATOM      5  N   UNL     1       5.713   3.566  15.678  0.00  0.00    +0.000 NA
ATOM      6  C   UNL     1       6.239   3.881  14.530  0.00  0.00    +0.000 A 
ATOM      7  N   UNL     1       5.970   3.219  13.365  0.00  0.00    +0.000 NA
ATOM      8  C   UNL     1       6.549   3.689  12.307  0.00  0.00    +0.000 A 
ATOM      9  C   UNL     1       7.456   4.867  12.263  0.00  0.00    +0.000 A 
ATOM     10  C   UNL     1       7.686   5.450  13.445  0.00  0.00    +0.000 A 
ATOM     11  N   UNL     1       7.076   4.944  14.554  0.00  0.00    +0.000 N 
ENDBRANCH   1   4
BRANCH   1  12
ATOM     12  C   UNL     1       4.451   4.671  18.193  0.00  0.00    +0.000 A 
ATOM     13  C   UNL     1       3.775   5.843  17.828  0.00  0.00    +0.000 A 
ATOM     14  C   UNL     1       2.384   5.909  17.901  0.00  0.00    +0.000 A 
ATOM     15  C   UNL     1       1.655   4.806  18.343  0.00  0.00    +0.000 A 
ATOM     16  C   UNL     1       2.310   3.635  18.749  0.00  0.00    +0.000 A 
ATOM     17  C   UNL     1       3.712   3.583  18.682  0.00  0.00    +0.000 A 
BRANCH  16  18
ATOM     18  C   UNL     1       1.531   2.430  19.216  0.00  0.00    +0.000 C 
ATOM     19  F   UNL     1       0.344   2.265  18.564  0.00  0.00    +0.000 F 
ATOM     20  F   UNL     1       2.214   1.265  19.038  0.00  0.00    +0.000 F 
ATOM     21  F   UNL     1       1.222   2.485  20.541  0.00  0.00    +0.000 F 
ENDBRANCH  16  18
ENDBRANCH   1  12
TORSDOF 3
ENDMDL
MODEL 4
REMARK VINA RESULT:      -7.5      2.904      4.016
REMARK  Name = 
REMARK  3 active torsions:
REMARK  status: ('A' for Active; 'I' for Inactive)
REMARK    1  A    between atoms: N_3  and  C_4
REMARK    2  A    between atoms: C_4  and  C_5
REMARK    3  A    between atoms: C_9  and  C_10
REMARK                            x       y       z     vdW  Elec       q    Type
REMARK                         _______ _______ _______ _____ _____    ______ ____
ROOT
ATOM      1  C   UNL     1       4.603   3.429  17.170  0.00  0.00    +0.000 C 
ENDROOT
BRANCH   1   4
ATOM      2  O   UNL     1       4.858   6.110  15.825  0.00  0.00    +0.000 OA
ATOM      3  C   UNL     1       5.538   5.763  16.778  0.00  0.00    +0.000 A 
ATOM      4  N   UNL     1       5.487   4.537  17.459  0.00  0.00    +0.000 N 
ATOM      5  N   UNL     1       6.410   4.518  18.495  0.00  0.00    +0.000 NA
ATOM      6  C   UNL     1       6.988   5.680  18.405  0.00  0.00    +0.000 A 
ATOM      7  N   UNL     1       7.995   6.093  19.233  0.00  0.00    +0.000 NA
ATOM      8  C   UNL     1       8.484   7.264  18.978  0.00  0.00    +0.000 A 
ATOM      9  C   UNL     1       8.050   8.168  17.880  0.00  0.00    +0.000 A 
ATOM     10  C   UNL     1       7.048   7.703  17.125  0.00  0.00    +0.000 A 
ATOM     11  N   UNL     1       6.535   6.471  17.404  0.00  0.00    +0.000 N 
ENDBRANCH   1   4
BRANCH   1  12
ATOM     12  C   UNL     1       3.332   3.508  17.982  0.00  0.00    +0.000 A 
ATOM     13  C   UNL     1       2.093   3.659  17.345  0.00  0.00    +0.000 A 
ATOM     14  C   UNL     1       0.908   3.580  18.074  0.00  0.00    +0.000 A 
ATOM     15  C   UNL     1       0.948   3.352  19.449  0.00  0.00    +0.000 A 
ATOM     16  C   UNL     1       2.176   3.235  20.117  0.00  0.00    +0.000 A 
ATOM     17  C   UNL     1       3.364   3.328  19.374  0.00  0.00    +0.000 A 
BRANCH  16  18
ATOM     18  C   UNL     1       2.231   2.976  21.602  0.00  0.00    +0.000 C 
ATOM     19  F   UNL     1       2.455   4.099  22.342  0.00  0.00    +0.000 F 
ATOM     20  F   UNL     1       1.072   2.443  22.083  0.00  0.00    +0.000 F 
ATOM     21  F   UNL     1       3.217   2.102  21.947  0.00  0.00    +0.000 F 
ENDBRANCH  16  18
ENDBRANCH   1  12
TORSDOF 3
ENDMDL
MODEL 5
REMARK VINA RESULT:      -7.5      1.197      1.830
REMARK  Name = 
REMARK  3 active torsions:
REMARK  status: ('A' for Active; 'I' for Inactive)
REMARK    1  A    between atoms: N_3  and  C_4
REMARK    2  A    between atoms: C_4  and  C_5
REMARK    3  A    between atoms: C_9  and  C_10
REMARK                            x       y       z     vdW  Elec       q    Type
REMARK                         _______ _______ _______ _____ _____    ______ ____
ROOT
ATOM      1  C   UNL     1       6.013   4.511  17.956  0.00  0.00    +0.000 C 
ENDROOT
BRANCH   1   4
ATOM      2  O   UNL     1       7.840   6.242  16.304  0.00  0.00    +0.000 OA
ATOM      3  C   UNL     1       7.173   5.328  15.845  0.00  0.00    +0.000 A 
ATOM      4  N   UNL     1       6.299   4.478  16.539  0.00  0.00    +0.000 N 
ATOM      5  N   UNL     1       5.730   3.555  15.674  0.00  0.00    +0.000 NA
ATOM      6  C   UNL     1       6.240   3.869  14.519  0.00  0.00    +0.000 A 
ATOM      7  N   UNL     1       5.938   3.220  13.354  0.00  0.00    +0.000 NA
ATOM      8  C   UNL     1       6.506   3.689  12.289  0.00  0.00    +0.000 A 
ATOM      9  C   UNL     1       7.431   4.852  12.236  0.00  0.00    +0.000 A 
ATOM     10  C   UNL     1       7.693   5.423  13.419  0.00  0.00    +0.000 A 
ATOM     11  N   UNL     1       7.095   4.918  14.535  0.00  0.00    +0.000 N 
ENDBRANCH   1   4
BRANCH   1  12
ATOM     12  C   UNL     1       4.837   5.408  18.264  0.00  0.00    +0.000 A 
ATOM     13  C   UNL     1       4.563   6.518  17.453  0.00  0.00    +0.000 A 
ATOM     14  C   UNL     1       3.396   7.259  17.640  0.00  0.00    +0.000 A 
ATOM     15  C   UNL     1       2.494   6.902  18.641  0.00  0.00    +0.000 A 
ATOM     16  C   UNL     1       2.764   5.818  19.489  0.00  0.00    +0.000 A 
ATOM     17  C   UNL     1       3.947   5.085  19.300  0.00  0.00    +0.000 A 
BRANCH  16  18
ATOM     18  C   UNL     1       1.789   5.414  20.567  0.00  0.00    +0.000 C 
ATOM     19  F   UNL     1       1.102   6.465  21.101  0.00  0.00    +0.000 F 
ATOM     20  F   UNL     1       0.840   4.547  20.115  0.00  0.00    +0.000 F 
ATOM     21  F   UNL     1       2.393   4.793  21.618  0.00  0.00    +0.000 F 
ENDBRANCH  16  18
ENDBRANCH   1  12
TORSDOF 3
ENDMDL
MODEL 6
REMARK VINA RESULT:      -7.3      2.556      4.013
REMARK  Name = 
REMARK  3 active torsions:
REMARK  status: ('A' for Active; 'I' for Inactive)
REMARK    1  A    between atoms: N_3  and  C_4
REMARK    2  A    between atoms: C_4  and  C_5
REMARK    3  A    between atoms: C_9  and  C_10
REMARK                            x       y       z     vdW  Elec       q    Type
REMARK                         _______ _______ _______ _____ _____    ______ ____
ROOT
ATOM      1  C   UNL     1       4.627   3.987  16.362  0.00  0.00    +0.000 C 
ENDROOT
BRANCH   1   4
ATOM      2  O   UNL     1       5.068   6.839  15.507  0.00  0.00    +0.000 OA
ATOM      3  C   UNL     1       5.668   6.307  16.428  0.00  0.00    +0.000 A 
ATOM      4  N   UNL     1       5.526   4.989  16.888  0.00  0.00    +0.000 N 
ATOM      5  N   UNL     1       6.373   4.756  17.962  0.00  0.00    +0.000 NA
ATOM      6  C   UNL     1       6.996   5.890  18.107  0.00  0.00    +0.000 A 
ATOM      7  N   UNL     1       7.956   6.112  19.054  0.00  0.00    +0.000 NA
ATOM      8  C   UNL     1       8.503   7.286  19.033  0.00  0.00    +0.000 A 
ATOM      9  C   UNL     1       8.179   8.379  18.077  0.00  0.00    +0.000 A 
ATOM     10  C   UNL     1       7.216   8.091  17.192  0.00  0.00    +0.000 A 
ATOM     11  N   UNL     1       6.643   6.855  17.227  0.00  0.00    +0.000 N 
ENDBRANCH   1   4
BRANCH   1  12
ATOM     12  C   UNL     1       3.678   3.481  17.422  0.00  0.00    +0.000 A 
ATOM     13  C   UNL     1       3.466   2.106  17.585  0.00  0.00    +0.000 A 
ATOM     14  C   UNL     1       2.712   1.628  18.657  0.00  0.00    +0.000 A 
ATOM     15  C   UNL     1       2.160   2.520  19.575  0.00  0.00    +0.000 A 
ATOM     16  C   UNL     1       2.326   3.903  19.413  0.00  0.00    +0.000 A 
ATOM     17  C   UNL     1       3.077   4.374  18.324  0.00  0.00    +0.000 A 
BRANCH  16  18
ATOM     18  C   UNL     1       1.744   4.877  20.407  0.00  0.00    +0.000 C 
ATOM     19  F   UNL     1       2.311   4.794  21.645  0.00  0.00    +0.000 F 
ATOM     20  F   UNL     1       1.897   6.174  20.019  0.00  0.00    +0.000 F 
ATOM     21  F   UNL     1       0.408   4.698  20.599  0.00  0.00    +0.000 F 
ENDBRANCH  16  18
ENDBRANCH   1  12
TORSDOF 3
ENDMDL
MODEL 7
REMARK VINA RESULT:      -7.3      4.255      6.879
REMARK  Name = 
REMARK  3 active torsions:
REMARK  status: ('A' for Active; 'I' for Inactive)
REMARK    1  A    between atoms: N_3  and  C_4
REMARK    2  A    between atoms: C_4  and  C_5
REMARK    3  A    between atoms: C_9  and  C_10
REMARK                            x       y       z     vdW  Elec       q    Type
REMARK                         _______ _______ _______ _____ _____    ______ ____
ROOT
ATOM      1  C   UNL     1       3.961   6.685  17.172  0.00  0.00    +0.000 C 
ENDROOT
BRANCH   1   4
ATOM      2  O   UNL     1       2.526   7.028  19.796  0.00  0.00    +0.000 OA
ATOM      3  C   UNL     1       2.564   5.976  19.177  0.00  0.00    +0.000 A 
ATOM      4  N   UNL     1       3.209   5.730  17.955  0.00  0.00    +0.000 N 
ATOM      5  N   UNL     1       3.020   4.413  17.562  0.00  0.00    +0.000 NA
ATOM      6  C   UNL     1       2.309   3.909  18.529  0.00  0.00    +0.000 A 
ATOM      7  N   UNL     1       1.898   2.606  18.569  0.00  0.00    +0.000 NA
ATOM      8  C   UNL     1       1.231   2.262  19.624  0.00  0.00    +0.000 A 
ATOM      9  C   UNL     1       0.892   3.150  20.768  0.00  0.00    +0.000 A 
ATOM     10  C   UNL     1       1.313   4.415  20.647  0.00  0.00    +0.000 A 
ATOM     11  N   UNL     1       2.009   4.770  19.529  0.00  0.00    +0.000 N 
ENDBRANCH   1   4
BRANCH   1  12
ATOM     12  C   UNL     1       5.189   6.055  16.559  0.00  0.00    +0.000 A 
ATOM     13  C   UNL     1       6.370   5.936  17.304  0.00  0.00    +0.000 A 
ATOM     14  C   UNL     1       7.456   5.221  16.800  0.00  0.00    +0.000 A 
ATOM     15  C   UNL     1       7.375   4.622  15.544  0.00  0.00    +0.000 A 
ATOM     16  C   UNL     1       6.218   4.758  14.762  0.00  0.00    +0.000 A 
ATOM     17  C   UNL     1       5.135   5.490  15.275  0.00  0.00    +0.000 A 
BRANCH  16  18
ATOM     18  C   UNL     1       6.114   4.103  13.407  0.00  0.00    +0.000 C 
ATOM     19  F   UNL     1       6.942   4.653  12.473  0.00  0.00    +0.000 F 
ATOM     20  F   UNL     1       6.428   2.777  13.442  0.00  0.00    +0.000 F 
ATOM     21  F   UNL     1       4.860   4.178  12.882  0.00  0.00    +0.000 F 
ENDBRANCH  16  18
ENDBRANCH   1  12
TORSDOF 3
ENDMDL
MODEL 8
REMARK VINA RESULT:      -7.3      4.200      6.894
REMARK  Name = 
REMARK  3 active torsions:
REMARK  status: ('A' for Active; 'I' for Inactive)
REMARK    1  A    between atoms: N_3  and  C_4
REMARK    2  A    between atoms: C_4  and  C_5
REMARK    3  A    between atoms: C_9  and  C_10
REMARK                            x       y       z     vdW  Elec       q    Type
REMARK                         _______ _______ _______ _____ _____    ______ ____
ROOT
ATOM      1  C   UNL     1       3.848   6.339  17.360  0.00  0.00    +0.000 C 
ENDROOT
BRANCH   1   4
ATOM      2  O   UNL     1       2.186   3.869  16.912  0.00  0.00    +0.000 OA
ATOM      3  C   UNL     1       2.489   4.291  18.017  0.00  0.00    +0.000 A 
ATOM      4  N   UNL     1       3.254   5.429  18.314  0.00  0.00    +0.000 N 
ATOM      5  N   UNL     1       3.392   5.577  19.687  0.00  0.00    +0.000 NA
ATOM      6  C   UNL     1       2.717   4.573  20.168  0.00  0.00    +0.000 A 
ATOM      7  N   UNL     1       2.566   4.332  21.505  0.00  0.00    +0.000 NA
ATOM      8  C   UNL     1       1.829   3.312  21.810  0.00  0.00    +0.000 A 
ATOM      9  C   UNL     1       1.148   2.411  20.842  0.00  0.00    +0.000 A 
ATOM     10  C   UNL     1       1.359   2.700  19.552  0.00  0.00    +0.000 A 
ATOM     11  N   UNL     1       2.142   3.772  19.241  0.00  0.00    +0.000 N 
ENDBRANCH   1   4
BRANCH   1  12
ATOM     12  C   UNL     1       5.100   5.758  16.746  0.00  0.00    +0.000 A 
ATOM     13  C   UNL     1       6.254   5.585  17.522  0.00  0.00    +0.000 A 
ATOM     14  C   UNL     1       7.361   4.912  17.004  0.00  0.00    +0.000 A 
ATOM     15  C   UNL     1       7.326   4.408  15.705  0.00  0.00    +0.000 A 
ATOM     16  C   UNL     1       6.198   4.602  14.895  0.00  0.00    +0.000 A 
ATOM     17  C   UNL     1       5.094   5.291  15.422  0.00  0.00    +0.000 A 
BRANCH  16  18
ATOM     18  C   UNL     1       6.144   4.050  13.492  0.00  0.00    +0.000 C 
ATOM     19  F   UNL     1       6.995   4.675  12.629  0.00  0.00    +0.000 F 
ATOM     20  F   UNL     1       6.472   2.728  13.438  0.00  0.00    +0.000 F 
ATOM     21  F   UNL     1       4.907   4.152  12.933  0.00  0.00    +0.000 F 
ENDBRANCH  16  18
ENDBRANCH   1  12
TORSDOF 3
ENDMDL
MODEL 9
REMARK VINA RESULT:      -7.3      2.565      3.769
REMARK  Name = 
REMARK  3 active torsions:
REMARK  status: ('A' for Active; 'I' for Inactive)
REMARK    1  A    between atoms: N_3  and  C_4
REMARK    2  A    between atoms: C_4  and  C_5
REMARK    3  A    between atoms: C_9  and  C_10
REMARK                            x       y       z     vdW  Elec       q    Type
REMARK                         _______ _______ _______ _____ _____    ______ ____
ROOT
ATOM      1  C   UNL     1       3.006   5.372  19.694  0.00  0.00    +0.000 C 
ENDROOT
BRANCH   1   4
ATOM      2  O   UNL     1       6.013   5.505  19.732  0.00  0.00    +0.000 OA
ATOM      3  C   UNL     1       5.362   5.183  18.751  0.00  0.00    +0.000 A 
ATOM      4  N   UNL     1       3.965   5.098  18.647  0.00  0.00    +0.000 N 
ATOM      5  N   UNL     1       3.597   4.687  17.373  0.00  0.00    +0.000 NA
ATOM      6  C   UNL     1       4.736   4.557  16.758  0.00  0.00    +0.000 A 
ATOM      7  N   UNL     1       4.853   4.180  15.449  0.00  0.00    +0.000 NA
ATOM      8  C   UNL     1       6.060   4.140  14.983  0.00  0.00    +0.000 A 
ATOM      9  C   UNL     1       7.297   4.470  15.741  0.00  0.00    +0.000 A 
ATOM     10  C   UNL     1       7.103   4.812  17.021  0.00  0.00    +0.000 A 
ATOM     11  N   UNL     1       5.828   4.846  17.504  0.00  0.00    +0.000 N 
ENDBRANCH   1   4
BRANCH   1  12
ATOM     12  C   UNL     1       2.467   6.779  19.597  0.00  0.00    +0.000 A 
ATOM     13  C   UNL     1       2.586   7.502  18.402  0.00  0.00    +0.000 A 
ATOM     14  C   UNL     1       1.959   8.739  18.258  0.00  0.00    +0.000 A 
ATOM     15  C   UNL     1       1.209   9.269  19.307  0.00  0.00    +0.000 A 
ATOM     16  C   UNL     1       1.106   8.583  20.526  0.00  0.00    +0.000 A 
ATOM     17  C   UNL     1       1.750   7.343  20.665  0.00  0.00    +0.000 A 
BRANCH  16  18
ATOM     18  C   UNL     1       0.286   9.139  21.664  0.00  0.00    +0.000 C 
ATOM     19  F   UNL     1       1.001   9.316  22.812  0.00  0.00    +0.000 F 
ATOM     20  F   UNL     1      -0.251  10.358  21.374  0.00  0.00    +0.000 F 
ATOM     21  F   UNL     1      -0.762   8.338  21.999  0.00  0.00    +0.000 F 
ENDBRANCH  16  18
ENDBRANCH   1  12
TORSDOF 3
ENDMDL
