MODEL 1
REMARK VINA RESULT:      -6.8      0.000      0.000
REMARK  Name = 
REMARK  9 active torsions:
REMARK  status: ('A' for Active; 'I' for Inactive)
REMARK    1  A    between atoms: C_1  and  C_2
REMARK    2  A    between atoms: C_2  and  C_3
REMARK    3  A    between atoms: C_3  and  N_4
REMARK    4  A    between atoms: C_8  and  C_9
REMARK    5  A    between atoms: C_11  and  C_12
REMARK    6  A    between atoms: C_15  and  C_16
REMARK    7  A    between atoms: C_17  and  C_18
REMARK    8  A    between atoms: C_27  and  C_28
REMARK    9  A    between atoms: C_28  and  O_29
REMARK                            x       y       z     vdW  Elec       q    Type
REMARK                         _______ _______ _______ _____ _____    ______ ____
ROOT
ATOM      1  N   UNL     1      -1.278  16.372  19.337  0.00  0.00    +0.000 N 
ATOM      2  C   UNL     1      -0.494  15.880  20.345  0.00  0.00    +0.000 C 
ATOM      3  O   UNL     1       0.119  16.599  21.128  0.00  0.00    +0.000 OA
ATOM      4  N   UNL     1      -0.413  14.526  20.418  0.00  0.00    +0.000 N 
ATOM      5  C   UNL     1       0.296  13.741  21.429  0.00  0.00    +0.000 C 
ATOM      6  C   UNL     1      -0.496  12.516  20.904  0.00  0.00    +0.000 C 
ATOM      7  C   UNL     1      -0.970  13.389  19.702  0.00  0.00    +0.000 C 
ATOM      8  H   UNL     1      -2.040  15.776  19.040  0.00  0.00    +0.000 HD
ENDROOT
BRANCH   6   9
ATOM      9  C   UNL     1       0.209  11.079  20.716  0.00  0.00    +0.000 A 
ATOM     10  C   UNL     1       0.673  10.673  19.444  0.00  0.00    +0.000 A 
ATOM     11  C   UNL     1       1.226   9.407  19.210  0.00  0.00    +0.000 A 
ATOM     12  C   UNL     1       1.345   8.492  20.250  0.00  0.00    +0.000 A 
ATOM     13  C   UNL     1       0.939   8.863  21.526  0.00  0.00    +0.000 A 
ATOM     14  C   UNL     1       0.377  10.130  21.747  0.00  0.00    +0.000 A 
BRANCH  12  15
ATOM     15  C   UNL     1       1.819   7.169  19.986  0.00  0.00    +0.000 C 
ATOM     16  C   UNL     1       2.217   6.076  19.683  0.00  0.00    +0.000 C 
BRANCH  16  17
ATOM     17  C   UNL     1       2.662   4.786  19.252  0.00  0.00    +0.000 A 
ATOM     18  C   UNL     1       1.856   4.011  18.410  0.00  0.00    +0.000 A 
ATOM     19  C   UNL     1       2.267   2.730  18.032  0.00  0.00    +0.000 A 
ATOM     20  C   UNL     1       3.482   2.237  18.498  0.00  0.00    +0.000 A 
ATOM     21  F   UNL     1       3.868   1.002  18.151  0.00  0.00    +0.000 F 
ATOM     22  C   UNL     1       4.298   3.002  19.323  0.00  0.00    +0.000 A 
ATOM     23  C   UNL     1       3.888   4.284  19.702  0.00  0.00    +0.000 A 
ENDBRANCH  16  17
ENDBRANCH  12  15
ENDBRANCH   6   9
BRANCH   5  24
ATOM     24  C   UNL     1       1.734  13.766  21.243  0.00  0.00    +0.000 C 
ATOM     25  N   UNL     1       2.888  13.763  21.122  0.00  0.00    +0.000 NA
ENDBRANCH   5  24
BRANCH   1  26
ATOM     26  C   UNL     1      -1.454  17.810  19.223  0.00  0.00    +0.000 C 
BRANCH  26  28
ATOM     27  C   UNL     1      -3.816  17.249  19.986  0.00  0.00    +0.000 C 
ATOM     28  C   UNL     1      -2.910  18.259  19.301  0.00  0.00    +0.000 C 
ENDBRANCH  26  28
ENDBRANCH   1  26
BRANCH   7  29
ATOM     29  C   UNL     1      -0.353  13.196  18.324  0.00  0.00    +0.000 C 
BRANCH  29  30
ATOM     30  O   UNL     1      -1.336  12.696  17.424  0.00  0.00    +0.000 OA
ATOM     31  H   UNL     1      -2.204  12.971  17.776  0.00  0.00    +0.000 HD
ENDBRANCH  29  30
ENDBRANCH   7  29
TORSDOF 8
ENDMDL
MODEL 2
REMARK VINA RESULT:      -6.8      2.589      3.055
REMARK  Name = 
REMARK  9 active torsions:
REMARK  status: ('A' for Active; 'I' for Inactive)
REMARK    1  A    between atoms: C_1  and  C_2
REMARK    2  A    between atoms: C_2  and  C_3
REMARK    3  A    between atoms: C_3  and  N_4
REMARK    4  A    between atoms: C_8  and  C_9
REMARK    5  A    between atoms: C_11  and  C_12
REMARK    6  A    between atoms: C_15  and  C_16
REMARK    7  A    between atoms: C_17  and  C_18
REMARK    8  A    between atoms: C_27  and  C_28
REMARK    9  A    between atoms: C_28  and  O_29
REMARK                            x       y       z     vdW  Elec       q    Type
REMARK                         _______ _______ _______ _____ _____    ______ ____
ROOT
ATOM      1  N   UNL     1      -4.198  14.799  20.544  0.00  0.00    +0.000 N 
ATOM      2  C   UNL     1      -2.860  14.773  20.833  0.00  0.00    +0.000 C 
ATOM      3  O   UNL     1      -2.237  15.764  21.201  0.00  0.00    +0.000 OA
ATOM      4  N   UNL     1      -2.246  13.574  20.665  0.00  0.00    +0.000 N 
ATOM      5  C   UNL     1      -0.850  13.252  20.961  0.00  0.00    +0.000 C 
ATOM      6  C   UNL     1      -1.261  11.762  20.836  0.00  0.00    +0.000 C 
ATOM      7  C   UNL     1      -2.633  12.230  20.262  0.00  0.00    +0.000 C 
ATOM      8  H   UNL     1      -4.693  13.925  20.668  0.00  0.00    +0.000 HD
ENDROOT
BRANCH   6   9
ATOM      9  C   UNL     1      -0.318  10.692  20.085  0.00  0.00    +0.000 A 
ATOM     10  C   UNL     1       0.394   9.723  20.829  0.00  0.00    +0.000 A 
ATOM     11  C   UNL     1       1.283   8.818  20.234  0.00  0.00    +0.000 A 
ATOM     12  C   UNL     1       1.491   8.842  18.860  0.00  0.00    +0.000 A 
ATOM     13  C   UNL     1       0.783   9.751  18.085  0.00  0.00    +0.000 A 
ATOM     14  C   UNL     1      -0.098  10.660  18.691  0.00  0.00    +0.000 A 
BRANCH  12  15
ATOM     15  C   UNL     1       2.472   7.983  18.272  0.00  0.00    +0.000 C 
ATOM     16  C   UNL     1       3.243   7.198  17.788  0.00  0.00    +0.000 C 
BRANCH  16  17
ATOM     17  C   UNL     1       4.125   6.207  17.249  0.00  0.00    +0.000 A 
ATOM     18  C   UNL     1       5.307   6.594  16.608  0.00  0.00    +0.000 A 
ATOM     19  C   UNL     1       6.140   5.630  16.035  0.00  0.00    +0.000 A 
ATOM     20  C   UNL     1       5.784   4.286  16.112  0.00  0.00    +0.000 A 
ATOM     21  F   UNL     1       6.573   3.363  15.546  0.00  0.00    +0.000 F 
ATOM     22  C   UNL     1       4.620   3.888  16.758  0.00  0.00    +0.000 A 
ATOM     23  C   UNL     1       3.786   4.853  17.331  0.00  0.00    +0.000 A 
ENDBRANCH  16  17
ENDBRANCH  12  15
ENDBRANCH   6   9
BRANCH   5  24
ATOM     24  C   UNL     1       0.066  13.801  19.980  0.00  0.00    +0.000 C 
ATOM     25  N   UNL     1       0.787  14.273  19.203  0.00  0.00    +0.000 NA
ENDBRANCH   5  24
BRANCH   1  26
ATOM     26  C   UNL     1      -4.936  16.034  20.746  0.00  0.00    +0.000 C 
BRANCH  26  28
ATOM     27  C   UNL     1      -6.093  15.117  22.818  0.00  0.00    +0.000 C 
ATOM     28  C   UNL     1      -6.252  15.849  21.495  0.00  0.00    +0.000 C 
ENDBRANCH  26  28
ENDBRANCH   1  26
BRANCH   7  29
ATOM     29  C   UNL     1      -2.918  12.119  18.771  0.00  0.00    +0.000 C 
BRANCH  29  30
ATOM     30  O   UNL     1      -4.300  12.361  18.528  0.00  0.00    +0.000 OA
ATOM     31  H   UNL     1      -4.749  12.315  19.394  0.00  0.00    +0.000 HD
ENDBRANCH  29  30
ENDBRANCH   7  29
TORSDOF 8
ENDMDL
MODEL 3
REMARK VINA RESULT:      -6.8      2.614      2.999
REMARK  Name = 
REMARK  9 active torsions:
REMARK  status: ('A' for Active; 'I' for Inactive)
REMARK    1  A    between atoms: C_1  and  C_2
REMARK    2  A    between atoms: C_2  and  C_3
REMARK    3  A    between atoms: C_3  and  N_4
REMARK    4  A    between atoms: C_8  and  C_9
REMARK    5  A    between atoms: C_11  and  C_12
REMARK    6  A    between atoms: C_15  and  C_16
REMARK    7  A    between atoms: C_17  and  C_18
REMARK    8  A    between atoms: C_27  and  C_28
REMARK    9  A    between atoms: C_28  and  O_29
REMARK                            x       y       z     vdW  Elec       q    Type
REMARK                         _______ _______ _______ _____ _____    ______ ____
ROOT
ATOM      1  N   UNL     1      -3.480  14.945  22.071  0.00  0.00    +0.000 N 
ATOM      2  C   UNL     1      -2.143  14.743  22.283  0.00  0.00    +0.000 C 
ATOM      3  O   UNL     1      -1.405  15.598  22.764  0.00  0.00    +0.000 OA
ATOM      4  N   UNL     1      -1.665  13.530  21.902  0.00  0.00    +0.000 N 
ATOM      5  C   UNL     1      -0.301  13.030  22.073  0.00  0.00    +0.000 C 
ATOM      6  C   UNL     1      -0.872  11.626  21.745  0.00  0.00    +0.000 C 
ATOM      7  C   UNL     1      -2.206  12.310  21.321  0.00  0.00    +0.000 C 
ATOM      8  H   UNL     1      -4.060  14.115  22.087  0.00  0.00    +0.000 HD
ENDROOT
BRANCH   6   9
ATOM      9  C   UNL     1      -0.075  10.599  20.792  0.00  0.00    +0.000 A 
ATOM     10  C   UNL     1       0.498   9.424  21.331  0.00  0.00    +0.000 A 
ATOM     11  C   UNL     1       1.263   8.535  20.564  0.00  0.00    +0.000 A 
ATOM     12  C   UNL     1       1.480   8.785  19.213  0.00  0.00    +0.000 A 
ATOM     13  C   UNL     1       0.902   9.907  18.632  0.00  0.00    +0.000 A 
ATOM     14  C   UNL     1       0.147  10.796  19.412  0.00  0.00    +0.000 A 
BRANCH  12  15
ATOM     15  C   UNL     1       2.342   7.928  18.458  0.00  0.00    +0.000 C 
ATOM     16  C   UNL     1       3.059   7.153  17.885  0.00  0.00    +0.000 C 
BRANCH  16  17
ATOM     17  C   UNL     1       3.929   6.196  17.271  0.00  0.00    +0.000 A 
ATOM     18  C   UNL     1       3.795   4.834  17.568  0.00  0.00    +0.000 A 
ATOM     19  C   UNL     1       4.678   3.907  17.009  0.00  0.00    +0.000 A 
ATOM     20  C   UNL     1       5.686   4.349  16.158  0.00  0.00    +0.000 A 
ATOM     21  F   UNL     1       6.545   3.462  15.638  0.00  0.00    +0.000 F 
ATOM     22  C   UNL     1       5.821   5.697  15.845  0.00  0.00    +0.000 A 
ATOM     23  C   UNL     1       4.938   6.626  16.403  0.00  0.00    +0.000 A 
ENDBRANCH  16  17
ENDBRANCH  12  15
ENDBRANCH   6   9
BRANCH   5  24
ATOM     24  C   UNL     1       0.631  13.632  21.139  0.00  0.00    +0.000 C 
ATOM     25  N   UNL     1       1.375  14.145  20.412  0.00  0.00    +0.000 NA
ENDBRANCH   5  24
BRANCH   1  26
ATOM     26  C   UNL     1      -4.076  16.201  22.496  0.00  0.00    +0.000 C 
BRANCH  26  28
ATOM     27  C   UNL     1      -5.645  17.313  24.162  0.00  0.00    +0.000 C 
ATOM     28  C   UNL     1      -5.260  16.030  23.442  0.00  0.00    +0.000 C 
ENDBRANCH  26  28
ENDBRANCH   1  26
BRANCH   7  29
ATOM     29  C   UNL     1      -2.556  12.462  19.847  0.00  0.00    +0.000 C 
BRANCH  29  30
ATOM     30  O   UNL     1      -3.891  12.942  19.718  0.00  0.00    +0.000 OA
ATOM     31  H   UNL     1      -4.312  12.834  20.592  0.00  0.00    +0.000 HD
ENDBRANCH  29  30
ENDBRANCH   7  29
TORSDOF 8
ENDMDL
MODEL 4
REMARK VINA RESULT:      -6.7      2.508      2.925
REMARK  Name = 
REMARK  9 active torsions:
REMARK  status: ('A' for Active; 'I' for Inactive)
REMARK    1  A    between atoms: C_1  and  C_2
REMARK    2  A    between atoms: C_2  and  C_3
REMARK    3  A    between atoms: C_3  and  N_4
REMARK    4  A    between atoms: C_8  and  C_9
REMARK    5  A    between atoms: C_11  and  C_12
REMARK    6  A    between atoms: C_15  and  C_16
REMARK    7  A    between atoms: C_17  and  C_18
REMARK    8  A    between atoms: C_27  and  C_28
REMARK    9  A    between atoms: C_28  and  O_29
REMARK                            x       y       z     vdW  Elec       q    Type
REMARK                         _______ _______ _______ _____ _____    ______ ____
ROOT
ATOM      1  N   UNL     1      -3.657  14.879  21.826  0.00  0.00    +0.000 N 
ATOM      2  C   UNL     1      -2.358  14.640  22.183  0.00  0.00    +0.000 C 
ATOM      3  O   UNL     1      -1.661  15.465  22.765  0.00  0.00    +0.000 OA
ATOM      4  N   UNL     1      -1.867  13.425  21.829  0.00  0.00    +0.000 N 
ATOM      5  C   UNL     1      -0.542  12.887  22.140  0.00  0.00    +0.000 C 
ATOM      6  C   UNL     1      -1.102  11.505  21.715  0.00  0.00    +0.000 C 
ATOM      7  C   UNL     1      -2.364  12.232  21.160  0.00  0.00    +0.000 C 
ATOM      8  H   UNL     1      -4.253  14.064  21.755  0.00  0.00    +0.000 HD
ENDROOT
BRANCH   6   9
ATOM      9  C   UNL     1      -0.224  10.481  20.833  0.00  0.00    +0.000 A 
ATOM     10  C   UNL     1       0.407   9.373  21.445  0.00  0.00    +0.000 A 
ATOM     11  C   UNL     1       1.240   8.494  20.740  0.00  0.00    +0.000 A 
ATOM     12  C   UNL     1       1.471   8.685  19.382  0.00  0.00    +0.000 A 
ATOM     13  C   UNL     1       0.839   9.738  18.732  0.00  0.00    +0.000 A 
ATOM     14  C   UNL     1       0.015  10.618  19.449  0.00  0.00    +0.000 A 
BRANCH  12  15
ATOM     15  C   UNL     1       2.398   7.844  18.691  0.00  0.00    +0.000 C 
ATOM     16  C   UNL     1       3.113   7.092  18.085  0.00  0.00    +0.000 C 
BRANCH  16  17
ATOM     17  C   UNL     1       3.910   6.141  17.369  0.00  0.00    +0.000 A 
ATOM     18  C   UNL     1       4.931   6.581  16.520  0.00  0.00    +0.000 A 
ATOM     19  C   UNL     1       5.673   5.656  15.781  0.00  0.00    +0.000 A 
ATOM     20  C   UNL     1       5.388   4.299  15.900  0.00  0.00    +0.000 A 
ATOM     21  F   UNL     1       6.086   3.414  15.178  0.00  0.00    +0.000 F 
ATOM     22  C   UNL     1       4.385   3.849  16.751  0.00  0.00    +0.000 A 
ATOM     23  C   UNL     1       3.642   4.774  17.491  0.00  0.00    +0.000 A 
ENDBRANCH  16  17
ENDBRANCH  12  15
ENDBRANCH   6   9
BRANCH   5  24
ATOM     24  C   UNL     1       0.504  13.487  21.334  0.00  0.00    +0.000 C 
ATOM     25  N   UNL     1       1.314  13.986  20.671  0.00  0.00    +0.000 NA
ENDBRANCH   5  24
BRANCH   1  26
ATOM     26  C   UNL     1      -4.270  16.139  22.212  0.00  0.00    +0.000 C 
BRANCH  26  28
ATOM     27  C   UNL     1      -6.482  17.302  21.734  0.00  0.00    +0.000 C 
ATOM     28  C   UNL     1      -5.791  16.078  22.313  0.00  0.00    +0.000 C 
ENDBRANCH  26  28
ENDBRANCH   1  26
BRANCH   7  29
ATOM     29  C   UNL     1      -2.540  12.425  19.660  0.00  0.00    +0.000 C 
BRANCH  29  30
ATOM     30  O   UNL     1      -3.892  12.774  19.377  0.00  0.00    +0.000 OA
ATOM     31  H   UNL     1      -4.382  12.698  20.218  0.00  0.00    +0.000 HD
ENDBRANCH  29  30
ENDBRANCH   7  29
TORSDOF 8
ENDMDL
MODEL 5
REMARK VINA RESULT:      -6.6      2.465      2.879
REMARK  Name = 
REMARK  9 active torsions:
REMARK  status: ('A' for Active; 'I' for Inactive)
REMARK    1  A    between atoms: C_1  and  C_2
REMARK    2  A    between atoms: C_2  and  C_3
REMARK    3  A    between atoms: C_3  and  N_4
REMARK    4  A    between atoms: C_8  and  C_9
REMARK    5  A    between atoms: C_11  and  C_12
REMARK    6  A    between atoms: C_15  and  C_16
REMARK    7  A    between atoms: C_17  and  C_18
REMARK    8  A    between atoms: C_27  and  C_28
REMARK    9  A    between atoms: C_28  and  O_29
REMARK                            x       y       z     vdW  Elec       q    Type
REMARK                         _______ _______ _______ _____ _____    ______ ____
ROOT
ATOM      1  N   UNL     1      -4.052  15.009  20.558  0.00  0.00    +0.000 N 
ATOM      2  C   UNL     1      -2.691  15.008  20.704  0.00  0.00    +0.000 C 
ATOM      3  O   UNL     1      -2.036  16.031  20.876  0.00  0.00    +0.000 OA
ATOM      4  N   UNL     1      -2.093  13.792  20.622  0.00  0.00    +0.000 N 
ATOM      5  C   UNL     1      -0.671  13.497  20.805  0.00  0.00    +0.000 C 
ATOM      6  C   UNL     1      -1.087  12.007  20.913  0.00  0.00    +0.000 C 
ATOM      7  C   UNL     1      -2.514  12.411  20.435  0.00  0.00    +0.000 C 
ATOM      8  H   UNL     1      -4.527  14.162  20.844  0.00  0.00    +0.000 HD
ENDROOT
BRANCH   6   9
ATOM      9  C   UNL     1      -0.226  10.843  20.206  0.00  0.00    +0.000 A 
ATOM     10  C   UNL     1       0.393   9.839  20.986  0.00  0.00    +0.000 A 
ATOM     11  C   UNL     1       1.213   8.848  20.430  0.00  0.00    +0.000 A 
ATOM     12  C   UNL     1       1.442   8.817  19.059  0.00  0.00    +0.000 A 
ATOM     13  C   UNL     1       0.821   9.759  18.249  0.00  0.00    +0.000 A 
ATOM     14  C   UNL     1       0.011  10.754  18.817  0.00  0.00    +0.000 A 
BRANCH  12  15
ATOM     15  C   UNL     1       2.357   7.864  18.509  0.00  0.00    +0.000 C 
ATOM     16  C   UNL     1       3.181   7.125  18.042  0.00  0.00    +0.000 C 
BRANCH  16  17
ATOM     17  C   UNL     1       4.199   6.307  17.456  0.00  0.00    +0.000 A 
ATOM     18  C   UNL     1       3.961   4.946  17.230  0.00  0.00    +0.000 A 
ATOM     19  C   UNL     1       4.973   4.137  16.707  0.00  0.00    +0.000 A 
ATOM     20  C   UNL     1       6.212   4.696  16.413  0.00  0.00    +0.000 A 
ATOM     21  F   UNL     1       7.188   3.916  15.929  0.00  0.00    +0.000 F 
ATOM     22  C   UNL     1       6.457   6.048  16.619  0.00  0.00    +0.000 A 
ATOM     23  C   UNL     1       5.445   6.859  17.142  0.00  0.00    +0.000 A 
ENDBRANCH  16  17
ENDBRANCH  12  15
ENDBRANCH   6   9
BRANCH   5  24
ATOM     24  C   UNL     1       0.131  13.910  19.671  0.00  0.00    +0.000 C 
ATOM     25  N   UNL     1       0.744  14.256  18.749  0.00  0.00    +0.000 NA
ENDBRANCH   5  24
BRANCH   1  26
ATOM     26  C   UNL     1      -4.770  16.267  20.682  0.00  0.00    +0.000 C 
BRANCH  26  28
ATOM     27  C   UNL     1      -6.590  17.767  19.727  0.00  0.00    +0.000 C 
ATOM     28  C   UNL     1      -5.666  16.583  19.488  0.00  0.00    +0.000 C 
ENDBRANCH  26  28
ENDBRANCH   1  26
BRANCH   7  29
ATOM     29  C   UNL     1      -2.958  12.117  19.008  0.00  0.00    +0.000 C 
BRANCH  29  30
ATOM     30  O   UNL     1      -4.344  12.412  18.867  0.00  0.00    +0.000 OA
ATOM     31  H   UNL     1      -4.829  11.725  19.361  0.00  0.00    +0.000 HD
ENDBRANCH  29  30
ENDBRANCH   7  29
TORSDOF 8
ENDMDL
MODEL 6
REMARK VINA RESULT:      -6.6      3.183      3.934
REMARK  Name = 
REMARK  9 active torsions:
REMARK  status: ('A' for Active; 'I' for Inactive)
REMARK    1  A    between atoms: C_1  and  C_2
REMARK    2  A    between atoms: C_2  and  C_3
REMARK    3  A    between atoms: C_3  and  N_4
REMARK    4  A    between atoms: C_8  and  C_9
REMARK    5  A    between atoms: C_11  and  C_12
REMARK    6  A    between atoms: C_15  and  C_16
REMARK    7  A    between atoms: C_17  and  C_18
REMARK    8  A    between atoms: C_27  and  C_28
REMARK    9  A    between atoms: C_28  and  O_29
REMARK                            x       y       z     vdW  Elec       q    Type
REMARK                         _______ _______ _______ _____ _____    ______ ____
ROOT
ATOM      1  N   UNL     1      -2.964  13.994  23.602  0.00  0.00    +0.000 N 
ATOM      2  C   UNL     1      -2.825  14.047  22.241  0.00  0.00    +0.000 C 
ATOM      3  O   UNL     1      -3.557  14.716  21.519  0.00  0.00    +0.000 OA
ATOM      4  N   UNL     1      -1.826  13.286  21.724  0.00  0.00    +0.000 N 
ATOM      5  C   UNL     1      -1.418  13.207  20.321  0.00  0.00    +0.000 C 
ATOM      6  C   UNL     1      -0.131  12.506  20.829  0.00  0.00    +0.000 C 
ATOM      7  C   UNL     1      -0.793  12.398  22.236  0.00  0.00    +0.000 C 
ATOM      8  H   UNL     1      -2.121  13.795  24.125  0.00  0.00    +0.000 HD
ENDROOT
BRANCH   6   9
ATOM      9  C   UNL     1       0.492  11.236  20.056  0.00  0.00    +0.000 A 
ATOM     10  C   UNL     1       0.673  10.008  20.733  0.00  0.00    +0.000 A 
ATOM     11  C   UNL     1       1.277   8.896  20.132  0.00  0.00    +0.000 A 
ATOM     12  C   UNL     1       1.721   8.966  18.816  0.00  0.00    +0.000 A 
ATOM     13  C   UNL     1       1.528  10.140  18.100  0.00  0.00    +0.000 A 
ATOM     14  C   UNL     1       0.931  11.252  18.715  0.00  0.00    +0.000 A 
BRANCH  12  15
ATOM     15  C   UNL     1       2.425   7.862  18.240  0.00  0.00    +0.000 C 
ATOM     16  C   UNL     1       3.087   6.972  17.777  0.00  0.00    +0.000 C 
BRANCH  16  17
ATOM     17  C   UNL     1       3.934   5.962  17.218  0.00  0.00    +0.000 A 
ATOM     18  C   UNL     1       4.952   6.317  16.325  0.00  0.00    +0.000 A 
ATOM     19  C   UNL     1       5.744   5.326  15.740  0.00  0.00    +0.000 A 
ATOM     20  C   UNL     1       5.513   3.991  16.054  0.00  0.00    +0.000 A 
ATOM     21  F   UNL     1       6.260   3.039  15.478  0.00  0.00    +0.000 F 
ATOM     22  C   UNL     1       4.514   3.627  16.950  0.00  0.00    +0.000 A 
ATOM     23  C   UNL     1       3.720   4.618  17.536  0.00  0.00    +0.000 A 
ENDBRANCH  16  17
ENDBRANCH  12  15
ENDBRANCH   6   9
BRANCH   5  24
ATOM     24  C   UNL     1      -2.349  12.442  19.514  0.00  0.00    +0.000 C 
ATOM     25  N   UNL     1      -3.065  11.814  18.853  0.00  0.00    +0.000 NA
ENDBRANCH   5  24
BRANCH   1  26
ATOM     26  C   UNL     1      -3.980  14.819  24.235  0.00  0.00    +0.000 C 
BRANCH  26  28
ATOM     27  C   UNL     1      -6.413  15.460  23.858  0.00  0.00    +0.000 C 
ATOM     28  C   UNL     1      -5.405  14.330  23.997  0.00  0.00    +0.000 C 
ENDBRANCH  26  28
ENDBRANCH   1  26
BRANCH   7  29
ATOM     29  C   UNL     1      -1.346  11.065  22.723  0.00  0.00    +0.000 C 
BRANCH  29  30
ATOM     30  O   UNL     1      -0.423  10.465  23.626  0.00  0.00    +0.000 OA
ATOM     31  H   UNL     1      -0.518   9.499  23.522  0.00  0.00    +0.000 HD
ENDBRANCH  29  30
ENDBRANCH   7  29
TORSDOF 8
ENDMDL
MODEL 7
REMARK VINA RESULT:      -6.6      2.468      2.693
REMARK  Name = 
REMARK  9 active torsions:
REMARK  status: ('A' for Active; 'I' for Inactive)
REMARK    1  A    between atoms: C_1  and  C_2
REMARK    2  A    between atoms: C_2  and  C_3
REMARK    3  A    between atoms: C_3  and  N_4
REMARK    4  A    between atoms: C_8  and  C_9
REMARK    5  A    between atoms: C_11  and  C_12
REMARK    6  A    between atoms: C_15  and  C_16
REMARK    7  A    between atoms: C_17  and  C_18
REMARK    8  A    between atoms: C_27  and  C_28
REMARK    9  A    between atoms: C_28  and  O_29
REMARK                            x       y       z     vdW  Elec       q    Type
REMARK                         _______ _______ _______ _____ _____    ______ ____
ROOT
ATOM      1  N   UNL     1      -3.402  14.883  20.659  0.00  0.00    +0.000 N 
ATOM      2  C   UNL     1      -2.211  14.615  21.279  0.00  0.00    +0.000 C 
ATOM      3  O   UNL     1      -1.640  15.421  22.008  0.00  0.00    +0.000 OA
ATOM      4  N   UNL     1      -1.676  13.395  21.019  0.00  0.00    +0.000 N 
ATOM      5  C   UNL     1      -0.455  12.830  21.595  0.00  0.00    +0.000 C 
ATOM      6  C   UNL     1      -0.935  11.463  21.042  0.00  0.00    +0.000 C 
ATOM      7  C   UNL     1      -2.039  12.219  20.243  0.00  0.00    +0.000 C 
ATOM      8  H   UNL     1      -3.983  14.080  20.453  0.00  0.00    +0.000 HD
ENDROOT
BRANCH   6   9
ATOM      9  C   UNL     1       0.093  10.432  20.350  0.00  0.00    +0.000 A 
ATOM     10  C   UNL     1       0.459  10.592  18.994  0.00  0.00    +0.000 A 
ATOM     11  C   UNL     1       1.289   9.684  18.323  0.00  0.00    +0.000 A 
ATOM     12  C   UNL     1       1.797   8.575  18.990  0.00  0.00    +0.000 A 
ATOM     13  C   UNL     1       1.495   8.399  20.335  0.00  0.00    +0.000 A 
ATOM     14  C   UNL     1       0.654   9.308  20.994  0.00  0.00    +0.000 A 
BRANCH  12  15
ATOM     15  C   UNL     1       2.562   7.600  18.276  0.00  0.00    +0.000 C 
ATOM     16  C   UNL     1       3.273   6.813  17.711  0.00  0.00    +0.000 C 
BRANCH  16  17
ATOM     17  C   UNL     1       4.180   5.925  17.048  0.00  0.00    +0.000 A 
ATOM     18  C   UNL     1       5.102   6.426  16.122  0.00  0.00    +0.000 A 
ATOM     19  C   UNL     1       5.950   5.553  15.437  0.00  0.00    +0.000 A 
ATOM     20  C   UNL     1       5.869   4.186  15.685  0.00  0.00    +0.000 A 
ATOM     21  F   UNL     1       6.668   3.347  15.013  0.00  0.00    +0.000 F 
ATOM     22  C   UNL     1       4.966   3.677  16.611  0.00  0.00    +0.000 A 
ATOM     23  C   UNL     1       4.118   4.550  17.298  0.00  0.00    +0.000 A 
ENDBRANCH  16  17
ENDBRANCH  12  15
ENDBRANCH   6   9
BRANCH   5  24
ATOM     24  C   UNL     1       0.746  13.419  21.037  0.00  0.00    +0.000 C 
ATOM     25  N   UNL     1       1.707  13.865  20.563  0.00  0.00    +0.000 NA
ENDBRANCH   5  24
BRANCH   1  26
ATOM     26  C   UNL     1      -4.062  16.150  20.926  0.00  0.00    +0.000 C 
BRANCH  26  28
ATOM     27  C   UNL     1      -5.295  15.752  23.116  0.00  0.00    +0.000 C 
ATOM     28  C   UNL     1      -5.412  16.005  21.622  0.00  0.00    +0.000 C 
ENDBRANCH  26  28
ENDBRANCH   1  26
BRANCH   7  29
ATOM     29  C   UNL     1      -1.892  12.431  18.743  0.00  0.00    +0.000 C 
BRANCH  29  30
ATOM     30  O   UNL     1      -3.109  12.087  18.088  0.00  0.00    +0.000 OA
ATOM     31  H   UNL     1      -2.939  12.151  17.129  0.00  0.00    +0.000 HD
ENDBRANCH  29  30
ENDBRANCH   7  29
TORSDOF 8
ENDMDL
MODEL 8
REMARK VINA RESULT:      -6.6      3.159      3.879
REMARK  Name = 
REMARK  9 active torsions:
REMARK  status: ('A' for Active; 'I' for Inactive)
REMARK    1  A    between atoms: C_1  and  C_2
REMARK    2  A    between atoms: C_2  and  C_3
REMARK    3  A    between atoms: C_3  and  N_4
REMARK    4  A    between atoms: C_8  and  C_9
REMARK    5  A    between atoms: C_11  and  C_12
REMARK    6  A    between atoms: C_15  and  C_16
REMARK    7  A    between atoms: C_17  and  C_18
REMARK    8  A    between atoms: C_27  and  C_28
REMARK    9  A    between atoms: C_28  and  O_29
REMARK                            x       y       z     vdW  Elec       q    Type
REMARK                         _______ _______ _______ _____ _____    ______ ____
ROOT
ATOM      1  N   UNL     1      -4.882  15.161  23.572  0.00  0.00    +0.000 N 
ATOM      2  C   UNL     1      -4.195  14.972  22.404  0.00  0.00    +0.000 C 
ATOM      3  O   UNL     1      -4.484  15.544  21.357  0.00  0.00    +0.000 OA
ATOM      4  N   UNL     1      -3.172  14.081  22.462  0.00  0.00    +0.000 N 
ATOM      5  C   UNL     1      -2.240  13.740  21.387  0.00  0.00    +0.000 C 
ATOM      6  C   UNL     1      -1.366  13.071  22.479  0.00  0.00    +0.000 C 
ATOM      7  C   UNL     1      -2.551  13.242  23.476  0.00  0.00    +0.000 C 
ATOM      8  H   UNL     1      -4.355  15.012  24.424  0.00  0.00    +0.000 HD
ENDROOT
BRANCH   6   9
ATOM      9  C   UNL     1      -0.639  11.655  22.219  0.00  0.00    +0.000 A 
ATOM     10  C   UNL     1       0.143  11.458  21.058  0.00  0.00    +0.000 A 
ATOM     11  C   UNL     1       0.735  10.227  20.747  0.00  0.00    +0.000 A 
ATOM     12  C   UNL     1       0.574   9.137  21.596  0.00  0.00    +0.000 A 
ATOM     13  C   UNL     1      -0.152   9.297  22.769  0.00  0.00    +0.000 A 
ATOM     14  C   UNL     1      -0.751  10.532  23.066  0.00  0.00    +0.000 A 
BRANCH  12  15
ATOM     15  C   UNL     1       1.098   7.859  21.225  0.00  0.00    +0.000 C 
ATOM     16  C   UNL     1       1.517   6.803  20.834  0.00  0.00    +0.000 C 
BRANCH  16  17
ATOM     17  C   UNL     1       1.971   5.551  20.307  0.00  0.00    +0.000 A 
ATOM     18  C   UNL     1       1.170   4.409  20.425  0.00  0.00    +0.000 A 
ATOM     19  C   UNL     1       1.636   3.178  19.959  0.00  0.00    +0.000 A 
ATOM     20  C   UNL     1       2.897   3.100  19.376  0.00  0.00    +0.000 A 
ATOM     21  F   UNL     1       3.351   1.915  18.945  0.00  0.00    +0.000 F 
ATOM     22  C   UNL     1       3.696   4.229  19.240  0.00  0.00    +0.000 A 
ATOM     23  C   UNL     1       3.231   5.462  19.707  0.00  0.00    +0.000 A 
ENDBRANCH  16  17
ENDBRANCH  12  15
ENDBRANCH   6   9
BRANCH   5  24
ATOM     24  C   UNL     1      -2.846  12.898  20.374  0.00  0.00    +0.000 C 
ATOM     25  N   UNL     1      -3.304  12.233  19.541  0.00  0.00    +0.000 NA
ENDBRANCH   5  24
BRANCH   1  26
ATOM     26  C   UNL     1      -5.960  16.135  23.602  0.00  0.00    +0.000 C 
BRANCH  26  28
ATOM     27  C   UNL     1      -7.556  14.236  24.167  0.00  0.00    +0.000 C 
ATOM     28  C   UNL     1      -7.344  15.528  23.393  0.00  0.00    +0.000 C 
ENDBRANCH  26  28
ENDBRANCH   1  26
BRANCH   7  29
ATOM     29  C   UNL     1      -3.410  12.044  23.860  0.00  0.00    +0.000 C 
BRANCH  29  30
ATOM     30  O   UNL     1      -4.755  12.268  23.448  0.00  0.00    +0.000 OA
ATOM     31  H   UNL     1      -4.717  12.568  22.520  0.00  0.00    +0.000 HD
ENDBRANCH  29  30
ENDBRANCH   7  29
TORSDOF 8
ENDMDL
MODEL 9
REMARK VINA RESULT:      -6.5      3.100      3.550
REMARK  Name = 
REMARK  9 active torsions:
REMARK  status: ('A' for Active; 'I' for Inactive)
REMARK    1  A    between atoms: C_1  and  C_2
REMARK    2  A    between atoms: C_2  and  C_3
REMARK    3  A    between atoms: C_3  and  N_4
REMARK    4  A    between atoms: C_8  and  C_9
REMARK    5  A    between atoms: C_11  and  C_12
REMARK    6  A    between atoms: C_15  and  C_16
REMARK    7  A    between atoms: C_17  and  C_18
REMARK    8  A    between atoms: C_27  and  C_28
REMARK    9  A    between atoms: C_28  and  O_29
REMARK                            x       y       z     vdW  Elec       q    Type
REMARK                         _______ _______ _______ _____ _____    ______ ____
ROOT
ATOM      1  N   UNL     1      -2.098  14.953  23.106  0.00  0.00    +0.000 N 
ATOM      2  C   UNL     1      -2.272  13.598  23.181  0.00  0.00    +0.000 C 
ATOM      3  O   UNL     1      -2.907  13.053  24.078  0.00  0.00    +0.000 OA
ATOM      4  N   UNL     1      -1.672  12.874  22.201  0.00  0.00    +0.000 N 
ATOM      5  C   UNL     1      -1.748  11.426  22.004  0.00  0.00    +0.000 C 
ATOM      6  C   UNL     1      -1.161  11.679  20.591  0.00  0.00    +0.000 C 
ATOM      7  C   UNL     1      -0.870  13.149  21.018  0.00  0.00    +0.000 C 
ATOM      8  H   UNL     1      -1.957  15.330  22.177  0.00  0.00    +0.000 HD
ENDROOT
BRANCH   6   9
ATOM      9  C   UNL     1      -0.034  10.710  19.967  0.00  0.00    +0.000 A 
ATOM     10  C   UNL     1       0.399  10.886  18.632  0.00  0.00    +0.000 A 
ATOM     11  C   UNL     1       1.320  10.029  18.017  0.00  0.00    +0.000 A 
ATOM     12  C   UNL     1       1.857   8.956  18.721  0.00  0.00    +0.000 A 
ATOM     13  C   UNL     1       1.491   8.769  20.048  0.00  0.00    +0.000 A 
ATOM     14  C   UNL     1       0.559   9.627  20.651  0.00  0.00    +0.000 A 
BRANCH  12  15
ATOM     15  C   UNL     1       2.721   8.028  18.059  0.00  0.00    +0.000 C 
ATOM     16  C   UNL     1       3.390   7.189  17.518  0.00  0.00    +0.000 C 
BRANCH  16  17
ATOM     17  C   UNL     1       4.149   6.136  16.914  0.00  0.00    +0.000 A 
ATOM     18  C   UNL     1       3.967   4.812  17.332  0.00  0.00    +0.000 A 
ATOM     19  C   UNL     1       4.746   3.792  16.780  0.00  0.00    +0.000 A 
ATOM     20  C   UNL     1       5.697   4.105  15.813  0.00  0.00    +0.000 A 
ATOM     21  F   UNL     1       6.456   3.129  15.297  0.00  0.00    +0.000 F 
ATOM     22  C   UNL     1       5.876   5.413  15.380  0.00  0.00    +0.000 A 
ATOM     23  C   UNL     1       5.098   6.435  15.932  0.00  0.00    +0.000 A 
ENDBRANCH  16  17
ENDBRANCH  12  15
ENDBRANCH   6   9
BRANCH   5  24
ATOM     24  C   UNL     1      -0.948  10.693  22.965  0.00  0.00    +0.000 C 
ATOM     25  N   UNL     1      -0.302  10.080  23.708  0.00  0.00    +0.000 NA
ENDBRANCH   5  24
BRANCH   1  26
ATOM     26  C   UNL     1      -2.751  15.799  24.092  0.00  0.00    +0.000 C 
BRANCH  26  28
ATOM     27  C   UNL     1      -4.913  16.970  24.746  0.00  0.00    +0.000 C 
ATOM     28  C   UNL     1      -4.079  16.382  23.619  0.00  0.00    +0.000 C 
ENDBRANCH  26  28
ENDBRANCH   1  26
BRANCH   7  29
ATOM     29  C   UNL     1       0.550  13.584  21.353  0.00  0.00    +0.000 C 
BRANCH  29  30
ATOM     30  O   UNL     1       0.991  14.552  20.406  0.00  0.00    +0.000 OA
ATOM     31  H   UNL     1       0.526  14.358  19.570  0.00  0.00    +0.000 HD
ENDBRANCH  29  30
ENDBRANCH   7  29
TORSDOF 8
ENDMDL
