MODEL 1
REMARK VINA RESULT:      -8.1      0.000      0.000
REMARK  Name = 
REMARK  3 active torsions:
REMARK  status: ('A' for Active; 'I' for Inactive)
REMARK    1  A    between atoms: C_2  and  C_21
REMARK    2  A    between atoms: N_3  and  C_4
REMARK    3  A    between atoms: N_8  and  C_9
REMARK                            x       y       z     vdW  Elec       q    Type
REMARK                         _______ _______ _______ _____ _____    ______ ____
ROOT
ATOM      1  C   UNL     1       3.621   5.169  17.452  0.00  0.00    +0.000 A 
ATOM      2  C   UNL     1       4.592   5.169  16.486  0.00  0.00    +0.000 A 
ATOM      3  C   UNL     1       5.325   3.992  16.701  0.00  0.00    +0.000 A 
ATOM      4  N   UNL     1       4.896   3.290  17.746  0.00  0.00    +0.000 NA
ATOM      5  N   UNL     1       3.793   3.979  18.173  0.00  0.00    +0.000 N 
ATOM      6  C   UNL     1       6.508   3.743  15.842  0.00  0.00    +0.000 C 
ATOM      7  S   UNL     1       6.739   5.372  15.049  0.00  0.00    +0.000 S 
ATOM      8  O   UNL     1       7.748   6.105  15.789  0.00  0.00    +0.000 OA
ATOM      9  O   UNL     1       6.823   5.199  13.614  0.00  0.00    +0.000 OA
ATOM     10  C   UNL     1       5.112   6.092  15.458  0.00  0.00    +0.000 C 
ENDROOT
BRANCH   5  11
ATOM     11  C   UNL     1       2.964   3.492  19.219  0.00  0.00    +0.000 A 
ATOM     12  C   UNL     1       3.543   2.980  20.387  0.00  0.00    +0.000 A 
ATOM     13  C   UNL     1       2.723   2.609  21.458  0.00  0.00    +0.000 A 
ATOM     14  C   UNL     1       1.342   2.714  21.344  0.00  0.00    +0.000 A 
ATOM     15  F   UNL     1       0.561   2.387  22.379  0.00  0.00    +0.000 F 
ATOM     16  C   UNL     1       0.757   3.153  20.165  0.00  0.00    +0.000 A 
ATOM     17  C   UNL     1       1.562   3.539  19.096  0.00  0.00    +0.000 A 
ENDBRANCH   5  11
BRANCH   1  20
ATOM     18  O   UNL     1       3.766   6.745  19.708  0.00  0.00    +0.000 OA
ATOM     19  C   UNL     1       2.878   6.998  18.907  0.00  0.00    +0.000 C 
ATOM     20  N   UNL     1       2.737   6.205  17.721  0.00  0.00    +0.000 N 
ATOM     21  H   UNL     1       2.120   6.545  16.988  0.00  0.00    +0.000 HD
BRANCH  19  22
ATOM     22  C   UNL     1       1.971   8.111  18.971  0.00  0.00    +0.000 A 
ATOM     23  C   UNL     1       1.513   8.961  17.982  0.00  0.00    +0.000 A 
ATOM     24  C   UNL     1       0.678   9.909  18.618  0.00  0.00    +0.000 A 
ATOM     25  C   UNL     1       0.666   9.578  19.955  0.00  0.00    +0.000 A 
ATOM     26 BR   UNL     1      -0.242  10.521  21.282  0.00  0.00    +0.000 Br
ATOM     27  O   UNL     1       1.425   8.467  20.176  0.00  0.00    +0.000 OA
ENDBRANCH  19  22
ENDBRANCH   1  20
TORSDOF 3
ENDMDL
MODEL 2
REMARK VINA RESULT:      -7.7      1.059      1.214
REMARK  Name = 
REMARK  3 active torsions:
REMARK  status: ('A' for Active; 'I' for Inactive)
REMARK    1  A    between atoms: C_2  and  C_21
REMARK    2  A    between atoms: N_3  and  C_4
REMARK    3  A    between atoms: N_8  and  C_9
REMARK                            x       y       z     vdW  Elec       q    Type
REMARK                         _______ _______ _______ _____ _____    ______ ____
ROOT
ATOM      1  C   UNL     1       3.846   5.348  17.990  0.00  0.00    +0.000 A 
ATOM      2  C   UNL     1       4.633   5.352  16.870  0.00  0.00    +0.000 A 
ATOM      3  C   UNL     1       4.962   4.006  16.646  0.00  0.00    +0.000 A 
ATOM      4  N   UNL     1       4.463   3.185  17.566  0.00  0.00    +0.000 NA
ATOM      5  N   UNL     1       3.710   4.004  18.363  0.00  0.00    +0.000 N 
ATOM      6  C   UNL     1       5.880   3.692  15.525  0.00  0.00    +0.000 C 
ATOM      7  S   UNL     1       6.528   5.347  15.102  0.00  0.00    +0.000 S 
ATOM      8  O   UNL     1       7.806   5.523  15.763  0.00  0.00    +0.000 OA
ATOM      9  O   UNL     1       6.368   5.575  13.681  0.00  0.00    +0.000 OA
ATOM     10  C   UNL     1       5.291   6.346  15.999  0.00  0.00    +0.000 C 
ENDROOT
BRANCH   5  11
ATOM     11  C   UNL     1       2.907   3.491  19.417  0.00  0.00    +0.000 A 
ATOM     12  C   UNL     1       3.511   2.852  20.507  0.00  0.00    +0.000 A 
ATOM     13  C   UNL     1       2.727   2.452  21.594  0.00  0.00    +0.000 A 
ATOM     14  C   UNL     1       1.352   2.656  21.570  0.00  0.00    +0.000 A 
ATOM     15  F   UNL     1       0.607   2.300  22.622  0.00  0.00    +0.000 F 
ATOM     16  C   UNL     1       0.736   3.224  20.464  0.00  0.00    +0.000 A 
ATOM     17  C   UNL     1       1.507   3.638  19.381  0.00  0.00    +0.000 A 
ENDBRANCH   5  11
BRANCH   1  20
ATOM     18  O   UNL     1       1.479   6.631  17.402  0.00  0.00    +0.000 OA
ATOM     19  C   UNL     1       2.141   7.080  18.326  0.00  0.00    +0.000 C 
ATOM     20  N   UNL     1       3.391   6.469  18.673  0.00  0.00    +0.000 N 
ATOM     21  H   UNL     1       3.828   6.737  19.551  0.00  0.00    +0.000 HD
BRANCH  19  22
ATOM     22  C   UNL     1       1.751   8.142  19.212  0.00  0.00    +0.000 A 
ATOM     23  C   UNL     1       1.543   8.149  20.578  0.00  0.00    +0.000 A 
ATOM     24  C   UNL     1       1.121   9.456  20.917  0.00  0.00    +0.000 A 
ATOM     25  C   UNL     1       1.106  10.173  19.742  0.00  0.00    +0.000 A 
ATOM     26 BR   UNL     1       0.581  11.956  19.584  0.00  0.00    +0.000 Br
ATOM     27  O   UNL     1       1.517   9.392  18.703  0.00  0.00    +0.000 OA
ENDBRANCH  19  22
ENDBRANCH   1  20
TORSDOF 3
ENDMDL
MODEL 3
REMARK VINA RESULT:      -7.5      3.714      5.625
REMARK  Name = 
REMARK  3 active torsions:
REMARK  status: ('A' for Active; 'I' for Inactive)
REMARK    1  A    between atoms: C_2  and  C_21
REMARK    2  A    between atoms: N_3  and  C_4
REMARK    3  A    between atoms: N_8  and  C_9
REMARK                            x       y       z     vdW  Elec       q    Type
REMARK                         _______ _______ _______ _____ _____    ______ ____
ROOT
ATOM      1  C   UNL     1       3.538   5.687  19.812  0.00  0.00    +0.000 A 
ATOM      2  C   UNL     1       2.878   4.623  20.365  0.00  0.00    +0.000 A 
ATOM      3  C   UNL     1       3.654   3.500  20.043  0.00  0.00    +0.000 A 
ATOM      4  N   UNL     1       4.721   3.794  19.305  0.00  0.00    +0.000 NA
ATOM      5  N   UNL     1       4.693   5.160  19.219  0.00  0.00    +0.000 N 
ATOM      6  C   UNL     1       3.151   2.167  20.451  0.00  0.00    +0.000 C 
ATOM      7  S   UNL     1       1.427   2.549  20.919  0.00  0.00    +0.000 S 
ATOM      8  O   UNL     1       0.567   2.246  19.791  0.00  0.00    +0.000 OA
ATOM      9  O   UNL     1       1.161   2.022  22.241  0.00  0.00    +0.000 OA
ATOM     10  C   UNL     1       1.585   4.364  21.030  0.00  0.00    +0.000 C 
ENDROOT
BRANCH   5  11
ATOM     11  C   UNL     1       5.739   5.893  18.596  0.00  0.00    +0.000 A 
ATOM     12  C   UNL     1       5.484   6.616  17.424  0.00  0.00    +0.000 A 
ATOM     13  C   UNL     1       6.485   7.426  16.881  0.00  0.00    +0.000 A 
ATOM     14  C   UNL     1       7.738   7.479  17.482  0.00  0.00    +0.000 A 
ATOM     15  F   UNL     1       8.686   8.277  16.979  0.00  0.00    +0.000 F 
ATOM     16  C   UNL     1       8.022   6.710  18.602  0.00  0.00    +0.000 A 
ATOM     17  C   UNL     1       7.029   5.910  19.161  0.00  0.00    +0.000 A 
ENDBRANCH   5  11
BRANCH   1  20
ATOM     18  O   UNL     1       2.012   6.672  17.740  0.00  0.00    +0.000 OA
ATOM     19  C   UNL     1       2.272   7.440  18.654  0.00  0.00    +0.000 C 
ATOM     20  N   UNL     1       3.076   6.996  19.754  0.00  0.00    +0.000 N 
ATOM     21  H   UNL     1       3.122   7.584  20.583  0.00  0.00    +0.000 HD
BRANCH  19  22
ATOM     22  C   UNL     1       1.762   8.775  18.811  0.00  0.00    +0.000 A 
ATOM     23  C   UNL     1       1.829   9.871  17.973  0.00  0.00    +0.000 A 
ATOM     24  C   UNL     1       1.203  10.942  18.655  0.00  0.00    +0.000 A 
ATOM     25  C   UNL     1       0.782  10.434  19.863  0.00  0.00    +0.000 A 
ATOM     26 BR   UNL     1      -0.074  11.419  21.196  0.00  0.00    +0.000 Br
ATOM     27  O   UNL     1       1.089   9.109  19.956  0.00  0.00    +0.000 OA
ENDBRANCH  19  22
ENDBRANCH   1  20
TORSDOF 3
ENDMDL
MODEL 4
REMARK VINA RESULT:      -7.4      0.947      1.359
REMARK  Name = 
REMARK  3 active torsions:
REMARK  status: ('A' for Active; 'I' for Inactive)
REMARK    1  A    between atoms: C_2  and  C_21
REMARK    2  A    between atoms: N_3  and  C_4
REMARK    3  A    between atoms: N_8  and  C_9
REMARK                            x       y       z     vdW  Elec       q    Type
REMARK                         _______ _______ _______ _____ _____    ______ ____
ROOT
ATOM      1  C   UNL     1       3.823   5.523  18.004  0.00  0.00    +0.000 A 
ATOM      2  C   UNL     1       4.614   5.468  16.888  0.00  0.00    +0.000 A 
ATOM      3  C   UNL     1       4.977   4.118  16.760  0.00  0.00    +0.000 A 
ATOM      4  N   UNL     1       4.495   3.351  17.735  0.00  0.00    +0.000 NA
ATOM      5  N   UNL     1       3.718   4.206  18.470  0.00  0.00    +0.000 N 
ATOM      6  C   UNL     1       5.907   3.749  15.667  0.00  0.00    +0.000 C 
ATOM      7  S   UNL     1       6.515   5.386  15.129  0.00  0.00    +0.000 S 
ATOM      8  O   UNL     1       7.786   5.640  15.780  0.00  0.00    +0.000 OA
ATOM      9  O   UNL     1       6.356   5.508  13.695  0.00  0.00    +0.000 OA
ATOM     10  C   UNL     1       5.251   6.414  15.951  0.00  0.00    +0.000 C 
ENDROOT
BRANCH   5  11
ATOM     11  C   UNL     1       2.924   3.749  19.555  0.00  0.00    +0.000 A 
ATOM     12  C   UNL     1       1.536   3.944  19.537  0.00  0.00    +0.000 A 
ATOM     13  C   UNL     1       0.748   3.392  20.551  0.00  0.00    +0.000 A 
ATOM     14  C   UNL     1       1.346   2.687  21.589  0.00  0.00    +0.000 A 
ATOM     15  F   UNL     1       0.589   2.134  22.543  0.00  0.00    +0.000 F 
ATOM     16  C   UNL     1       2.726   2.550  21.654  0.00  0.00    +0.000 A 
ATOM     17  C   UNL     1       3.521   3.084  20.643  0.00  0.00    +0.000 A 
ENDBRANCH   5  11
BRANCH   1  20
ATOM     18  O   UNL     1       1.433   6.710  17.312  0.00  0.00    +0.000 OA
ATOM     19  C   UNL     1       2.077   7.235  18.208  0.00  0.00    +0.000 C 
ATOM     20  N   UNL     1       3.337   6.678  18.604  0.00  0.00    +0.000 N 
ATOM     21  H   UNL     1       3.760   7.015  19.466  0.00  0.00    +0.000 HD
BRANCH  19  22
ATOM     22  C   UNL     1       1.656   8.346  19.016  0.00  0.00    +0.000 A 
ATOM     23  C   UNL     1       1.572   9.694  18.724  0.00  0.00    +0.000 A 
ATOM     24  C   UNL     1       1.142  10.339  19.908  0.00  0.00    +0.000 A 
ATOM     25  C   UNL     1       0.979   9.348  20.849  0.00  0.00    +0.000 A 
ATOM     26 BR   UNL     1       0.466   9.628  22.620  0.00  0.00    +0.000 Br
ATOM     27  O   UNL     1       1.258   8.127  20.308  0.00  0.00    +0.000 OA
ENDBRANCH  19  22
ENDBRANCH   1  20
TORSDOF 3
ENDMDL
MODEL 5
REMARK VINA RESULT:      -7.3      3.462      6.055
REMARK  Name = 
REMARK  3 active torsions:
REMARK  status: ('A' for Active; 'I' for Inactive)
REMARK    1  A    between atoms: C_2  and  C_21
REMARK    2  A    between atoms: N_3  and  C_4
REMARK    3  A    between atoms: N_8  and  C_9
REMARK                            x       y       z     vdW  Elec       q    Type
REMARK                         _______ _______ _______ _____ _____    ______ ____
ROOT
ATOM      1  C   UNL     1       2.935   6.625  18.439  0.00  0.00    +0.000 A 
ATOM      2  C   UNL     1       2.444   7.901  18.504  0.00  0.00    +0.000 A 
ATOM      3  C   UNL     1       1.781   7.979  19.738  0.00  0.00    +0.000 A 
ATOM      4  N   UNL     1       1.800   6.834  20.416  0.00  0.00    +0.000 NA
ATOM      5  N   UNL     1       2.577   6.010  19.647  0.00  0.00    +0.000 N 
ATOM      6  C   UNL     1       1.073   9.238  20.069  0.00  0.00    +0.000 C 
ATOM      7  S   UNL     1       1.060  10.091  18.454  0.00  0.00    +0.000 S 
ATOM      8  O   UNL     1      -0.216   9.841  17.812  0.00  0.00    +0.000 OA
ATOM      9  O   UNL     1       1.580  11.433  18.617  0.00  0.00    +0.000 OA
ATOM     10  C   UNL     1       2.318   9.071  17.612  0.00  0.00    +0.000 C 
ENDROOT
BRANCH   5  11
ATOM     11  C   UNL     1       2.944   4.708  20.079  0.00  0.00    +0.000 A 
ATOM     12  C   UNL     1       4.053   4.069  19.509  0.00  0.00    +0.000 A 
ATOM     13  C   UNL     1       4.477   2.838  20.018  0.00  0.00    +0.000 A 
ATOM     14  C   UNL     1       3.775   2.237  21.057  0.00  0.00    +0.000 A 
ATOM     15  F   UNL     1       4.198   1.074  21.563  0.00  0.00    +0.000 F 
ATOM     16  C   UNL     1       2.633   2.828  21.579  0.00  0.00    +0.000 A 
ATOM     17  C   UNL     1       2.209   4.062  21.091  0.00  0.00    +0.000 A 
ENDBRANCH   5  11
BRANCH   1  20
ATOM     18  O   UNL     1       5.622   6.880  17.884  0.00  0.00    +0.000 OA
ATOM     19  C   UNL     1       4.957   6.200  17.117  0.00  0.00    +0.000 C 
ATOM     20  N   UNL     1       3.550   6.041  17.339  0.00  0.00    +0.000 N 
ATOM     21  H   UNL     1       3.058   5.329  16.805  0.00  0.00    +0.000 HD
BRANCH  19  22
ATOM     22  C   UNL     1       5.461   5.425  16.016  0.00  0.00    +0.000 A 
ATOM     23  C   UNL     1       5.239   4.108  15.662  0.00  0.00    +0.000 A 
ATOM     24  C   UNL     1       6.031   3.857  14.516  0.00  0.00    +0.000 A 
ATOM     25  C   UNL     1       6.680   5.037  14.231  0.00  0.00    +0.000 A 
ATOM     26 BR   UNL     1       7.898   5.278  12.840  0.00  0.00    +0.000 Br
ATOM     27  O   UNL     1       6.317   6.007  15.118  0.00  0.00    +0.000 OA
ENDBRANCH  19  22
ENDBRANCH   1  20
TORSDOF 3
ENDMDL
MODEL 6
REMARK VINA RESULT:      -7.1      4.815      7.443
REMARK  Name = 
REMARK  3 active torsions:
REMARK  status: ('A' for Active; 'I' for Inactive)
REMARK    1  A    between atoms: C_2  and  C_21
REMARK    2  A    between atoms: N_3  and  C_4
REMARK    3  A    between atoms: N_8  and  C_9
REMARK                            x       y       z     vdW  Elec       q    Type
REMARK                         _______ _______ _______ _____ _____    ______ ____
ROOT
ATOM      1  C   UNL     1       4.203   4.758  17.297  0.00  0.00    +0.000 A 
ATOM      2  C   UNL     1       3.186   4.095  17.929  0.00  0.00    +0.000 A 
ATOM      3  C   UNL     1       3.357   4.373  19.294  0.00  0.00    +0.000 A 
ATOM      4  N   UNL     1       4.423   5.129  19.545  0.00  0.00    +0.000 NA
ATOM      5  N   UNL     1       4.911   5.431  18.302  0.00  0.00    +0.000 N 
ATOM      6  C   UNL     1       2.434   3.725  20.256  0.00  0.00    +0.000 C 
ATOM      7  S   UNL     1       1.634   2.461  19.209  0.00  0.00    +0.000 S 
ATOM      8  O   UNL     1       2.320   1.199  19.407  0.00  0.00    +0.000 OA
ATOM      9  O   UNL     1       0.196   2.575  19.335  0.00  0.00    +0.000 OA
ATOM     10  C   UNL     1       2.133   3.120  17.581  0.00  0.00    +0.000 C 
ENDROOT
BRANCH   5  11
ATOM     11  C   UNL     1       5.999   6.326  18.122  0.00  0.00    +0.000 A 
ATOM     12  C   UNL     1       5.851   7.449  17.298  0.00  0.00    +0.000 A 
ATOM     13  C   UNL     1       6.885   8.386  17.216  0.00  0.00    +0.000 A 
ATOM     14  C   UNL     1       8.066   8.180  17.920  0.00  0.00    +0.000 A 
ATOM     15  F   UNL     1       9.044   9.091  17.864  0.00  0.00    +0.000 F 
ATOM     16  C   UNL     1       8.249   7.035  18.682  0.00  0.00    +0.000 A 
ATOM     17  C   UNL     1       7.221   6.101  18.783  0.00  0.00    +0.000 A 
ENDBRANCH   5  11
BRANCH   1  20
ATOM     18  O   UNL     1       6.549   3.658  16.360  0.00  0.00    +0.000 OA
ATOM     19  C   UNL     1       5.755   4.069  15.527  0.00  0.00    +0.000 C 
ATOM     20  N   UNL     1       4.523   4.668  15.948  0.00  0.00    +0.000 N 
ATOM     21  H   UNL     1       3.805   4.829  15.247  0.00  0.00    +0.000 HD
BRANCH  19  22
ATOM     22  C   UNL     1       5.875   3.930  14.102  0.00  0.00    +0.000 A 
ATOM     23  C   UNL     1       6.974   4.041  13.272  0.00  0.00    +0.000 A 
ATOM     24  C   UNL     1       6.504   3.858  11.950  0.00  0.00    +0.000 A 
ATOM     25  C   UNL     1       5.149   3.635  12.050  0.00  0.00    +0.000 A 
ATOM     26 BR   UNL     1       4.000   3.372  10.605  0.00  0.00    +0.000 Br
ATOM     27  O   UNL     1       4.760   3.645  13.357  0.00  0.00    +0.000 OA
ENDBRANCH  19  22
ENDBRANCH   1  20
TORSDOF 3
ENDMDL
MODEL 7
REMARK VINA RESULT:      -7.0      8.027      9.126
REMARK  Name = 
REMARK  3 active torsions:
REMARK  status: ('A' for Active; 'I' for Inactive)
REMARK    1  A    between atoms: C_2  and  C_21
REMARK    2  A    between atoms: N_3  and  C_4
REMARK    3  A    between atoms: N_8  and  C_9
REMARK                            x       y       z     vdW  Elec       q    Type
REMARK                         _______ _______ _______ _____ _____    ______ ____
ROOT
ATOM      1  C   UNL     1       0.658  13.149  19.753  0.00  0.00    +0.000 A 
ATOM      2  C   UNL     1       1.887  13.582  19.331  0.00  0.00    +0.000 A 
ATOM      3  C   UNL     1       2.522  14.069  20.484  0.00  0.00    +0.000 A 
ATOM      4  N   UNL     1       1.759  13.998  21.572  0.00  0.00    +0.000 NA
ATOM      5  N   UNL     1       0.627  13.362  21.138  0.00  0.00    +0.000 N 
ATOM      6  C   UNL     1       3.863  14.681  20.333  0.00  0.00    +0.000 C 
ATOM      7  S   UNL     1       3.977  14.882  18.521  0.00  0.00    +0.000 S 
ATOM      8  O   UNL     1       3.599  16.241  18.185  0.00  0.00    +0.000 OA
ATOM      9  O   UNL     1       5.215  14.298  18.051  0.00  0.00    +0.000 OA
ATOM     10  C   UNL     1       2.594  13.786  18.052  0.00  0.00    +0.000 C 
ENDROOT
BRANCH   5  11
ATOM     11  C   UNL     1      -0.410  12.986  22.033  0.00  0.00    +0.000 A 
ATOM     12  C   UNL     1      -1.256  13.965  22.571  0.00  0.00    +0.000 A 
ATOM     13  C   UNL     1      -2.345  13.579  23.359  0.00  0.00    +0.000 A 
ATOM     14  C   UNL     1      -2.560  12.233  23.635  0.00  0.00    +0.000 A 
ATOM     15  F   UNL     1      -3.618  11.862  24.363  0.00  0.00    +0.000 F 
ATOM     16  C   UNL     1      -1.686  11.263  23.165  0.00  0.00    +0.000 A 
ATOM     17  C   UNL     1      -0.606  11.633  22.368  0.00  0.00    +0.000 A 
ENDBRANCH   5  11
BRANCH   1  20
ATOM     18  O   UNL     1       0.246  10.501  19.111  0.00  0.00    +0.000 OA
ATOM     19  C   UNL     1      -0.545  11.314  18.656  0.00  0.00    +0.000 C 
ATOM     20  N   UNL     1      -0.377  12.709  18.938  0.00  0.00    +0.000 N 
ATOM     21  H   UNL     1      -1.142  13.340  18.710  0.00  0.00    +0.000 HD
BRANCH  19  22
ATOM     22  C   UNL     1      -1.737  11.012  17.913  0.00  0.00    +0.000 A 
ATOM     23  C   UNL     1      -1.976  10.067  16.934  0.00  0.00    +0.000 A 
ATOM     24  C   UNL     1      -3.315  10.249  16.512  0.00  0.00    +0.000 A 
ATOM     25  C   UNL     1      -3.817  11.287  17.265  0.00  0.00    +0.000 A 
ATOM     26 BR   UNL     1      -5.536  11.991  17.101  0.00  0.00    +0.000 Br
ATOM     27  O   UNL     1      -2.876  11.738  18.142  0.00  0.00    +0.000 OA
ENDBRANCH  19  22
ENDBRANCH   1  20
TORSDOF 3
ENDMDL
MODEL 8
REMARK VINA RESULT:      -7.0      5.934      9.791
REMARK  Name = 
REMARK  3 active torsions:
REMARK  status: ('A' for Active; 'I' for Inactive)
REMARK    1  A    between atoms: C_2  and  C_21
REMARK    2  A    between atoms: N_3  and  C_4
REMARK    3  A    between atoms: N_8  and  C_9
REMARK                            x       y       z     vdW  Elec       q    Type
REMARK                         _______ _______ _______ _____ _____    ______ ____
ROOT
ATOM      1  C   UNL     1      -1.034  11.714  19.782  0.00  0.00    +0.000 A 
ATOM      2  C   UNL     1      -1.013  12.480  20.917  0.00  0.00    +0.000 A 
ATOM      3  C   UNL     1      -2.211  13.210  20.891  0.00  0.00    +0.000 A 
ATOM      4  N   UNL     1      -2.946  12.973  19.808  0.00  0.00    +0.000 NA
ATOM      5  N   UNL     1      -2.254  11.991  19.151  0.00  0.00    +0.000 N 
ATOM      6  C   UNL     1      -2.447  14.197  21.971  0.00  0.00    +0.000 C 
ATOM      7  S   UNL     1      -0.792  14.312  22.736  0.00  0.00    +0.000 S 
ATOM      8  O   UNL     1      -0.109  15.464  22.181  0.00  0.00    +0.000 OA
ATOM      9  O   UNL     1      -0.910  14.113  24.166  0.00  0.00    +0.000 OA
ATOM     10  C   UNL     1      -0.059  12.815  21.993  0.00  0.00    +0.000 C 
ENDROOT
BRANCH   5  11
ATOM     11  C   UNL     1      -2.766  11.368  17.982  0.00  0.00    +0.000 A 
ATOM     12  C   UNL     1      -4.063  11.668  17.542  0.00  0.00    +0.000 A 
ATOM     13  C   UNL     1      -4.519  11.141  16.330  0.00  0.00    +0.000 A 
ATOM     14  C   UNL     1      -3.702  10.294  15.589  0.00  0.00    +0.000 A 
ATOM     15  F   UNL     1      -4.128   9.814  14.416  0.00  0.00    +0.000 F 
ATOM     16  C   UNL     1      -2.444   9.935  16.052  0.00  0.00    +0.000 A 
ATOM     17  C   UNL     1      -1.972  10.464  17.251  0.00  0.00    +0.000 A 
ENDBRANCH   5  11
BRANCH   1  20
ATOM     18  O   UNL     1      -0.313   9.306  20.912  0.00  0.00    +0.000 OA
ATOM     19  C   UNL     1       0.321   9.675  19.934  0.00  0.00    +0.000 C 
ATOM     20  N   UNL     1       0.008  10.926  19.309  0.00  0.00    +0.000 N 
ATOM     21  H   UNL     1       0.415  11.122  18.398  0.00  0.00    +0.000 HD
BRANCH  19  22
ATOM     22  C   UNL     1       1.331   8.920  19.245  0.00  0.00    +0.000 A 
ATOM     23  C   UNL     1       1.919   9.115  18.009  0.00  0.00    +0.000 A 
ATOM     24  C   UNL     1       2.815   8.037  17.812  0.00  0.00    +0.000 A 
ATOM     25  C   UNL     1       2.730   7.255  18.942  0.00  0.00    +0.000 A 
ATOM     26 BR   UNL     1       3.666   5.665  19.213  0.00  0.00    +0.000 Br
ATOM     27  O   UNL     1       1.854   7.799  19.834  0.00  0.00    +0.000 OA
ENDBRANCH  19  22
ENDBRANCH   1  20
TORSDOF 3
ENDMDL
MODEL 9
REMARK VINA RESULT:      -7.0      9.227     11.682
REMARK  Name = 
REMARK  3 active torsions:
REMARK  status: ('A' for Active; 'I' for Inactive)
REMARK    1  A    between atoms: C_2  and  C_21
REMARK    2  A    between atoms: N_3  and  C_4
REMARK    3  A    between atoms: N_8  and  C_9
REMARK                            x       y       z     vdW  Elec       q    Type
REMARK                         _______ _______ _______ _____ _____    ______ ____
ROOT
ATOM      1  C   UNL     1      -4.327  12.570  19.893  0.00  0.00    +0.000 A 
ATOM      2  C   UNL     1      -5.223  12.688  20.922  0.00  0.00    +0.000 A 
ATOM      3  C   UNL     1      -6.290  11.843  20.580  0.00  0.00    +0.000 A 
ATOM      4  N   UNL     1      -6.128  11.245  19.402  0.00  0.00    +0.000 NA
ATOM      5  N   UNL     1      -4.878  11.637  19.004  0.00  0.00    +0.000 N 
ATOM      6  C   UNL     1      -7.467  11.811  21.480  0.00  0.00    +0.000 C 
ATOM      7  S   UNL     1      -7.159  13.263  22.544  0.00  0.00    +0.000 S 
ATOM      8  O   UNL     1      -7.912  14.386  22.019  0.00  0.00    +0.000 OA
ATOM      9  O   UNL     1      -7.254  12.867  23.934  0.00  0.00    +0.000 OA
ATOM     10  C   UNL     1      -5.402  13.523  22.126  0.00  0.00    +0.000 C 
ENDROOT
BRANCH   5  11
ATOM     11  C   UNL     1      -4.271  11.121  17.829  0.00  0.00    +0.000 A 
ATOM     12  C   UNL     1      -4.675  11.587  16.571  0.00  0.00    +0.000 A 
ATOM     13  C   UNL     1      -3.995  11.161  15.426  0.00  0.00    +0.000 A 
ATOM     14  C   UNL     1      -2.951  10.250  15.537  0.00  0.00    +0.000 A 
ATOM     15  F   UNL     1      -2.283   9.865  14.444  0.00  0.00    +0.000 F 
ATOM     16  C   UNL     1      -2.591   9.728  16.771  0.00  0.00    +0.000 A 
ATOM     17  C   UNL     1      -3.251  10.155  17.921  0.00  0.00    +0.000 A 
ENDBRANCH   5  11
BRANCH   1  20
ATOM     18  O   UNL     1      -1.837  11.756  20.750  0.00  0.00    +0.000 OA
ATOM     19  C   UNL     1      -1.905  12.835  20.180  0.00  0.00    +0.000 C 
ATOM     20  N   UNL     1      -3.173  13.324  19.724  0.00  0.00    +0.000 N 
ATOM     21  H   UNL     1      -3.180  14.123  19.095  0.00  0.00    +0.000 HD
BRANCH  19  22
ATOM     22  C   UNL     1      -0.795  13.669  19.810  0.00  0.00    +0.000 A 
ATOM     23  C   UNL     1      -0.663  15.045  19.800  0.00  0.00    +0.000 A 
ATOM     24  C   UNL     1       0.629  15.324  19.295  0.00  0.00    +0.000 A 
ATOM     25  C   UNL     1       1.214  14.105  19.036  0.00  0.00    +0.000 A 
ATOM     26 BR   UNL     1       2.914  13.867  18.309  0.00  0.00    +0.000 Br
ATOM     27  O   UNL     1       0.368  13.090  19.375  0.00  0.00    +0.000 OA
ENDBRANCH  19  22
ENDBRANCH   1  20
TORSDOF 3
ENDMDL
