MODEL 1
REMARK VINA RESULT:      -7.6      0.000      0.000
REMARK  Name = 
REMARK  2 active torsions:
REMARK  status: ('A' for Active; 'I' for Inactive)
REMARK    1  A    between atoms: C_1  and  N_2
REMARK    2  A    between atoms: C_7  and  C_8
REMARK                            x       y       z     vdW  Elec       q    Type
REMARK                         _______ _______ _______ _____ _____    ______ ____
ROOT
ATOM      1  C   UNL     1       3.295   5.545  18.695  0.00  0.00    +0.000 A 
ATOM      2  C   UNL     1       4.406   6.099  18.023  0.00  0.00    +0.000 A 
ATOM      3  C   UNL     1       5.161   5.309  17.131  0.00  0.00    +0.000 A 
ATOM      4  C   UNL     1       6.281   5.552  16.291  0.00  0.00    +0.000 A 
ATOM      5  C   UNL     1       6.583   4.375  15.643  0.00  0.00    +0.000 A 
ATOM      6  N   UNL     1       5.713   3.415  16.089  0.00  0.00    +0.000 N 
ATOM      7  C   UNL     1       4.810   3.973  16.965  0.00  0.00    +0.000 A 
ATOM      8  C   UNL     1       3.711   3.405  17.610  0.00  0.00    +0.000 A 
ATOM      9  F   UNL     1       3.418   2.112  17.406  0.00  0.00    +0.000 F 
ATOM     10  C   UNL     1       2.933   4.209  18.451  0.00  0.00    +0.000 A 
ATOM     11 BR   UNL     1       1.364   3.450  19.213  0.00  0.00    +0.000 Br
ATOM     12  H   UNL     1       5.707   2.444  15.802  0.00  0.00    +0.000 HD
ENDROOT
BRANCH   1  19
ATOM     13  C   UNL     1       0.337  10.682  20.529  0.00  0.00    +0.000 C 
ATOM     14  N   UNL     1       1.068   9.662  19.813  0.00  0.00    +0.000 N 
ATOM     15  C   UNL     1       1.601   9.908  18.581  0.00  0.00    +0.000 C 
ATOM     16  O   UNL     1       1.703  10.981  18.012  0.00  0.00    +0.000 OA
ATOM     17  S   UNL     1       2.205   8.413  17.895  0.00  0.00    +0.000 S 
ATOM     18  C   UNL     1       2.119   7.600  19.413  0.00  0.00    +0.000 C 
ATOM     19  C   UNL     1       2.637   6.398  19.704  0.00  0.00    +0.000 C 
ATOM     20  C   UNL     1       1.387   8.454  20.399  0.00  0.00    +0.000 C 
ATOM     21  O   UNL     1       1.127   8.113  21.538  0.00  0.00    +0.000 OA
ENDBRANCH   1  19
TORSDOF 1
ENDMDL
MODEL 2
REMARK VINA RESULT:      -7.4      2.086      3.221
REMARK  Name = 
REMARK  2 active torsions:
REMARK  status: ('A' for Active; 'I' for Inactive)
REMARK    1  A    between atoms: C_1  and  N_2
REMARK    2  A    between atoms: C_7  and  C_8
REMARK                            x       y       z     vdW  Elec       q    Type
REMARK                         _______ _______ _______ _____ _____    ______ ____
ROOT
ATOM      1  C   UNL     1       3.315   6.118  17.765  0.00  0.00    +0.000 A 
ATOM      2  C   UNL     1       2.366   5.118  18.066  0.00  0.00    +0.000 A 
ATOM      3  C   UNL     1       2.755   3.764  18.118  0.00  0.00    +0.000 A 
ATOM      4  C   UNL     1       2.084   2.545  18.415  0.00  0.00    +0.000 A 
ATOM      5  C   UNL     1       3.000   1.523  18.300  0.00  0.00    +0.000 A 
ATOM      6  N   UNL     1       4.192   2.070  17.903  0.00  0.00    +0.000 N 
ATOM      7  C   UNL     1       4.077   3.439  17.828  0.00  0.00    +0.000 A 
ATOM      8  C   UNL     1       5.036   4.410  17.538  0.00  0.00    +0.000 A 
ATOM      9  F   UNL     1       6.296   4.038  17.272  0.00  0.00    +0.000 F 
ATOM     10  C   UNL     1       4.655   5.757  17.543  0.00  0.00    +0.000 A 
ATOM     11 BR   UNL     1       6.006   7.069  17.278  0.00  0.00    +0.000 Br
ATOM     12  H   UNL     1       5.045   1.557  17.719  0.00  0.00    +0.000 HD
ENDROOT
BRANCH   1  19
ATOM     13  C   UNL     1       0.569  11.283  19.836  0.00  0.00    +0.000 C 
ATOM     14  N   UNL     1       1.107   9.954  19.654  0.00  0.00    +0.000 N 
ATOM     15  C   UNL     1       0.874   8.966  20.567  0.00  0.00    +0.000 C 
ATOM     16  O   UNL     1       0.093   8.983  21.502  0.00  0.00    +0.000 OA
ATOM     17  S   UNL     1       1.854   7.567  20.178  0.00  0.00    +0.000 S 
ATOM     18  C   UNL     1       2.215   8.170  18.604  0.00  0.00    +0.000 C 
ATOM     19  C   UNL     1       2.802   7.493  17.607  0.00  0.00    +0.000 C 
ATOM     20  C   UNL     1       1.749   9.587  18.490  0.00  0.00    +0.000 C 
ATOM     21  O   UNL     1       1.921  10.285  17.508  0.00  0.00    +0.000 OA
ENDBRANCH   1  19
TORSDOF 1
ENDMDL
MODEL 3
REMARK VINA RESULT:      -7.1      1.532      2.255
REMARK  Name = 
REMARK  2 active torsions:
REMARK  status: ('A' for Active; 'I' for Inactive)
REMARK    1  A    between atoms: C_1  and  N_2
REMARK    2  A    between atoms: C_7  and  C_8
REMARK                            x       y       z     vdW  Elec       q    Type
REMARK                         _______ _______ _______ _____ _____    ______ ____
ROOT
ATOM      1  C   UNL     1       3.539   6.619  17.708  0.00  0.00    +0.000 A 
ATOM      2  C   UNL     1       4.894   7.010  17.656  0.00  0.00    +0.000 A 
ATOM      3  C   UNL     1       5.915   6.051  17.819  0.00  0.00    +0.000 A 
ATOM      4  C   UNL     1       7.336   6.094  17.790  0.00  0.00    +0.000 A 
ATOM      5  C   UNL     1       7.799   4.818  18.022  0.00  0.00    +0.000 A 
ATOM      6  N   UNL     1       6.714   4.009  18.233  0.00  0.00    +0.000 N 
ATOM      7  C   UNL     1       5.554   4.730  18.071  0.00  0.00    +0.000 A 
ATOM      8  C   UNL     1       4.222   4.318  18.117  0.00  0.00    +0.000 A 
ATOM      9  F   UNL     1       3.934   3.031  18.359  0.00  0.00    +0.000 F 
ATOM     10  C   UNL     1       3.214   5.266  17.898  0.00  0.00    +0.000 A 
ATOM     11 BR   UNL     1       1.413   4.656  17.833  0.00  0.00    +0.000 Br
ATOM     12  H   UNL     1       6.747   3.020  18.447  0.00  0.00    +0.000 HD
ENDROOT
BRANCH   1  19
ATOM     13  C   UNL     1      -0.477  10.589  20.282  0.00  0.00    +0.000 C 
ATOM     14  N   UNL     1       0.469   9.534  19.998  0.00  0.00    +0.000 N 
ATOM     15  C   UNL     1       0.793   8.602  20.941  0.00  0.00    +0.000 C 
ATOM     16  O   UNL     1       0.252   8.408  22.015  0.00  0.00    +0.000 OA
ATOM     17  S   UNL     1       2.128   7.625  20.364  0.00  0.00    +0.000 S 
ATOM     18  C   UNL     1       1.938   8.194  18.748  0.00  0.00    +0.000 C 
ATOM     19  C   UNL     1       2.535   7.700  17.654  0.00  0.00    +0.000 C 
ATOM     20  C   UNL     1       0.970   9.335  18.728  0.00  0.00    +0.000 C 
ATOM     21  O   UNL     1       0.684   9.970  17.730  0.00  0.00    +0.000 OA
ENDBRANCH   1  19
TORSDOF 1
ENDMDL
MODEL 4
REMARK VINA RESULT:      -7.1      2.382      3.452
REMARK  Name = 
REMARK  2 active torsions:
REMARK  status: ('A' for Active; 'I' for Inactive)
REMARK    1  A    between atoms: C_1  and  N_2
REMARK    2  A    between atoms: C_7  and  C_8
REMARK                            x       y       z     vdW  Elec       q    Type
REMARK                         _______ _______ _______ _____ _____    ______ ____
ROOT
ATOM      1  C   UNL     1       3.634   6.131  18.536  0.00  0.00    +0.000 A 
ATOM      2  C   UNL     1       2.892   5.228  19.327  0.00  0.00    +0.000 A 
ATOM      3  C   UNL     1       3.454   3.991  19.707  0.00  0.00    +0.000 A 
ATOM      4  C   UNL     1       3.012   2.899  20.502  0.00  0.00    +0.000 A 
ATOM      5  C   UNL     1       4.013   1.953  20.510  0.00  0.00    +0.000 A 
ATOM      6  N   UNL     1       5.031   2.412  19.717  0.00  0.00    +0.000 N 
ATOM      7  C   UNL     1       4.730   3.672  19.251  0.00  0.00    +0.000 A 
ATOM      8  C   UNL     1       5.486   4.552  18.477  0.00  0.00    +0.000 A 
ATOM      9  F   UNL     1       6.713   4.191  18.071  0.00  0.00    +0.000 F 
ATOM     10  C   UNL     1       4.944   5.800  18.151  0.00  0.00    +0.000 A 
ATOM     11 BR   UNL     1       6.044   7.034  17.209  0.00  0.00    +0.000 Br
ATOM     12  H   UNL     1       5.893   1.921  19.519  0.00  0.00    +0.000 HD
ENDROOT
BRANCH   1  19
ATOM     13  C   UNL     1      -0.013  11.078  19.390  0.00  0.00    +0.000 C 
ATOM     14  N   UNL     1       0.734   9.847  19.507  0.00  0.00    +0.000 N 
ATOM     15  C   UNL     1       0.590   9.033  20.593  0.00  0.00    +0.000 C 
ATOM     16  O   UNL     1      -0.250   9.104  21.473  0.00  0.00    +0.000 OA
ATOM     17  S   UNL     1       1.798   7.766  20.540  0.00  0.00    +0.000 S 
ATOM     18  C   UNL     1       2.175   8.098  18.890  0.00  0.00    +0.000 C 
ATOM     19  C   UNL     1       2.929   7.344  18.078  0.00  0.00    +0.000 C 
ATOM     20  C   UNL     1       1.507   9.369  18.469  0.00  0.00    +0.000 C 
ATOM     21  O   UNL     1       1.640   9.879  17.372  0.00  0.00    +0.000 OA
ENDBRANCH   1  19
TORSDOF 1
ENDMDL
MODEL 5
REMARK VINA RESULT:      -7.0      4.118      6.500
REMARK  Name = 
REMARK  2 active torsions:
REMARK  status: ('A' for Active; 'I' for Inactive)
REMARK    1  A    between atoms: C_1  and  N_2
REMARK    2  A    between atoms: C_7  and  C_8
REMARK                            x       y       z     vdW  Elec       q    Type
REMARK                         _______ _______ _______ _____ _____    ______ ____
ROOT
ATOM      1  C   UNL     1       4.458   5.209  18.680  0.00  0.00    +0.000 A 
ATOM      2  C   UNL     1       4.515   3.948  19.311  0.00  0.00    +0.000 A 
ATOM      3  C   UNL     1       3.483   3.544  20.183  0.00  0.00    +0.000 A 
ATOM      4  C   UNL     1       3.217   2.366  20.933  0.00  0.00    +0.000 A 
ATOM      5  C   UNL     1       2.035   2.559  21.614  0.00  0.00    +0.000 A 
ATOM      6  N   UNL     1       1.595   3.827  21.338  0.00  0.00    +0.000 N 
ATOM      7  C   UNL     1       2.439   4.430  20.434  0.00  0.00    +0.000 A 
ATOM      8  C   UNL     1       2.355   5.677  19.814  0.00  0.00    +0.000 A 
ATOM      9  F   UNL     1       1.322   6.486  20.092  0.00  0.00    +0.000 F 
ATOM     10  C   UNL     1       3.354   6.048  18.907  0.00  0.00    +0.000 A 
ATOM     11 BR   UNL     1       3.148   7.694  17.976  0.00  0.00    +0.000 Br
ATOM     12  H   UNL     1       0.758   4.256  21.713  0.00  0.00    +0.000 HD
ENDROOT
BRANCH   1  19
ATOM     13  C   UNL     1       7.841   5.351  13.480  0.00  0.00    +0.000 C 
ATOM     14  N   UNL     1       6.869   5.089  14.517  0.00  0.00    +0.000 N 
ATOM     15  C   UNL     1       5.921   4.118  14.368  0.00  0.00    +0.000 C 
ATOM     16  O   UNL     1       5.857   3.264  13.502  0.00  0.00    +0.000 OA
ATOM     17  S   UNL     1       4.767   4.221  15.682  0.00  0.00    +0.000 S 
ATOM     18  C   UNL     1       5.798   5.254  16.600  0.00  0.00    +0.000 C 
ATOM     19  C   UNL     1       5.635   5.606  17.883  0.00  0.00    +0.000 C 
ATOM     20  C   UNL     1       6.947   5.700  15.751  0.00  0.00    +0.000 C 
ATOM     21  O   UNL     1       7.805   6.481  16.119  0.00  0.00    +0.000 OA
ENDBRANCH   1  19
TORSDOF 1
ENDMDL
MODEL 6
REMARK VINA RESULT:      -7.0      2.512      3.757
REMARK  Name = 
REMARK  2 active torsions:
REMARK  status: ('A' for Active; 'I' for Inactive)
REMARK    1  A    between atoms: C_1  and  N_2
REMARK    2  A    between atoms: C_7  and  C_8
REMARK                            x       y       z     vdW  Elec       q    Type
REMARK                         _______ _______ _______ _____ _____    ______ ____
ROOT
ATOM      1  C   UNL     1       2.951   6.257  18.982  0.00  0.00    +0.000 A 
ATOM      2  C   UNL     1       2.062   5.659  19.900  0.00  0.00    +0.000 A 
ATOM      3  C   UNL     1       2.344   4.384  20.431  0.00  0.00    +0.000 A 
ATOM      4  C   UNL     1       1.703   3.533  21.374  0.00  0.00    +0.000 A 
ATOM      5  C   UNL     1       2.460   2.389  21.490  0.00  0.00    +0.000 A 
ATOM      6  N   UNL     1       3.515   2.494  20.622  0.00  0.00    +0.000 N 
ATOM      7  C   UNL     1       3.489   3.720  19.999  0.00  0.00    +0.000 A 
ATOM      8  C   UNL     1       4.387   4.295  19.099  0.00  0.00    +0.000 A 
ATOM      9  F   UNL     1       5.477   3.609  18.722  0.00  0.00    +0.000 F 
ATOM     10  C   UNL     1       4.130   5.584  18.619  0.00  0.00    +0.000 A 
ATOM     11 BR   UNL     1       5.435   6.398  17.500  0.00  0.00    +0.000 Br
ATOM     12  H   UNL     1       4.232   1.794  20.475  0.00  0.00    +0.000 HD
ENDROOT
BRANCH   1  19
ATOM     13  C   UNL     1       0.314  11.871  19.181  0.00  0.00    +0.000 C 
ATOM     14  N   UNL     1       0.798  10.536  19.449  0.00  0.00    +0.000 N 
ATOM     15  C   UNL     1       0.446   9.872  20.588  0.00  0.00    +0.000 C 
ATOM     16  O   UNL     1      -0.404  10.186  21.402  0.00  0.00    +0.000 OA
ATOM     17  S   UNL     1       1.381   8.397  20.719  0.00  0.00    +0.000 S 
ATOM     18  C   UNL     1       1.893   8.492  19.075  0.00  0.00    +0.000 C 
ATOM     19  C   UNL     1       2.521   7.534  18.379  0.00  0.00    +0.000 C 
ATOM     20  C   UNL     1       1.509   9.822  18.506  0.00  0.00    +0.000 C 
ATOM     21  O   UNL     1       1.791  10.191  17.381  0.00  0.00    +0.000 OA
ENDBRANCH   1  19
TORSDOF 1
ENDMDL
MODEL 7
REMARK VINA RESULT:      -6.9      3.244      6.490
REMARK  Name = 
REMARK  2 active torsions:
REMARK  status: ('A' for Active; 'I' for Inactive)
REMARK    1  A    between atoms: C_1  and  N_2
REMARK    2  A    between atoms: C_7  and  C_8
REMARK                            x       y       z     vdW  Elec       q    Type
REMARK                         _______ _______ _______ _____ _____    ______ ____
ROOT
ATOM      1  C   UNL     1       2.425   7.032  18.559  0.00  0.00    +0.000 A 
ATOM      2  C   UNL     1       2.291   8.283  17.918  0.00  0.00    +0.000 A 
ATOM      3  C   UNL     1       1.734   9.378  18.610  0.00  0.00    +0.000 A 
ATOM      4  C   UNL     1       1.494  10.742  18.286  0.00  0.00    +0.000 A 
ATOM      5  C   UNL     1       0.913  11.337  19.384  0.00  0.00    +0.000 A 
ATOM      6  N   UNL     1       0.754  10.377  20.347  0.00  0.00    +0.000 N 
ATOM      7  C   UNL     1       1.287   9.185  19.913  0.00  0.00    +0.000 A 
ATOM      8  C   UNL     1       1.417   7.962  20.572  0.00  0.00    +0.000 A 
ATOM      9  F   UNL     1       0.971   7.837  21.831  0.00  0.00    +0.000 F 
ATOM     10  C   UNL     1       2.021   6.894  19.898  0.00  0.00    +0.000 A 
ATOM     11 BR   UNL     1       2.308   5.279  20.861  0.00  0.00    +0.000 Br
ATOM     12  H   UNL     1       0.335  10.518  21.258  0.00  0.00    +0.000 HD
ENDROOT
BRANCH   1  19
ATOM     13  C   UNL     1       6.805   3.819  15.560  0.00  0.00    +0.000 C 
ATOM     14  N   UNL     1       6.034   4.798  16.293  0.00  0.00    +0.000 N 
ATOM     15  C   UNL     1       6.554   6.022  16.599  0.00  0.00    +0.000 C 
ATOM     16  O   UNL     1       7.586   6.519  16.184  0.00  0.00    +0.000 OA
ATOM     17  S   UNL     1       5.468   6.865  17.684  0.00  0.00    +0.000 S 
ATOM     18  C   UNL     1       4.181   5.763  17.365  0.00  0.00    +0.000 C 
ATOM     19  C   UNL     1       2.899   5.908  17.729  0.00  0.00    +0.000 C 
ATOM     20  C   UNL     1       4.700   4.598  16.583  0.00  0.00    +0.000 C 
ATOM     21  O   UNL     1       4.026   3.636  16.262  0.00  0.00    +0.000 OA
ENDBRANCH   1  19
TORSDOF 1
ENDMDL
MODEL 8
REMARK VINA RESULT:      -6.8      4.046      7.433
REMARK  Name = 
REMARK  2 active torsions:
REMARK  status: ('A' for Active; 'I' for Inactive)
REMARK    1  A    between atoms: C_1  and  N_2
REMARK    2  A    between atoms: C_7  and  C_8
REMARK                            x       y       z     vdW  Elec       q    Type
REMARK                         _______ _______ _______ _____ _____    ______ ____
ROOT
ATOM      1  C   UNL     1       1.747   8.095  20.294  0.00  0.00    +0.000 A 
ATOM      2  C   UNL     1       1.325   8.146  21.640  0.00  0.00    +0.000 A 
ATOM      3  C   UNL     1       0.423   9.144  22.063  0.00  0.00    +0.000 A 
ATOM      4  C   UNL     1      -0.212   9.454  23.297  0.00  0.00    +0.000 A 
ATOM      5  C   UNL     1      -0.999  10.566  23.096  0.00  0.00    +0.000 A 
ATOM      6  N   UNL     1      -0.833  10.969  21.797  0.00  0.00    +0.000 N 
ATOM      7  C   UNL     1      -0.004  10.091  21.137  0.00  0.00    +0.000 A 
ATOM      8  C   UNL     1       0.390  10.055  19.799  0.00  0.00    +0.000 A 
ATOM      9  F   UNL     1      -0.059  10.992  18.951  0.00  0.00    +0.000 F 
ATOM     10  C   UNL     1       1.242   9.029  19.374  0.00  0.00    +0.000 A 
ATOM     11 BR   UNL     1       1.657   8.922  17.521  0.00  0.00    +0.000 Br
ATOM     12  H   UNL     1      -1.273  11.773  21.367  0.00  0.00    +0.000 HD
ENDROOT
BRANCH   1  19
ATOM     13  C   UNL     1       3.813   2.303  19.463  0.00  0.00    +0.000 C 
ATOM     14  N   UNL     1       3.057   3.492  19.781  0.00  0.00    +0.000 N 
ATOM     15  C   UNL     1       1.862   3.416  20.437  0.00  0.00    +0.000 C 
ATOM     16  O   UNL     1       1.370   2.443  20.979  0.00  0.00    +0.000 OA
ATOM     17  S   UNL     1       1.100   4.994  20.451  0.00  0.00    +0.000 S 
ATOM     18  C   UNL     1       2.558   5.779  19.970  0.00  0.00    +0.000 C 
ATOM     19  C   UNL     1       2.786   7.100  19.962  0.00  0.00    +0.000 C 
ATOM     20  C   UNL     1       3.572   4.755  19.571  0.00  0.00    +0.000 C 
ATOM     21  O   UNL     1       4.677   5.021  19.134  0.00  0.00    +0.000 OA
ENDBRANCH   1  19
TORSDOF 1
ENDMDL
MODEL 9
REMARK VINA RESULT:      -6.8      3.905      6.933
REMARK  Name = 
REMARK  2 active torsions:
REMARK  status: ('A' for Active; 'I' for Inactive)
REMARK    1  A    between atoms: C_1  and  N_2
REMARK    2  A    between atoms: C_7  and  C_8
REMARK                            x       y       z     vdW  Elec       q    Type
REMARK                         _______ _______ _______ _____ _____    ______ ____
ROOT
ATOM      1  C   UNL     1       2.473   7.008  19.678  0.00  0.00    +0.000 A 
ATOM      2  C   UNL     1       1.665   7.284  20.801  0.00  0.00    +0.000 A 
ATOM      3  C   UNL     1       0.900   8.468  20.851  0.00  0.00    +0.000 A 
ATOM      4  C   UNL     1      -0.017   9.022  21.785  0.00  0.00    +0.000 A 
ATOM      5  C   UNL     1      -0.452  10.228  21.281  0.00  0.00    +0.000 A 
ATOM      6  N   UNL     1       0.199  10.447  20.096  0.00  0.00    +0.000 N 
ATOM      7  C   UNL     1       0.996   9.367  19.793  0.00  0.00    +0.000 A 
ATOM      8  C   UNL     1       1.779   9.111  18.667  0.00  0.00    +0.000 A 
ATOM      9  F   UNL     1       1.828  10.013  17.675  0.00  0.00    +0.000 F 
ATOM     10  C   UNL     1       2.492   7.908  18.600  0.00  0.00    +0.000 A 
ATOM     11 BR   UNL     1       3.446   7.523  17.000  0.00  0.00    +0.000 Br
ATOM     12  H   UNL     1       0.095  11.263  19.506  0.00  0.00    +0.000 HD
ENDROOT
BRANCH   1  19
ATOM     13  C   UNL     1       3.812   1.051  18.566  0.00  0.00    +0.000 C 
ATOM     14  N   UNL     1       3.194   2.350  18.704  0.00  0.00    +0.000 N 
ATOM     15  C   UNL     1       1.866   2.532  18.447  0.00  0.00    +0.000 C 
ATOM     16  O   UNL     1       1.018   1.676  18.259  0.00  0.00    +0.000 OA
ATOM     17  S   UNL     1       1.492   4.243  18.473  0.00  0.00    +0.000 S 
ATOM     18  C   UNL     1       2.992   4.630  19.231  0.00  0.00    +0.000 C 
ATOM     19  C   UNL     1       3.336   5.813  19.759  0.00  0.00    +0.000 C 
ATOM     20  C   UNL     1       3.877   3.423  19.239  0.00  0.00    +0.000 C 
ATOM     21  O   UNL     1       5.018   3.416  19.660  0.00  0.00    +0.000 OA
ENDBRANCH   1  19
TORSDOF 1
ENDMDL
