MODEL 1
REMARK VINA RESULT:      -7.9      0.000      0.000
REMARK  Name = 
REMARK  6 active torsions:
REMARK  status: ('A' for Active; 'I' for Inactive)
REMARK    1  A    between atoms: C_1  and  N_2
REMARK    2  A    between atoms: N_2  and  C_19
REMARK    3  A    between atoms: C_3  and  C_5
REMARK    4  A    between atoms: C_5  and  O_6
REMARK    5  A    between atoms: O_6  and  C_7
REMARK    6  A    between atoms: C_7  and  C_9
REMARK                            x       y       z     vdW  Elec       q    Type
REMARK                         _______ _______ _______ _____ _____    ______ ____
ROOT
ATOM      1  O   UNL     1       8.445   7.748  18.594  0.00  0.00    +0.000 OA
ENDROOT
BRANCH   1   2
ATOM      2  C   UNL     1       8.116   8.916  17.994  0.00  0.00    +0.000 C 
ATOM      3  O   UNL     1       7.166   9.091  17.248  0.00  0.00    +0.000 OA
BRANCH   2   4
ATOM      4  C   UNL     1       8.967  10.021  18.540  0.00  0.00    +0.000 A 
ATOM      5  C   UNL     1       9.078  10.158  19.917  0.00  0.00    +0.000 A 
ATOM      6  C   UNL     1       9.965  11.107  20.413  0.00  0.00    +0.000 A 
ATOM      7  C   UNL     1      10.712  11.895  19.528  0.00  0.00    +0.000 A 
ATOM      8  C   UNL     1      11.609  12.875  19.987  0.00  0.00    +0.000 A 
ATOM      9  C   UNL     1      12.332  13.649  19.082  0.00  0.00    +0.000 A 
ATOM     10  C   UNL     1      12.168  13.442  17.717  0.00  0.00    +0.000 A 
ATOM     11  C   UNL     1      11.281  12.461  17.264  0.00  0.00    +0.000 A 
ATOM     12  C   UNL     1      10.540  11.682  18.143  0.00  0.00    +0.000 A 
ATOM     13  N   UNL     1       9.694  10.759  17.656  0.00  0.00    +0.000 NA
ENDBRANCH   2   4
ENDBRANCH   1   2
BRANCH   1  14
ATOM     14  C   UNL     1       7.831   6.599  18.019  0.00  0.00    +0.000 C 
BRANCH  14  17
ATOM     15  C   UNL     1       5.008   6.101  17.289  0.00  0.00    +0.000 C 
ATOM     16  N   UNL     1       5.577   5.566  18.525  0.00  0.00    +0.000 N 
ATOM     17  C   UNL     1       6.900   5.809  18.950  0.00  0.00    +0.000 C 
ATOM     18  O   UNL     1       7.299   5.392  20.040  0.00  0.00    +0.000 OA
BRANCH  16  19
ATOM     19  C   UNL     1       4.691   4.878  19.497  0.00  0.00    +0.000 C 
ATOM     20  C   UNL     1       4.568   3.348  19.362  0.00  0.00    +0.000 C 
ATOM     21  C   UNL     1       3.403   3.043  18.439  0.00  0.00    +0.000 C 
ATOM     22  S   UNL     1       2.174   4.257  18.849  0.00  0.00    +0.000 S 
ATOM     23  O   UNL     1       1.354   3.721  19.911  0.00  0.00    +0.000 OA
ATOM     24  O   UNL     1       1.605   4.762  17.614  0.00  0.00    +0.000 OA
ATOM     25  C   UNL     1       3.275   5.477  19.533  0.00  0.00    +0.000 C 
ENDBRANCH  16  19
ENDBRANCH  14  17
ENDBRANCH   1  14
TORSDOF 5
ENDMDL
MODEL 2
REMARK VINA RESULT:      -7.7      5.630      7.763
REMARK  Name = 
REMARK  6 active torsions:
REMARK  status: ('A' for Active; 'I' for Inactive)
REMARK    1  A    between atoms: C_1  and  N_2
REMARK    2  A    between atoms: N_2  and  C_19
REMARK    3  A    between atoms: C_3  and  C_5
REMARK    4  A    between atoms: C_5  and  O_6
REMARK    5  A    between atoms: O_6  and  C_7
REMARK    6  A    between atoms: C_7  and  C_9
REMARK                            x       y       z     vdW  Elec       q    Type
REMARK                         _______ _______ _______ _____ _____    ______ ____
ROOT
ATOM      1  O   UNL     1       3.240   3.897  20.657  0.00  0.00    +0.000 OA
ENDROOT
BRANCH   1   2
ATOM      2  C   UNL     1       2.155   4.187  19.900  0.00  0.00    +0.000 C 
ATOM      3  O   UNL     1       1.277   3.401  19.583  0.00  0.00    +0.000 OA
BRANCH   2   4
ATOM      4  C   UNL     1       2.077   5.666  19.676  0.00  0.00    +0.000 A 
ATOM      5  C   UNL     1       2.353   6.163  18.410  0.00  0.00    +0.000 A 
ATOM      6  C   UNL     1       2.159   7.521  18.181  0.00  0.00    +0.000 A 
ATOM      7  C   UNL     1       1.701   8.346  19.217  0.00  0.00    +0.000 A 
ATOM      8  C   UNL     1       1.504   9.725  19.032  0.00  0.00    +0.000 A 
ATOM      9  C   UNL     1       1.055  10.521  20.084  0.00  0.00    +0.000 A 
ATOM     10  C   UNL     1       0.793   9.941  21.320  0.00  0.00    +0.000 A 
ATOM     11  C   UNL     1       0.982   8.567  21.498  0.00  0.00    +0.000 A 
ATOM     12  C   UNL     1       1.438   7.752  20.471  0.00  0.00    +0.000 A 
ATOM     13  N   UNL     1       1.612   6.439  20.697  0.00  0.00    +0.000 NA
ENDBRANCH   2   4
ENDBRANCH   1   2
BRANCH   1  14
ATOM     14  C   UNL     1       4.296   3.258  19.950  0.00  0.00    +0.000 C 
BRANCH  14  17
ATOM     15  C   UNL     1       4.366   3.338  16.994  0.00  0.00    +0.000 C 
ATOM     16  N   UNL     1       5.213   4.219  17.795  0.00  0.00    +0.000 N 
ATOM     17  C   UNL     1       5.258   4.194  19.205  0.00  0.00    +0.000 C 
ATOM     18  O   UNL     1       6.050   4.911  19.823  0.00  0.00    +0.000 OA
BRANCH  16  19
ATOM     19  C   UNL     1       6.224   5.071  17.120  0.00  0.00    +0.000 C 
ATOM     20  C   UNL     1       5.698   6.311  16.371  0.00  0.00    +0.000 C 
ATOM     21  C   UNL     1       5.413   5.915  14.935  0.00  0.00    +0.000 C 
ATOM     22  S   UNL     1       6.721   4.792  14.509  0.00  0.00    +0.000 S 
ATOM     23  O   UNL     1       7.820   5.567  13.982  0.00  0.00    +0.000 OA
ATOM     24  O   UNL     1       6.144   3.677  13.784  0.00  0.00    +0.000 OA
ATOM     25  C   UNL     1       7.125   4.273  16.164  0.00  0.00    +0.000 C 
ENDBRANCH  16  19
ENDBRANCH  14  17
ENDBRANCH   1  14
TORSDOF 5
ENDMDL
MODEL 3
REMARK VINA RESULT:      -7.4      5.435      7.605
REMARK  Name = 
REMARK  6 active torsions:
REMARK  status: ('A' for Active; 'I' for Inactive)
REMARK    1  A    between atoms: C_1  and  N_2
REMARK    2  A    between atoms: N_2  and  C_19
REMARK    3  A    between atoms: C_3  and  C_5
REMARK    4  A    between atoms: C_5  and  O_6
REMARK    5  A    between atoms: O_6  and  C_7
REMARK    6  A    between atoms: C_7  and  C_9
REMARK                            x       y       z     vdW  Elec       q    Type
REMARK                         _______ _______ _______ _____ _____    ______ ____
ROOT
ATOM      1  O   UNL     1       1.689   3.907  19.681  0.00  0.00    +0.000 OA
ENDROOT
BRANCH   1   2
ATOM      2  C   UNL     1       2.038   4.816  20.622  0.00  0.00    +0.000 C 
ATOM      3  O   UNL     1       2.455   4.559  21.740  0.00  0.00    +0.000 OA
BRANCH   2   4
ATOM      4  C   UNL     1       2.037   6.189  20.023  0.00  0.00    +0.000 A 
ATOM      5  C   UNL     1       2.513   6.351  18.729  0.00  0.00    +0.000 A 
ATOM      6  C   UNL     1       2.395   7.604  18.138  0.00  0.00    +0.000 A 
ATOM      7  C   UNL     1       1.814   8.661  18.851  0.00  0.00    +0.000 A 
ATOM      8  C   UNL     1       1.688   9.946  18.297  0.00  0.00    +0.000 A 
ATOM      9  C   UNL     1       1.112  10.979  19.034  0.00  0.00    +0.000 A 
ATOM     10  C   UNL     1       0.653  10.730  20.322  0.00  0.00    +0.000 A 
ATOM     11  C   UNL     1       0.772   9.448  20.868  0.00  0.00    +0.000 A 
ATOM     12  C   UNL     1       1.350   8.402  20.160  0.00  0.00    +0.000 A 
ATOM     13  N   UNL     1       1.450   7.192  20.733  0.00  0.00    +0.000 NA
ENDBRANCH   2   4
ENDBRANCH   1   2
BRANCH   1  14
ATOM     14  C   UNL     1       2.540   2.768  19.620  0.00  0.00    +0.000 C 
BRANCH  14  17
ATOM     15  C   UNL     1       3.136   3.691  16.874  0.00  0.00    +0.000 C 
ATOM     16  N   UNL     1       4.199   3.523  17.863  0.00  0.00    +0.000 N 
ATOM     17  C   UNL     1       3.983   3.042  19.172  0.00  0.00    +0.000 C 
ATOM     18  O   UNL     1       4.931   2.850  19.938  0.00  0.00    +0.000 OA
BRANCH  16  19
ATOM     19  C   UNL     1       5.615   3.685  17.447  0.00  0.00    +0.000 C 
ATOM     20  C   UNL     1       6.429   4.777  18.167  0.00  0.00    +0.000 C 
ATOM     21  C   UNL     1       6.294   6.068  17.381  0.00  0.00    +0.000 C 
ATOM     22  S   UNL     1       6.313   5.563  15.679  0.00  0.00    +0.000 S 
ATOM     23  O   UNL     1       7.687   5.542  15.235  0.00  0.00    +0.000 OA
ATOM     24  O   UNL     1       5.284   6.303  14.974  0.00  0.00    +0.000 OA
ATOM     25  C   UNL     1       5.765   3.887  15.931  0.00  0.00    +0.000 C 
ENDBRANCH  16  19
ENDBRANCH  14  17
ENDBRANCH   1  14
TORSDOF 5
ENDMDL
MODEL 4
REMARK VINA RESULT:      -7.3      6.055      8.557
REMARK  Name = 
REMARK  6 active torsions:
REMARK  status: ('A' for Active; 'I' for Inactive)
REMARK    1  A    between atoms: C_1  and  N_2
REMARK    2  A    between atoms: N_2  and  C_19
REMARK    3  A    between atoms: C_3  and  C_5
REMARK    4  A    between atoms: C_5  and  O_6
REMARK    5  A    between atoms: O_6  and  C_7
REMARK    6  A    between atoms: C_7  and  C_9
REMARK                            x       y       z     vdW  Elec       q    Type
REMARK                         _______ _______ _______ _____ _____    ______ ____
ROOT
ATOM      1  O   UNL     1       1.394   5.703  20.452  0.00  0.00    +0.000 OA
ENDROOT
BRANCH   1   2
ATOM      2  C   UNL     1       2.235   4.663  20.665  0.00  0.00    +0.000 C 
ATOM      3  O   UNL     1       2.225   3.927  21.639  0.00  0.00    +0.000 OA
BRANCH   2   4
ATOM      4  C   UNL     1       3.051   4.413  19.434  0.00  0.00    +0.000 A 
ATOM      5  C   UNL     1       2.400   4.026  18.272  0.00  0.00    +0.000 A 
ATOM      6  C   UNL     1       3.150   3.915  17.105  0.00  0.00    +0.000 A 
ATOM      7  C   UNL     1       4.524   4.186  17.130  0.00  0.00    +0.000 A 
ATOM      8  C   UNL     1       5.321   4.073  15.978  0.00  0.00    +0.000 A 
ATOM      9  C   UNL     1       6.687   4.342  16.035  0.00  0.00    +0.000 A 
ATOM     10  C   UNL     1       7.259   4.732  17.240  0.00  0.00    +0.000 A 
ATOM     11  C   UNL     1       6.462   4.852  18.383  0.00  0.00    +0.000 A 
ATOM     12  C   UNL     1       5.101   4.581  18.357  0.00  0.00    +0.000 A 
ATOM     13  N   UNL     1       4.382   4.701  19.485  0.00  0.00    +0.000 NA
ENDBRANCH   2   4
ENDBRANCH   1   2
BRANCH   1  14
ATOM     14  C   UNL     1       1.955   6.979  20.737  0.00  0.00    +0.000 C 
BRANCH  14  17
ATOM     15  C   UNL     1       0.188   9.329  21.061  0.00  0.00    +0.000 C 
ATOM     16  N   UNL     1       0.995   9.149  19.855  0.00  0.00    +0.000 N 
ATOM     17  C   UNL     1       1.819   8.027  19.623  0.00  0.00    +0.000 C 
ATOM     18  O   UNL     1       2.418   7.896  18.552  0.00  0.00    +0.000 OA
BRANCH  16  19
ATOM     19  C   UNL     1       0.823  10.085  18.716  0.00  0.00    +0.000 C 
ATOM     20  C   UNL     1       1.799  11.275  18.643  0.00  0.00    +0.000 C 
ATOM     21  C   UNL     1       1.185  12.443  19.393  0.00  0.00    +0.000 C 
ATOM     22  S   UNL     1      -0.547  12.360  19.013  0.00  0.00    +0.000 S 
ATOM     23  O   UNL     1      -0.777  13.128  17.812  0.00  0.00    +0.000 OA
ATOM     24  O   UNL     1      -1.292  12.595  20.236  0.00  0.00    +0.000 OA
ATOM     25  C   UNL     1      -0.611  10.628  18.609  0.00  0.00    +0.000 C 
ENDBRANCH  16  19
ENDBRANCH  14  17
ENDBRANCH   1  14
TORSDOF 5
ENDMDL
MODEL 5
REMARK VINA RESULT:      -7.3      4.728      6.778
REMARK  Name = 
REMARK  6 active torsions:
REMARK  status: ('A' for Active; 'I' for Inactive)
REMARK    1  A    between atoms: C_1  and  N_2
REMARK    2  A    between atoms: N_2  and  C_19
REMARK    3  A    between atoms: C_3  and  C_5
REMARK    4  A    between atoms: C_5  and  O_6
REMARK    5  A    between atoms: O_6  and  C_7
REMARK    6  A    between atoms: C_7  and  C_9
REMARK                            x       y       z     vdW  Elec       q    Type
REMARK                         _______ _______ _______ _____ _____    ______ ____
ROOT
ATOM      1  O   UNL     1       7.386   5.349  18.377  0.00  0.00    +0.000 OA
ENDROOT
BRANCH   1   2
ATOM      2  C   UNL     1       7.308   6.119  17.266  0.00  0.00    +0.000 C 
ATOM      3  O   UNL     1       7.617   7.297  17.193  0.00  0.00    +0.000 OA
BRANCH   2   4
ATOM      4  C   UNL     1       6.981   5.263  16.081  0.00  0.00    +0.000 A 
ATOM      5  C   UNL     1       6.006   4.285  16.215  0.00  0.00    +0.000 A 
ATOM      6  C   UNL     1       5.624   3.579  15.079  0.00  0.00    +0.000 A 
ATOM      7  C   UNL     1       6.224   3.862  13.845  0.00  0.00    +0.000 A 
ATOM      8  C   UNL     1       5.877   3.163  12.676  0.00  0.00    +0.000 A 
ATOM      9  C   UNL     1       6.498   3.462  11.465  0.00  0.00    +0.000 A 
ATOM     10  C   UNL     1       7.460   4.464  11.416  0.00  0.00    +0.000 A 
ATOM     11  C   UNL     1       7.797   5.163  12.580  0.00  0.00    +0.000 A 
ATOM     12  C   UNL     1       7.202   4.880  13.802  0.00  0.00    +0.000 A 
ATOM     13  N   UNL     1       7.569   5.574  14.892  0.00  0.00    +0.000 NA
ENDBRANCH   2   4
ENDBRANCH   1   2
BRANCH   1  14
ATOM     14  C   UNL     1       6.465   5.702  19.402  0.00  0.00    +0.000 C 
BRANCH  14  17
ATOM     15  C   UNL     1       4.821   3.268  19.754  0.00  0.00    +0.000 C 
ATOM     16  N   UNL     1       4.241   4.505  19.233  0.00  0.00    +0.000 N 
ATOM     17  C   UNL     1       4.984   5.682  18.999  0.00  0.00    +0.000 C 
ATOM     18  O   UNL     1       4.453   6.670  18.486  0.00  0.00    +0.000 OA
BRANCH  16  19
ATOM     19  C   UNL     1       2.840   4.503  18.743  0.00  0.00    +0.000 C 
ATOM     20  C   UNL     1       1.740   4.780  19.785  0.00  0.00    +0.000 C 
ATOM     21  C   UNL     1       1.291   3.454  20.369  0.00  0.00    +0.000 C 
ATOM     22  S   UNL     1       1.307   2.329  18.995  0.00  0.00    +0.000 S 
ATOM     23  O   UNL     1       0.012   2.384  18.359  0.00  0.00    +0.000 OA
ATOM     24  O   UNL     1       1.899   1.081  19.437  0.00  0.00    +0.000 OA
ATOM     25  C   UNL     1       2.480   3.212  17.988  0.00  0.00    +0.000 C 
ENDBRANCH  16  19
ENDBRANCH  14  17
ENDBRANCH   1  14
TORSDOF 5
ENDMDL
MODEL 6
REMARK VINA RESULT:      -7.2      5.419      8.681
REMARK  Name = 
REMARK  6 active torsions:
REMARK  status: ('A' for Active; 'I' for Inactive)
REMARK    1  A    between atoms: C_1  and  N_2
REMARK    2  A    between atoms: N_2  and  C_19
REMARK    3  A    between atoms: C_3  and  C_5
REMARK    4  A    between atoms: C_5  and  O_6
REMARK    5  A    between atoms: O_6  and  C_7
REMARK    6  A    between atoms: C_7  and  C_9
REMARK                            x       y       z     vdW  Elec       q    Type
REMARK                         _______ _______ _______ _____ _____    ______ ____
ROOT
ATOM      1  O   UNL     1       2.006   7.802  20.286  0.00  0.00    +0.000 OA
ENDROOT
BRANCH   1   2
ATOM      2  C   UNL     1       1.372   8.828  19.671  0.00  0.00    +0.000 C 
ATOM      3  O   UNL     1       1.410   9.076  18.476  0.00  0.00    +0.000 OA
BRANCH   2   4
ATOM      4  C   UNL     1       0.444   9.500  20.636  0.00  0.00    +0.000 A 
ATOM      5  C   UNL     1       0.445   9.083  21.960  0.00  0.00    +0.000 A 
ATOM      6  C   UNL     1      -0.328   9.792  22.872  0.00  0.00    +0.000 A 
ATOM      7  C   UNL     1      -1.083  10.892  22.443  0.00  0.00    +0.000 A 
ATOM      8  C   UNL     1      -1.888  11.628  23.329  0.00  0.00    +0.000 A 
ATOM      9  C   UNL     1      -2.634  12.712  22.870  0.00  0.00    +0.000 A 
ATOM     10  C   UNL     1      -2.571  13.069  21.528  0.00  0.00    +0.000 A 
ATOM     11  C   UNL     1      -1.763  12.339  20.650  0.00  0.00    +0.000 A 
ATOM     12  C   UNL     1      -1.017  11.249  21.078  0.00  0.00    +0.000 A 
ATOM     13  N   UNL     1      -0.264  10.576  20.193  0.00  0.00    +0.000 NA
ENDBRANCH   2   4
ENDBRANCH   1   2
BRANCH   1  14
ATOM     14  C   UNL     1       1.817   6.536  19.662  0.00  0.00    +0.000 C 
BRANCH  14  17
ATOM     15  C   UNL     1       4.000   6.897  17.700  0.00  0.00    +0.000 C 
ATOM     16  N   UNL     1       4.069   5.860  18.727  0.00  0.00    +0.000 N 
ATOM     17  C   UNL     1       3.040   5.609  19.659  0.00  0.00    +0.000 C 
ATOM     18  O   UNL     1       3.124   4.669  20.454  0.00  0.00    +0.000 OA
BRANCH  16  19
ATOM     19  C   UNL     1       5.186   4.882  18.702  0.00  0.00    +0.000 C 
ATOM     20  C   UNL     1       6.453   5.256  19.495  0.00  0.00    +0.000 C 
ATOM     21  C   UNL     1       7.394   6.002  18.568  0.00  0.00    +0.000 C 
ATOM     22  S   UNL     1       7.226   5.182  17.002  0.00  0.00    +0.000 S 
ATOM     23  O   UNL     1       8.184   4.102  16.958  0.00  0.00    +0.000 OA
ATOM     24  O   UNL     1       7.153   6.193  15.965  0.00  0.00    +0.000 OA
ATOM     25  C   UNL     1       5.604   4.499  17.273  0.00  0.00    +0.000 C 
ENDBRANCH  16  19
ENDBRANCH  14  17
ENDBRANCH   1  14
TORSDOF 5
ENDMDL
MODEL 7
REMARK VINA RESULT:      -7.2      6.144      8.609
REMARK  Name = 
REMARK  6 active torsions:
REMARK  status: ('A' for Active; 'I' for Inactive)
REMARK    1  A    between atoms: C_1  and  N_2
REMARK    2  A    between atoms: N_2  and  C_19
REMARK    3  A    between atoms: C_3  and  C_5
REMARK    4  A    between atoms: C_5  and  O_6
REMARK    5  A    between atoms: O_6  and  C_7
REMARK    6  A    between atoms: C_7  and  C_9
REMARK                            x       y       z     vdW  Elec       q    Type
REMARK                         _______ _______ _______ _____ _____    ______ ____
ROOT
ATOM      1  O   UNL     1       1.514   5.964  20.231  0.00  0.00    +0.000 OA
ENDROOT
BRANCH   1   2
ATOM      2  C   UNL     1       2.355   4.951  20.546  0.00  0.00    +0.000 C 
ATOM      3  O   UNL     1       2.334   4.303  21.581  0.00  0.00    +0.000 OA
BRANCH   2   4
ATOM      4  C   UNL     1       3.189   4.597  19.353  0.00  0.00    +0.000 A 
ATOM      5  C   UNL     1       2.553   4.117  18.217  0.00  0.00    +0.000 A 
ATOM      6  C   UNL     1       3.320   3.907  17.075  0.00  0.00    +0.000 A 
ATOM      7  C   UNL     1       4.695   4.175  17.098  0.00  0.00    +0.000 A 
ATOM      8  C   UNL     1       5.508   3.964  15.971  0.00  0.00    +0.000 A 
ATOM      9  C   UNL     1       6.874   4.233  16.027  0.00  0.00    +0.000 A 
ATOM     10  C   UNL     1       7.430   4.720  17.204  0.00  0.00    +0.000 A 
ATOM     11  C   UNL     1       6.617   4.937  18.321  0.00  0.00    +0.000 A 
ATOM     12  C   UNL     1       5.254   4.669  18.297  0.00  0.00    +0.000 A 
ATOM     13  N   UNL     1       4.519   4.885  19.400  0.00  0.00    +0.000 NA
ENDBRANCH   2   4
ENDBRANCH   1   2
BRANCH   1  14
ATOM     14  C   UNL     1       2.142   7.237  20.123  0.00  0.00    +0.000 C 
BRANCH  14  17
ATOM     15  C   UNL     1       1.347   9.438  18.315  0.00  0.00    +0.000 C 
ATOM     16  N   UNL     1       0.935   9.424  19.718  0.00  0.00    +0.000 N 
ATOM     17  C   UNL     1       1.321   8.427  20.639  0.00  0.00    +0.000 C 
ATOM     18  O   UNL     1       1.003   8.511  21.828  0.00  0.00    +0.000 OA
BRANCH  16  19
ATOM     19  C   UNL     1       0.223  10.598  20.280  0.00  0.00    +0.000 C 
ATOM     20  C   UNL     1      -1.099  11.001  19.598  0.00  0.00    +0.000 C 
ATOM     21  C   UNL     1      -0.785  12.008  18.507  0.00  0.00    +0.000 C 
ATOM     22  S   UNL     1       0.505  13.020  19.186  0.00  0.00    +0.000 S 
ATOM     23  O   UNL     1      -0.114  14.117  19.894  0.00  0.00    +0.000 OA
ATOM     24  O   UNL     1       1.506  13.231  18.158  0.00  0.00    +0.000 OA
ATOM     25  C   UNL     1       1.119  11.844  20.374  0.00  0.00    +0.000 C 
ENDBRANCH  16  19
ENDBRANCH  14  17
ENDBRANCH   1  14
TORSDOF 5
ENDMDL
MODEL 8
REMARK VINA RESULT:      -7.1      6.454      9.484
REMARK  Name = 
REMARK  6 active torsions:
REMARK  status: ('A' for Active; 'I' for Inactive)
REMARK    1  A    between atoms: C_1  and  N_2
REMARK    2  A    between atoms: N_2  and  C_19
REMARK    3  A    between atoms: C_3  and  C_5
REMARK    4  A    between atoms: C_5  and  O_6
REMARK    5  A    between atoms: O_6  and  C_7
REMARK    6  A    between atoms: C_7  and  C_9
REMARK                            x       y       z     vdW  Elec       q    Type
REMARK                         _______ _______ _______ _____ _____    ______ ____
ROOT
ATOM      1  O   UNL     1       0.310   8.918  20.914  0.00  0.00    +0.000 OA
ENDROOT
BRANCH   1   2
ATOM      2  C   UNL     1       0.225  10.265  20.800  0.00  0.00    +0.000 C 
ATOM      3  O   UNL     1       1.058  11.067  21.190  0.00  0.00    +0.000 OA
BRANCH   2   4
ATOM      4  C   UNL     1      -0.945  10.625  19.936  0.00  0.00    +0.000 A 
ATOM      5  C   UNL     1      -1.758  11.680  20.324  0.00  0.00    +0.000 A 
ATOM      6  C   UNL     1      -2.767  12.085  19.457  0.00  0.00    +0.000 A 
ATOM      7  C   UNL     1      -2.941  11.427  18.232  0.00  0.00    +0.000 A 
ATOM      8  C   UNL     1      -3.956  11.795  17.332  0.00  0.00    +0.000 A 
ATOM      9  C   UNL     1      -4.109  11.117  16.125  0.00  0.00    +0.000 A 
ATOM     10  C   UNL     1      -3.245  10.075  15.809  0.00  0.00    +0.000 A 
ATOM     11  C   UNL     1      -2.231   9.716  16.703  0.00  0.00    +0.000 A 
ATOM     12  C   UNL     1      -2.061  10.369  17.917  0.00  0.00    +0.000 A 
ATOM     13  N   UNL     1      -1.077   9.979  18.744  0.00  0.00    +0.000 NA
ENDBRANCH   2   4
ENDBRANCH   1   2
BRANCH   1  14
ATOM     14  C   UNL     1       1.634   8.404  20.823  0.00  0.00    +0.000 C 
BRANCH  14  17
ATOM     15  C   UNL     1       2.062   5.484  20.620  0.00  0.00    +0.000 C 
ATOM     16  N   UNL     1       2.148   6.346  19.442  0.00  0.00    +0.000 N 
ATOM     17  C   UNL     1       2.000   7.748  19.484  0.00  0.00    +0.000 C 
ATOM     18  O   UNL     1       2.158   8.429  18.467  0.00  0.00    +0.000 OA
BRANCH  16  19
ATOM     19  C   UNL     1       2.591   5.770  18.148  0.00  0.00    +0.000 C 
ATOM     20  C   UNL     1       1.984   4.411  17.749  0.00  0.00    +0.000 C 
ATOM     21  C   UNL     1       2.885   3.312  18.280  0.00  0.00    +0.000 C 
ATOM     22  S   UNL     1       4.533   3.935  18.063  0.00  0.00    +0.000 S 
ATOM     23  O   UNL     1       4.987   3.547  16.748  0.00  0.00    +0.000 OA
ATOM     24  O   UNL     1       5.293   3.639  19.262  0.00  0.00    +0.000 OA
ATOM     25  C   UNL     1       4.122   5.668  18.040  0.00  0.00    +0.000 C 
ENDBRANCH  16  19
ENDBRANCH  14  17
ENDBRANCH   1  14
TORSDOF 5
ENDMDL
MODEL 9
REMARK VINA RESULT:      -7.0      5.958      8.123
REMARK  Name = 
REMARK  6 active torsions:
REMARK  status: ('A' for Active; 'I' for Inactive)
REMARK    1  A    between atoms: C_1  and  N_2
REMARK    2  A    between atoms: N_2  and  C_19
REMARK    3  A    between atoms: C_3  and  C_5
REMARK    4  A    between atoms: C_5  and  O_6
REMARK    5  A    between atoms: O_6  and  C_7
REMARK    6  A    between atoms: C_7  and  C_9
REMARK                            x       y       z     vdW  Elec       q    Type
REMARK                         _______ _______ _______ _____ _____    ______ ____
ROOT
ATOM      1  O   UNL     1       2.037   5.478  19.545  0.00  0.00    +0.000 OA
ENDROOT
BRANCH   1   2
ATOM      2  C   UNL     1       2.997   4.561  19.813  0.00  0.00    +0.000 C 
ATOM      3  O   UNL     1       2.890   3.624  20.589  0.00  0.00    +0.000 OA
BRANCH   2   4
ATOM      4  C   UNL     1       4.144   4.738  18.866  0.00  0.00    +0.000 A 
ATOM      5  C   UNL     1       5.403   5.000  19.387  0.00  0.00    +0.000 A 
ATOM      6  C   UNL     1       6.481   5.041  18.509  0.00  0.00    +0.000 A 
ATOM      7  C   UNL     1       6.276   4.825  17.140  0.00  0.00    +0.000 A 
ATOM      8  C   UNL     1       7.335   4.871  16.218  0.00  0.00    +0.000 A 
ATOM      9  C   UNL     1       7.099   4.660  14.861  0.00  0.00    +0.000 A 
ATOM     10  C   UNL     1       5.807   4.395  14.423  0.00  0.00    +0.000 A 
ATOM     11  C   UNL     1       4.756   4.342  15.345  0.00  0.00    +0.000 A 
ATOM     12  C   UNL     1       4.961   4.557  16.701  0.00  0.00    +0.000 A 
ATOM     13  N   UNL     1       3.916   4.505  17.543  0.00  0.00    +0.000 NA
ENDBRANCH   2   4
ENDBRANCH   1   2
BRANCH   1  14
ATOM     14  C   UNL     1       2.328   6.788  20.019  0.00  0.00    +0.000 C 
BRANCH  14  17
ATOM     15  C   UNL     1       0.716   9.147  20.783  0.00  0.00    +0.000 C 
ATOM     16  N   UNL     1       1.330   9.046  19.460  0.00  0.00    +0.000 N 
ATOM     17  C   UNL     1       2.069   7.927  19.022  0.00  0.00    +0.000 C 
ATOM     18  O   UNL     1       2.499   7.868  17.867  0.00  0.00    +0.000 OA
BRANCH  16  19
ATOM     19  C   UNL     1       1.029  10.077  18.435  0.00  0.00    +0.000 C 
ATOM     20  C   UNL     1       1.920  11.334  18.433  0.00  0.00    +0.000 C 
ATOM     21  C   UNL     1       1.278  12.375  19.331  0.00  0.00    +0.000 C 
ATOM     22  S   UNL     1      -0.465  12.208  19.040  0.00  0.00    +0.000 S 
ATOM     23  O   UNL     1      -0.818  13.074  17.938  0.00  0.00    +0.000 OA
ATOM     24  O   UNL     1      -1.147  12.267  20.319  0.00  0.00    +0.000 OA
ATOM     25  C   UNL     1      -0.442  10.524  18.462  0.00  0.00    +0.000 C 
ENDBRANCH  16  19
ENDBRANCH  14  17
ENDBRANCH   1  14
TORSDOF 5
ENDMDL
