MODEL 1
REMARK VINA RESULT:      -7.9      0.000      0.000
REMARK  Name = 
REMARK  13 active torsions:
REMARK  status: ('A' for Active; 'I' for Inactive)
REMARK    1  A    between atoms: C_1  and  C_2
REMARK    2  A    between atoms: C_2  and  C_3
REMARK    3  A    between atoms: C_3  and  N_4
REMARK    4  A    between atoms: C_7  and  O_8
REMARK    5  A    between atoms: O_8  and  C_9
REMARK    6  A    between atoms: C_9  and  C_10
REMARK    7  A    between atoms: C_10  and  C_11
REMARK    8  A    between atoms: C_11  and  C_12
REMARK    9  A    between atoms: C_11  and  C_13
REMARK   10  A    between atoms: N_20  and  C_21
REMARK   11  A    between atoms: C_21  and  C_22
REMARK   12  A    between atoms: C_22  and  C_23
REMARK   13  A    between atoms: C_24  and  C_25
REMARK                            x       y       z     vdW  Elec       q    Type
REMARK                         _______ _______ _______ _____ _____    ______ ____
ROOT
ATOM      1  N   UNL     1       3.834   4.382  18.451  0.00  0.00    +0.000 N 
ATOM      2  C   UNL     1       4.440   4.685  17.233  0.00  0.00    +0.000 A 
ATOM      3  C   UNL     1       5.168   3.861  16.351  0.00  0.00    +0.000 A 
ATOM      4  C   UNL     1       5.761   4.429  15.221  0.00  0.00    +0.000 A 
ATOM      5  C   UNL     1       5.589   5.784  14.962  0.00  0.00    +0.000 A 
ATOM      6  C   UNL     1       4.810   6.588  15.808  0.00  0.00    +0.000 A 
ATOM      7  C   UNL     1       4.238   6.031  16.975  0.00  0.00    +0.000 A 
ATOM      8  C   UNL     1       3.425   6.540  18.035  0.00  0.00    +0.000 A 
ATOM      9  C   UNL     1       2.881   7.799  18.266  0.00  0.00    +0.000 A 
ATOM     10  C   UNL     1       2.102   7.978  19.389  0.00  0.00    +0.000 A 
ATOM     11  N   UNL     1       1.856   6.983  20.269  0.00  0.00    +0.000 N 
ATOM     12  C   UNL     1       2.372   5.726  20.115  0.00  0.00    +0.000 A 
ATOM     13  C   UNL     1       2.093   4.658  21.133  0.00  0.00    +0.000 C 
ATOM     14  C   UNL     1       3.167   5.507  18.950  0.00  0.00    +0.000 A 
ENDROOT
BRANCH   1  15
ATOM     15  C   UNL     1       3.908   3.040  19.015  0.00  0.00    +0.000 C 
BRANCH  15  17
ATOM     16  C   UNL     1       1.565   2.509  18.252  0.00  0.00    +0.000 C 
ATOM     17  C   UNL     1       3.003   2.024  18.309  0.00  0.00    +0.000 C 
ENDBRANCH  15  17
ENDBRANCH   1  15
BRANCH   4  18
ATOM     18  O   UNL     1       6.564   3.744  14.345  0.00  0.00    +0.000 OA
BRANCH  18  19
ATOM     19  C   UNL     1       7.140   4.550  13.311  0.00  0.00    +0.000 C 
BRANCH  19  20
ATOM     20  C   UNL     1       6.887   3.897  11.954  0.00  0.00    +0.000 C 
BRANCH  20  21
ATOM     21  C   UNL     1       5.850   2.761  12.031  0.00  0.00    +0.000 C 
ATOM     22  C   UNL     1       4.478   3.191  11.505  0.00  0.00    +0.000 C 
ATOM     23  C   UNL     1       6.344   1.545  11.247  0.00  0.00    +0.000 C 
ENDBRANCH  20  21
ENDBRANCH  19  20
ENDBRANCH  18  19
ENDBRANCH   4  18
BRANCH  11  24
ATOM     24  C   UNL     1       0.937   7.322  21.404  0.00  0.00    +0.000 C 
BRANCH  24  25
ATOM     25  C   UNL     1       0.490   8.778  21.296  0.00  0.00    +0.000 C 
ATOM     26  C   UNL     1       0.298   9.395  22.673  0.00  0.00    +0.000 C 
ENDBRANCH  24  25
ENDBRANCH  11  24
TORSDOF 8
ENDMDL
MODEL 2
REMARK VINA RESULT:      -7.3      2.796      8.673
REMARK  Name = 
REMARK  13 active torsions:
REMARK  status: ('A' for Active; 'I' for Inactive)
REMARK    1  A    between atoms: C_1  and  C_2
REMARK    2  A    between atoms: C_2  and  C_3
REMARK    3  A    between atoms: C_3  and  N_4
REMARK    4  A    between atoms: C_7  and  O_8
REMARK    5  A    between atoms: O_8  and  C_9
REMARK    6  A    between atoms: C_9  and  C_10
REMARK    7  A    between atoms: C_10  and  C_11
REMARK    8  A    between atoms: C_11  and  C_12
REMARK    9  A    between atoms: C_11  and  C_13
REMARK   10  A    between atoms: N_20  and  C_21
REMARK   11  A    between atoms: C_21  and  C_22
REMARK   12  A    between atoms: C_22  and  C_23
REMARK   13  A    between atoms: C_24  and  C_25
REMARK                            x       y       z     vdW  Elec       q    Type
REMARK                         _______ _______ _______ _____ _____    ______ ____
ROOT
ATOM      1  N   UNL     1       2.755   6.104  19.623  0.00  0.00    +0.000 N 
ATOM      2  C   UNL     1       2.140   7.355  19.598  0.00  0.00    +0.000 A 
ATOM      3  C   UNL     1       1.247   7.946  20.513  0.00  0.00    +0.000 A 
ATOM      4  C   UNL     1       0.692   9.192  20.216  0.00  0.00    +0.000 A 
ATOM      5  C   UNL     1       1.060   9.847  19.046  0.00  0.00    +0.000 A 
ATOM      6  C   UNL     1       1.999   9.284  18.167  0.00  0.00    +0.000 A 
ATOM      7  C   UNL     1       2.537   8.005  18.441  0.00  0.00    +0.000 A 
ATOM      8  C   UNL     1       3.474   7.151  17.783  0.00  0.00    +0.000 A 
ATOM      9  C   UNL     1       4.220   7.310  16.619  0.00  0.00    +0.000 A 
ATOM     10  C   UNL     1       5.076   6.295  16.248  0.00  0.00    +0.000 A 
ATOM     11  N   UNL     1       5.209   5.157  16.964  0.00  0.00    +0.000 N 
ATOM     12  C   UNL     1       4.494   4.925  18.107  0.00  0.00    +0.000 A 
ATOM     13  C   UNL     1       4.656   3.634  18.857  0.00  0.00    +0.000 C 
ATOM     14  C   UNL     1       3.615   5.968  18.527  0.00  0.00    +0.000 A 
ENDROOT
BRANCH   1  15
ATOM     15  C   UNL     1       2.501   5.162  20.706  0.00  0.00    +0.000 C 
BRANCH  15  17
ATOM     16  C   UNL     1       1.397   2.948  21.192  0.00  0.00    +0.000 C 
ATOM     17  C   UNL     1       1.265   4.283  20.480  0.00  0.00    +0.000 C 
ENDBRANCH  15  17
ENDBRANCH   1  15
BRANCH   4  18
ATOM     18  O   UNL     1      -0.253   9.820  20.986  0.00  0.00    +0.000 OA
BRANCH  18  19
ATOM     19  C   UNL     1      -0.344   9.335  22.330  0.00  0.00    +0.000 C 
BRANCH  19  20
ATOM     20  C   UNL     1      -0.806  10.463  23.250  0.00  0.00    +0.000 C 
BRANCH  20  21
ATOM     21  C   UNL     1      -1.516  11.595  22.484  0.00  0.00    +0.000 C 
ATOM     22  C   UNL     1      -2.782  12.074  23.198  0.00  0.00    +0.000 C 
ATOM     23  C   UNL     1      -0.561  12.771  22.283  0.00  0.00    +0.000 C 
ENDBRANCH  20  21
ENDBRANCH  19  20
ENDBRANCH  18  19
ENDBRANCH   4  18
BRANCH  11  24
ATOM     24  C   UNL     1       6.228   4.180  16.461  0.00  0.00    +0.000 C 
BRANCH  24  25
ATOM     25  C   UNL     1       5.869   3.734  15.046  0.00  0.00    +0.000 C 
ATOM     26  C   UNL     1       6.760   4.414  14.016  0.00  0.00    +0.000 C 
ENDBRANCH  24  25
ENDBRANCH  11  24
TORSDOF 8
ENDMDL
MODEL 3
REMARK VINA RESULT:      -7.2      3.171      8.734
REMARK  Name = 
REMARK  13 active torsions:
REMARK  status: ('A' for Active; 'I' for Inactive)
REMARK    1  A    between atoms: C_1  and  C_2
REMARK    2  A    between atoms: C_2  and  C_3
REMARK    3  A    between atoms: C_3  and  N_4
REMARK    4  A    between atoms: C_7  and  O_8
REMARK    5  A    between atoms: O_8  and  C_9
REMARK    6  A    between atoms: C_9  and  C_10
REMARK    7  A    between atoms: C_10  and  C_11
REMARK    8  A    between atoms: C_11  and  C_12
REMARK    9  A    between atoms: C_11  and  C_13
REMARK   10  A    between atoms: N_20  and  C_21
REMARK   11  A    between atoms: C_21  and  C_22
REMARK   12  A    between atoms: C_22  and  C_23
REMARK   13  A    between atoms: C_24  and  C_25
REMARK                            x       y       z     vdW  Elec       q    Type
REMARK                         _______ _______ _______ _____ _____    ______ ____
ROOT
ATOM      1  N   UNL     1       2.580   5.538  19.868  0.00  0.00    +0.000 N 
ATOM      2  C   UNL     1       2.003   6.788  20.085  0.00  0.00    +0.000 A 
ATOM      3  C   UNL     1       1.181   7.239  21.136  0.00  0.00    +0.000 A 
ATOM      4  C   UNL     1       0.648   8.528  21.080  0.00  0.00    +0.000 A 
ATOM      5  C   UNL     1       0.970   9.359  20.012  0.00  0.00    +0.000 A 
ATOM      6  C   UNL     1       1.841   8.929  18.999  0.00  0.00    +0.000 A 
ATOM      7  C   UNL     1       2.355   7.611  19.028  0.00  0.00    +0.000 A 
ATOM      8  C   UNL     1       3.227   6.857  18.185  0.00  0.00    +0.000 A 
ATOM      9  C   UNL     1       3.912   7.190  17.020  0.00  0.00    +0.000 A 
ATOM     10  C   UNL     1       4.714   6.232  16.437  0.00  0.00    +0.000 A 
ATOM     11  N   UNL     1       4.852   4.990  16.949  0.00  0.00    +0.000 N 
ATOM     12  C   UNL     1       4.195   4.587  18.079  0.00  0.00    +0.000 A 
ATOM     13  C   UNL     1       4.359   3.188  18.598  0.00  0.00    +0.000 C 
ATOM     14  C   UNL     1       3.373   5.566  18.715  0.00  0.00    +0.000 A 
ENDROOT
BRANCH   1  15
ATOM     15  C   UNL     1       2.358   4.435  20.797  0.00  0.00    +0.000 C 
BRANCH  15  17
ATOM     16  C   UNL     1       0.934   2.890  19.405  0.00  0.00    +0.000 C 
ATOM     17  C   UNL     1       0.987   3.768  20.643  0.00  0.00    +0.000 C 
ENDBRANCH  15  17
ENDBRANCH   1  15
BRANCH   4  18
ATOM     18  O   UNL     1      -0.233   9.040  21.998  0.00  0.00    +0.000 OA
BRANCH  18  19
ATOM     19  C   UNL     1      -0.409  10.459  21.927  0.00  0.00    +0.000 C 
BRANCH  19  20
ATOM     20  C   UNL     1      -1.261  10.927  23.105  0.00  0.00    +0.000 C 
BRANCH  20  21
ATOM     21  C   UNL     1      -1.918  12.296  22.850  0.00  0.00    +0.000 C 
ATOM     22  C   UNL     1      -2.122  12.574  21.359  0.00  0.00    +0.000 C 
ATOM     23  C   UNL     1      -3.260  12.377  23.578  0.00  0.00    +0.000 C 
ENDBRANCH  20  21
ENDBRANCH  19  20
ENDBRANCH  18  19
ENDBRANCH   4  18
BRANCH  11  24
ATOM     24  C   UNL     1       5.811   4.088  16.233  0.00  0.00    +0.000 C 
BRANCH  24  25
ATOM     25  C   UNL     1       7.226   4.653  16.322  0.00  0.00    +0.000 C 
ATOM     26  C   UNL     1       7.737   4.624  17.755  0.00  0.00    +0.000 C 
ENDBRANCH  24  25
ENDBRANCH  11  24
TORSDOF 8
ENDMDL
MODEL 4
REMARK VINA RESULT:      -7.1      3.266      7.827
REMARK  Name = 
REMARK  13 active torsions:
REMARK  status: ('A' for Active; 'I' for Inactive)
REMARK    1  A    between atoms: C_1  and  C_2
REMARK    2  A    between atoms: C_2  and  C_3
REMARK    3  A    between atoms: C_3  and  N_4
REMARK    4  A    between atoms: C_7  and  O_8
REMARK    5  A    between atoms: O_8  and  C_9
REMARK    6  A    between atoms: C_9  and  C_10
REMARK    7  A    between atoms: C_10  and  C_11
REMARK    8  A    between atoms: C_11  and  C_12
REMARK    9  A    between atoms: C_11  and  C_13
REMARK   10  A    between atoms: N_20  and  C_21
REMARK   11  A    between atoms: C_21  and  C_22
REMARK   12  A    between atoms: C_22  and  C_23
REMARK   13  A    between atoms: C_24  and  C_25
REMARK                            x       y       z     vdW  Elec       q    Type
REMARK                         _______ _______ _______ _____ _____    ______ ____
ROOT
ATOM      1  N   UNL     1       2.726   6.297  19.427  0.00  0.00    +0.000 N 
ATOM      2  C   UNL     1       2.182   7.577  19.336  0.00  0.00    +0.000 A 
ATOM      3  C   UNL     1       1.295   8.251  20.197  0.00  0.00    +0.000 A 
ATOM      4  C   UNL     1       0.818   9.512  19.835  0.00  0.00    +0.000 A 
ATOM      5  C   UNL     1       1.258  10.100  18.654  0.00  0.00    +0.000 A 
ATOM      6  C   UNL     1       2.192   9.454  17.830  0.00  0.00    +0.000 A 
ATOM      7  C   UNL     1       2.650   8.160  18.169  0.00  0.00    +0.000 A 
ATOM      8  C   UNL     1       3.559   7.231  17.575  0.00  0.00    +0.000 A 
ATOM      9  C   UNL     1       4.349   7.304  16.432  0.00  0.00    +0.000 A 
ATOM     10  C   UNL     1       5.159   6.231  16.128  0.00  0.00    +0.000 A 
ATOM     11  N   UNL     1       5.207   5.117  16.890  0.00  0.00    +0.000 N 
ATOM     12  C   UNL     1       4.445   4.968  18.017  0.00  0.00    +0.000 A 
ATOM     13  C   UNL     1       4.511   3.700  18.819  0.00  0.00    +0.000 C 
ATOM     14  C   UNL     1       3.611   6.072  18.367  0.00  0.00    +0.000 A 
ENDROOT
BRANCH   1  15
ATOM     15  C   UNL     1       2.387   5.413  20.536  0.00  0.00    +0.000 C 
BRANCH  15  17
ATOM     16  C   UNL     1       1.320   3.171  20.970  0.00  0.00    +0.000 C 
ATOM     17  C   UNL     1       1.187   4.502  20.251  0.00  0.00    +0.000 C 
ENDBRANCH  15  17
ENDBRANCH   1  15
BRANCH   4  18
ATOM     18  O   UNL     1      -0.115  10.219  20.550  0.00  0.00    +0.000 OA
BRANCH  18  19
ATOM     19  C   UNL     1      -1.005  11.007  19.751  0.00  0.00    +0.000 C 
BRANCH  19  20
ATOM     20  C   UNL     1      -1.789  10.094  18.810  0.00  0.00    +0.000 C 
BRANCH  20  21
ATOM     21  C   UNL     1      -2.336  10.843  17.581  0.00  0.00    +0.000 C 
ATOM     22  C   UNL     1      -2.466   9.934  16.357  0.00  0.00    +0.000 C 
ATOM     23  C   UNL     1      -3.693  11.467  17.907  0.00  0.00    +0.000 C 
ENDBRANCH  20  21
ENDBRANCH  19  20
ENDBRANCH  18  19
ENDBRANCH   4  18
BRANCH  11  24
ATOM     24  C   UNL     1       6.186   4.067  16.458  0.00  0.00    +0.000 C 
BRANCH  24  25
ATOM     25  C   UNL     1       6.845   4.477  15.144  0.00  0.00    +0.000 C 
ATOM     26  C   UNL     1       6.188   3.782  13.962  0.00  0.00    +0.000 C 
ENDBRANCH  24  25
ENDBRANCH  11  24
TORSDOF 8
ENDMDL
MODEL 5
REMARK VINA RESULT:      -7.1      2.658      4.153
REMARK  Name = 
REMARK  13 active torsions:
REMARK  status: ('A' for Active; 'I' for Inactive)
REMARK    1  A    between atoms: C_1  and  C_2
REMARK    2  A    between atoms: C_2  and  C_3
REMARK    3  A    between atoms: C_3  and  N_4
REMARK    4  A    between atoms: C_7  and  O_8
REMARK    5  A    between atoms: O_8  and  C_9
REMARK    6  A    between atoms: C_9  and  C_10
REMARK    7  A    between atoms: C_10  and  C_11
REMARK    8  A    between atoms: C_11  and  C_12
REMARK    9  A    between atoms: C_11  and  C_13
REMARK   10  A    between atoms: N_20  and  C_21
REMARK   11  A    between atoms: C_21  and  C_22
REMARK   12  A    between atoms: C_22  and  C_23
REMARK   13  A    between atoms: C_24  and  C_25
REMARK                            x       y       z     vdW  Elec       q    Type
REMARK                         _______ _______ _______ _____ _____    ______ ____
ROOT
ATOM      1  N   UNL     1       2.340   6.653  19.703  0.00  0.00    +0.000 N 
ATOM      2  C   UNL     1       3.164   6.357  18.618  0.00  0.00    +0.000 A 
ATOM      3  C   UNL     1       3.900   5.191  18.328  0.00  0.00    +0.000 A 
ATOM      4  C   UNL     1       4.733   5.172  17.208  0.00  0.00    +0.000 A 
ATOM      5  C   UNL     1       4.792   6.285  16.376  0.00  0.00    +0.000 A 
ATOM      6  C   UNL     1       4.009   7.421  16.633  0.00  0.00    +0.000 A 
ATOM      7  C   UNL     1       3.192   7.464  17.786  0.00  0.00    +0.000 A 
ATOM      8  C   UNL     1       2.302   8.430  18.348  0.00  0.00    +0.000 A 
ATOM      9  C   UNL     1       1.908   9.693  17.917  0.00  0.00    +0.000 A 
ATOM     10  C   UNL     1       0.996  10.389  18.681  0.00  0.00    +0.000 A 
ATOM     11  N   UNL     1       0.481   9.895  19.829  0.00  0.00    +0.000 N 
ATOM     12  C   UNL     1       0.837   8.670  20.322  0.00  0.00    +0.000 A 
ATOM     13  C   UNL     1       0.259   8.173  21.616  0.00  0.00    +0.000 C 
ATOM     14  C   UNL     1       1.766   7.919  19.540  0.00  0.00    +0.000 A 
ENDROOT
BRANCH   1  15
ATOM     15  C   UNL     1       2.141   5.692  20.781  0.00  0.00    +0.000 C 
BRANCH  15  17
ATOM     16  C   UNL     1       1.466   3.280  21.066  0.00  0.00    +0.000 C 
ATOM     17  C   UNL     1       1.089   4.623  20.464  0.00  0.00    +0.000 C 
ENDBRANCH  15  17
ENDBRANCH   1  15
BRANCH   4  18
ATOM     18  O   UNL     1       5.561   4.129  16.879  0.00  0.00    +0.000 OA
BRANCH  18  19
ATOM     19  C   UNL     1       6.884   4.517  16.493  0.00  0.00    +0.000 C 
BRANCH  19  20
ATOM     20  C   UNL     1       7.790   4.534  17.722  0.00  0.00    +0.000 C 
BRANCH  20  21
ATOM     21  C   UNL     1       7.479   5.709  18.667  0.00  0.00    +0.000 C 
ATOM     22  C   UNL     1       8.198   5.579  20.012  0.00  0.00    +0.000 C 
ATOM     23  C   UNL     1       7.862   7.032  18.003  0.00  0.00    +0.000 C 
ENDBRANCH  20  21
ENDBRANCH  19  20
ENDBRANCH  18  19
ENDBRANCH   4  18
BRANCH  11  24
ATOM     24  C   UNL     1      -0.547  10.749  20.508  0.00  0.00    +0.000 C 
BRANCH  24  25
ATOM     25  C   UNL     1       0.137  11.864  21.295  0.00  0.00    +0.000 C 
ATOM     26  C   UNL     1      -0.745  12.350  22.435  0.00  0.00    +0.000 C 
ENDBRANCH  24  25
ENDBRANCH  11  24
TORSDOF 8
ENDMDL
MODEL 6
REMARK VINA RESULT:      -7.0      3.326      8.644
REMARK  Name = 
REMARK  13 active torsions:
REMARK  status: ('A' for Active; 'I' for Inactive)
REMARK    1  A    between atoms: C_1  and  C_2
REMARK    2  A    between atoms: C_2  and  C_3
REMARK    3  A    between atoms: C_3  and  N_4
REMARK    4  A    between atoms: C_7  and  O_8
REMARK    5  A    between atoms: O_8  and  C_9
REMARK    6  A    between atoms: C_9  and  C_10
REMARK    7  A    between atoms: C_10  and  C_11
REMARK    8  A    between atoms: C_11  and  C_12
REMARK    9  A    between atoms: C_11  and  C_13
REMARK   10  A    between atoms: N_20  and  C_21
REMARK   11  A    between atoms: C_21  and  C_22
REMARK   12  A    between atoms: C_22  and  C_23
REMARK   13  A    between atoms: C_24  and  C_25
REMARK                            x       y       z     vdW  Elec       q    Type
REMARK                         _______ _______ _______ _____ _____    ______ ____
ROOT
ATOM      1  N   UNL     1       2.532   6.081  19.757  0.00  0.00    +0.000 N 
ATOM      2  C   UNL     1       1.952   7.348  19.710  0.00  0.00    +0.000 A 
ATOM      3  C   UNL     1       1.062   7.973  20.606  0.00  0.00    +0.000 A 
ATOM      4  C   UNL     1       0.545   9.230  20.287  0.00  0.00    +0.000 A 
ATOM      5  C   UNL     1       0.947   9.862  19.116  0.00  0.00    +0.000 A 
ATOM      6  C   UNL     1       1.883   9.264  18.257  0.00  0.00    +0.000 A 
ATOM      7  C   UNL     1       2.383   7.975  18.553  0.00  0.00    +0.000 A 
ATOM      8  C   UNL     1       3.305   7.088  17.918  0.00  0.00    +0.000 A 
ATOM      9  C   UNL     1       4.072   7.214  16.763  0.00  0.00    +0.000 A 
ATOM     10  C   UNL     1       4.905   6.172  16.415  0.00  0.00    +0.000 A 
ATOM     11  N   UNL     1       4.997   5.039  17.145  0.00  0.00    +0.000 N 
ATOM     12  C   UNL     1       4.260   4.839  18.280  0.00  0.00    +0.000 A 
ATOM     13  C   UNL     1       4.376   3.553  19.046  0.00  0.00    +0.000 C 
ATOM     14  C   UNL     1       3.403   5.910  18.675  0.00  0.00    +0.000 A 
ENDROOT
BRANCH   1  15
ATOM     15  C   UNL     1       2.237   5.158  20.847  0.00  0.00    +0.000 C 
BRANCH  15  17
ATOM     16  C   UNL     1       1.328   2.835  21.208  0.00  0.00    +0.000 C 
ATOM     17  C   UNL     1       1.103   4.176  20.531  0.00  0.00    +0.000 C 
ENDBRANCH  15  17
ENDBRANCH   1  15
BRANCH   4  18
ATOM     18  O   UNL     1      -0.394   9.891  21.037  0.00  0.00    +0.000 OA
BRANCH  18  19
ATOM     19  C   UNL     1       0.127  10.550  22.197  0.00  0.00    +0.000 C 
BRANCH  19  20
ATOM     20  C   UNL     1      -0.998  11.305  22.903  0.00  0.00    +0.000 C 
BRANCH  20  21
ATOM     21  C   UNL     1      -1.149  12.750  22.394  0.00  0.00    +0.000 C 
ATOM     22  C   UNL     1      -1.429  13.739  23.527  0.00  0.00    +0.000 C 
ATOM     23  C   UNL     1       0.111  13.174  21.639  0.00  0.00    +0.000 C 
ENDBRANCH  20  21
ENDBRANCH  19  20
ENDBRANCH  18  19
ENDBRANCH   4  18
BRANCH  11  24
ATOM     24  C   UNL     1       5.996   4.030  16.667  0.00  0.00    +0.000 C 
BRANCH  24  25
ATOM     25  C   UNL     1       7.404   4.617  16.732  0.00  0.00    +0.000 C 
ATOM     26  C   UNL     1       7.820   4.882  18.171  0.00  0.00    +0.000 C 
ENDBRANCH  24  25
ENDBRANCH  11  24
TORSDOF 8
ENDMDL
MODEL 7
REMARK VINA RESULT:      -7.0      3.041      8.347
REMARK  Name = 
REMARK  13 active torsions:
REMARK  status: ('A' for Active; 'I' for Inactive)
REMARK    1  A    between atoms: C_1  and  C_2
REMARK    2  A    between atoms: C_2  and  C_3
REMARK    3  A    between atoms: C_3  and  N_4
REMARK    4  A    between atoms: C_7  and  O_8
REMARK    5  A    between atoms: O_8  and  C_9
REMARK    6  A    between atoms: C_9  and  C_10
REMARK    7  A    between atoms: C_10  and  C_11
REMARK    8  A    between atoms: C_11  and  C_12
REMARK    9  A    between atoms: C_11  and  C_13
REMARK   10  A    between atoms: N_20  and  C_21
REMARK   11  A    between atoms: C_21  and  C_22
REMARK   12  A    between atoms: C_22  and  C_23
REMARK   13  A    between atoms: C_24  and  C_25
REMARK                            x       y       z     vdW  Elec       q    Type
REMARK                         _______ _______ _______ _____ _____    ______ ____
ROOT
ATOM      1  N   UNL     1       2.738   6.025  19.650  0.00  0.00    +0.000 N 
ATOM      2  C   UNL     1       2.152   7.290  19.642  0.00  0.00    +0.000 A 
ATOM      3  C   UNL     1       1.285   7.894  20.573  0.00  0.00    +0.000 A 
ATOM      4  C   UNL     1       0.755   9.155  20.292  0.00  0.00    +0.000 A 
ATOM      5  C   UNL     1       1.123   9.810  19.122  0.00  0.00    +0.000 A 
ATOM      6  C   UNL     1       2.037   9.232  18.228  0.00  0.00    +0.000 A 
ATOM      7  C   UNL     1       2.549   7.939  18.485  0.00  0.00    +0.000 A 
ATOM      8  C   UNL     1       3.457   7.068  17.809  0.00  0.00    +0.000 A 
ATOM      9  C   UNL     1       4.192   7.219  16.636  0.00  0.00    +0.000 A 
ATOM     10  C   UNL     1       5.019   6.187  16.246  0.00  0.00    +0.000 A 
ATOM     11  N   UNL     1       5.135   5.042  16.953  0.00  0.00    +0.000 N 
ATOM     12  C   UNL     1       4.430   4.817  18.103  0.00  0.00    +0.000 A 
ATOM     13  C   UNL     1       4.571   3.517  18.841  0.00  0.00    +0.000 C 
ATOM     14  C   UNL     1       3.580   5.877  18.541  0.00  0.00    +0.000 A 
ENDROOT
BRANCH   1  15
ATOM     15  C   UNL     1       2.476   5.080  20.729  0.00  0.00    +0.000 C 
BRANCH  15  17
ATOM     16  C   UNL     1       1.351   2.872  21.191  0.00  0.00    +0.000 C 
ATOM     17  C   UNL     1       1.226   4.222  20.506  0.00  0.00    +0.000 C 
ENDBRANCH  15  17
ENDBRANCH   1  15
BRANCH   4  18
ATOM     18  O   UNL     1      -0.166   9.798  21.079  0.00  0.00    +0.000 OA
BRANCH  18  19
ATOM     19  C   UNL     1      -0.570  11.083  20.594  0.00  0.00    +0.000 C 
BRANCH  19  20
ATOM     20  C   UNL     1      -0.271  12.145  21.651  0.00  0.00    +0.000 C 
BRANCH  20  21
ATOM     21  C   UNL     1       0.451  13.372  21.065  0.00  0.00    +0.000 C 
ATOM     22  C   UNL     1       1.887  13.054  20.641  0.00  0.00    +0.000 C 
ATOM     23  C   UNL     1      -0.330  13.920  19.871  0.00  0.00    +0.000 C 
ENDBRANCH  20  21
ENDBRANCH  19  20
ENDBRANCH  18  19
ENDBRANCH   4  18
BRANCH  11  24
ATOM     24  C   UNL     1       6.124   4.045  16.429  0.00  0.00    +0.000 C 
BRANCH  24  25
ATOM     25  C   UNL     1       6.763   4.569  15.145  0.00  0.00    +0.000 C 
ATOM     26  C   UNL     1       6.217   3.841  13.926  0.00  0.00    +0.000 C 
ENDBRANCH  24  25
ENDBRANCH  11  24
TORSDOF 8
ENDMDL
MODEL 8
REMARK VINA RESULT:      -6.9      1.795      2.970
REMARK  Name = 
REMARK  13 active torsions:
REMARK  status: ('A' for Active; 'I' for Inactive)
REMARK    1  A    between atoms: C_1  and  C_2
REMARK    2  A    between atoms: C_2  and  C_3
REMARK    3  A    between atoms: C_3  and  N_4
REMARK    4  A    between atoms: C_7  and  O_8
REMARK    5  A    between atoms: O_8  and  C_9
REMARK    6  A    between atoms: C_9  and  C_10
REMARK    7  A    between atoms: C_10  and  C_11
REMARK    8  A    between atoms: C_11  and  C_12
REMARK    9  A    between atoms: C_11  and  C_13
REMARK   10  A    between atoms: N_20  and  C_21
REMARK   11  A    between atoms: C_21  and  C_22
REMARK   12  A    between atoms: C_22  and  C_23
REMARK   13  A    between atoms: C_24  and  C_25
REMARK                            x       y       z     vdW  Elec       q    Type
REMARK                         _______ _______ _______ _____ _____    ______ ____
ROOT
ATOM      1  N   UNL     1       2.492   6.599  19.679  0.00  0.00    +0.000 N 
ATOM      2  C   UNL     1       3.372   6.290  18.643  0.00  0.00    +0.000 A 
ATOM      3  C   UNL     1       4.136   5.128  18.416  0.00  0.00    +0.000 A 
ATOM      4  C   UNL     1       5.024   5.095  17.339  0.00  0.00    +0.000 A 
ATOM      5  C   UNL     1       5.109   6.189  16.485  0.00  0.00    +0.000 A 
ATOM      6  C   UNL     1       4.299   7.319  16.676  0.00  0.00    +0.000 A 
ATOM      7  C   UNL     1       3.426   7.377  17.786  0.00  0.00    +0.000 A 
ATOM      8  C   UNL     1       2.497   8.344  18.282  0.00  0.00    +0.000 A 
ATOM      9  C   UNL     1       2.108   9.590  17.801  0.00  0.00    +0.000 A 
ATOM     10  C   UNL     1       1.150  10.290  18.504  0.00  0.00    +0.000 A 
ATOM     11  N   UNL     1       0.586   9.816  19.636  0.00  0.00    +0.000 N 
ATOM     12  C   UNL     1       0.934   8.608  20.176  0.00  0.00    +0.000 A 
ATOM     13  C   UNL     1       0.300   8.133  21.451  0.00  0.00    +0.000 C 
ATOM     14  C   UNL     1       1.910   7.852  19.458  0.00  0.00    +0.000 A 
ENDROOT
BRANCH   1  15
ATOM     15  C   UNL     1       2.253   5.660  20.768  0.00  0.00    +0.000 C 
BRANCH  15  17
ATOM     16  C   UNL     1       1.475   3.298  21.181  0.00  0.00    +0.000 C 
ATOM     17  C   UNL     1       1.198   4.596  20.443  0.00  0.00    +0.000 C 
ENDBRANCH  15  17
ENDBRANCH   1  15
BRANCH   4  18
ATOM     18  O   UNL     1       5.880   4.057  17.076  0.00  0.00    +0.000 OA
BRANCH  18  19
ATOM     19  C   UNL     1       6.672   4.222  15.894  0.00  0.00    +0.000 C 
BRANCH  19  20
ATOM     20  C   UNL     1       6.029   3.459  14.738  0.00  0.00    +0.000 C 
BRANCH  20  21
ATOM     21  C   UNL     1       6.135   4.216  13.401  0.00  0.00    +0.000 C 
ATOM     22  C   UNL     1       7.469   4.951  13.254  0.00  0.00    +0.000 C 
ATOM     23  C   UNL     1       5.948   3.247  12.234  0.00  0.00    +0.000 C 
ENDBRANCH  20  21
ENDBRANCH  19  20
ENDBRANCH  18  19
ENDBRANCH   4  18
BRANCH  11  24
ATOM     24  C   UNL     1      -0.485  10.670  20.244  0.00  0.00    +0.000 C 
BRANCH  24  25
ATOM     25  C   UNL     1      -1.310  11.334  19.144  0.00  0.00    +0.000 C 
ATOM     26  C   UNL     1      -2.187  10.317  18.429  0.00  0.00    +0.000 C 
ENDBRANCH  24  25
ENDBRANCH  11  24
TORSDOF 8
ENDMDL
MODEL 9
REMARK VINA RESULT:      -6.9      3.327      8.626
REMARK  Name = 
REMARK  13 active torsions:
REMARK  status: ('A' for Active; 'I' for Inactive)
REMARK    1  A    between atoms: C_1  and  C_2
REMARK    2  A    between atoms: C_2  and  C_3
REMARK    3  A    between atoms: C_3  and  N_4
REMARK    4  A    between atoms: C_7  and  O_8
REMARK    5  A    between atoms: O_8  and  C_9
REMARK    6  A    between atoms: C_9  and  C_10
REMARK    7  A    between atoms: C_10  and  C_11
REMARK    8  A    between atoms: C_11  and  C_12
REMARK    9  A    between atoms: C_11  and  C_13
REMARK   10  A    between atoms: N_20  and  C_21
REMARK   11  A    between atoms: C_21  and  C_22
REMARK   12  A    between atoms: C_22  and  C_23
REMARK   13  A    between atoms: C_24  and  C_25
REMARK                            x       y       z     vdW  Elec       q    Type
REMARK                         _______ _______ _______ _____ _____    ______ ____
ROOT
ATOM      1  N   UNL     1       2.590   6.302  19.611  0.00  0.00    +0.000 N 
ATOM      2  C   UNL     1       2.069   7.591  19.522  0.00  0.00    +0.000 A 
ATOM      3  C   UNL     1       1.216   8.289  20.399  0.00  0.00    +0.000 A 
ATOM      4  C   UNL     1       0.755   9.556  20.038  0.00  0.00    +0.000 A 
ATOM      5  C   UNL     1       1.177  10.126  18.842  0.00  0.00    +0.000 A 
ATOM      6  C   UNL     1       2.078   9.455  18.001  0.00  0.00    +0.000 A 
ATOM      7  C   UNL     1       2.520   8.155  18.339  0.00  0.00    +0.000 A 
ATOM      8  C   UNL     1       3.395   7.204  17.732  0.00  0.00    +0.000 A 
ATOM      9  C   UNL     1       4.158   7.253  16.569  0.00  0.00    +0.000 A 
ATOM     10  C   UNL     1       4.940   6.162  16.254  0.00  0.00    +0.000 A 
ATOM     11  N   UNL     1       4.985   5.053  17.024  0.00  0.00    +0.000 N 
ATOM     12  C   UNL     1       4.248   4.928  18.170  0.00  0.00    +0.000 A 
ATOM     13  C   UNL     1       4.310   3.666  18.981  0.00  0.00    +0.000 C 
ATOM     14  C   UNL     1       3.445   6.051  18.531  0.00  0.00    +0.000 A 
ENDROOT
BRANCH   1  15
ATOM     15  C   UNL     1       2.261   5.433  20.735  0.00  0.00    +0.000 C 
BRANCH  15  17
ATOM     16  C   UNL     1       1.325   3.134  21.171  0.00  0.00    +0.000 C 
ATOM     17  C   UNL     1       1.123   4.450  20.440  0.00  0.00    +0.000 C 
ENDBRANCH  15  17
ENDBRANCH   1  15
BRANCH   4  18
ATOM     18  O   UNL     1      -0.146  10.287  20.769  0.00  0.00    +0.000 OA
BRANCH  18  19
ATOM     19  C   UNL     1      -1.152  10.944  19.990  0.00  0.00    +0.000 C 
BRANCH  19  20
ATOM     20  C   UNL     1      -1.456  12.312  20.597  0.00  0.00    +0.000 C 
BRANCH  20  21
ATOM     21  C   UNL     1      -2.050  12.208  22.014  0.00  0.00    +0.000 C 
ATOM     22  C   UNL     1      -1.186  12.919  23.059  0.00  0.00    +0.000 C 
ATOM     23  C   UNL     1      -3.464  12.789  22.034  0.00  0.00    +0.000 C 
ENDBRANCH  20  21
ENDBRANCH  19  20
ENDBRANCH  18  19
ENDBRANCH   4  18
BRANCH  11  24
ATOM     24  C   UNL     1       5.932   3.981  16.577  0.00  0.00    +0.000 C 
BRANCH  24  25
ATOM     25  C   UNL     1       7.367   4.503  16.616  0.00  0.00    +0.000 C 
ATOM     26  C   UNL     1       7.819   4.754  18.046  0.00  0.00    +0.000 C 
ENDBRANCH  24  25
ENDBRANCH  11  24
TORSDOF 8
ENDMDL
