MODEL 1
REMARK VINA RESULT:      -8.4      0.000      0.000
REMARK  Name = 
REMARK  5 active torsions:
REMARK  status: ('A' for Active; 'I' for Inactive)
REMARK    1  A    between atoms: C_1  and  O_2
REMARK    2  A    between atoms: O_2  and  C_3
REMARK    3  A    between atoms: C_6  and  C_7
REMARK    4  A    between atoms: C_21  and  O_22
REMARK    5  A    between atoms: O_22  and  C_23
REMARK                            x       y       z     vdW  Elec       q    Type
REMARK                         _______ _______ _______ _____ _____    ______ ____
ROOT
ATOM      1  C   UNL     1       2.707   6.960  18.618  0.00  0.00    +0.000 A 
ATOM      2  C   UNL     1       2.241   8.109  18.088  0.00  0.00    +0.000 A 
ATOM      3  C   UNL     1       1.396   9.013  18.853  0.00  0.00    +0.000 A 
ATOM      4  C   UNL     1       0.845  10.167  18.291  0.00  0.00    +0.000 A 
ATOM      5  C   UNL     1       0.100  11.041  19.090  0.00  0.00    +0.000 A 
ATOM      6 CL   UNL     1      -0.599  12.446  18.385  0.00  0.00    +0.000 Cl
ATOM      7  C   UNL     1      -0.079  10.791  20.448  0.00  0.00    +0.000 A 
ATOM      8  C   UNL     1       0.467   9.640  21.008  0.00  0.00    +0.000 A 
ATOM      9 CL   UNL     1       0.252   9.348  22.692  0.00  0.00    +0.000 Cl
ATOM     10  C   UNL     1       1.185   8.749  20.201  0.00  0.00    +0.000 A 
ATOM     11  O   UNL     1       1.657   7.554  20.762  0.00  0.00    +0.000 OA
ATOM     12  C   UNL     1       2.223   6.555  19.981  0.00  0.00    +0.000 A 
ATOM     13  O   UNL     1       2.327   5.417  20.421  0.00  0.00    +0.000 OA
ENDROOT
BRANCH   1  17
ATOM     14  C   UNL     1       5.483   4.554  16.305  0.00  0.00    +0.000 A 
ATOM     15  C   UNL     1       4.265   4.023  16.745  0.00  0.00    +0.000 A 
ATOM     16  C   UNL     1       3.354   4.801  17.469  0.00  0.00    +0.000 A 
ATOM     17  C   UNL     1       3.654   6.115  17.834  0.00  0.00    +0.000 A 
ATOM     18  C   UNL     1       4.923   6.601  17.469  0.00  0.00    +0.000 A 
ATOM     19  C   UNL     1       5.832   5.850  16.704  0.00  0.00    +0.000 A 
BRANCH  14  21
ATOM     20  C   UNL     1       6.208   3.972  14.125  0.00  0.00    +0.000 C 
ATOM     21  O   UNL     1       6.342   3.820  15.537  0.00  0.00    +0.000 OA
ENDBRANCH  14  21
BRANCH  19  22
ATOM     22  O   UNL     1       6.985   6.547  16.446  0.00  0.00    +0.000 OA
ATOM     23  C   UNL     1       7.583   7.306  17.486  0.00  0.00    +0.000 C 
ENDBRANCH  19  22
ENDBRANCH   1  17
TORSDOF 3
ENDMDL
MODEL 2
REMARK VINA RESULT:      -8.1      0.952      2.083
REMARK  Name = 
REMARK  5 active torsions:
REMARK  status: ('A' for Active; 'I' for Inactive)
REMARK    1  A    between atoms: C_1  and  O_2
REMARK    2  A    between atoms: O_2  and  C_3
REMARK    3  A    between atoms: C_6  and  C_7
REMARK    4  A    between atoms: C_21  and  O_22
REMARK    5  A    between atoms: O_22  and  C_23
REMARK                            x       y       z     vdW  Elec       q    Type
REMARK                         _______ _______ _______ _____ _____    ______ ____
ROOT
ATOM      1  C   UNL     1       2.575   7.097  18.678  0.00  0.00    +0.000 A 
ATOM      2  C   UNL     1       2.140   8.264  18.162  0.00  0.00    +0.000 A 
ATOM      3  C   UNL     1       1.345   9.196  18.948  0.00  0.00    +0.000 A 
ATOM      4  C   UNL     1       0.825  10.372  18.402  0.00  0.00    +0.000 A 
ATOM      5  C   UNL     1       0.130  11.268  19.220  0.00  0.00    +0.000 A 
ATOM      6 CL   UNL     1      -0.532  12.701  18.535  0.00  0.00    +0.000 Cl
ATOM      7  C   UNL     1      -0.029  11.019  20.581  0.00  0.00    +0.000 A 
ATOM      8  C   UNL     1       0.486   9.846  21.125  0.00  0.00    +0.000 A 
ATOM      9 CL   UNL     1       0.297   9.556  22.812  0.00  0.00    +0.000 Cl
ATOM     10  C   UNL     1       1.153   8.934  20.299  0.00  0.00    +0.000 A 
ATOM     11  O   UNL     1       1.594   7.720  20.846  0.00  0.00    +0.000 OA
ATOM     12  C   UNL     1       2.106   6.704  20.049  0.00  0.00    +0.000 A 
ATOM     13  O   UNL     1       2.177   5.561  20.484  0.00  0.00    +0.000 OA
ENDROOT
BRANCH   1  17
ATOM     14  C   UNL     1       5.186   4.504  16.375  0.00  0.00    +0.000 A 
ATOM     15  C   UNL     1       5.275   5.896  16.263  0.00  0.00    +0.000 A 
ATOM     16  C   UNL     1       4.454   6.738  17.022  0.00  0.00    +0.000 A 
ATOM     17  C   UNL     1       3.473   6.221  17.870  0.00  0.00    +0.000 A 
ATOM     18  C   UNL     1       3.331   4.821  17.896  0.00  0.00    +0.000 A 
ATOM     19  C   UNL     1       4.175   3.960  17.176  0.00  0.00    +0.000 A 
BRANCH  14  21
ATOM     20  C   UNL     1       6.239   3.994  14.314  0.00  0.00    +0.000 C 
ATOM     21  O   UNL     1       6.034   3.680  15.690  0.00  0.00    +0.000 OA
ENDBRANCH  14  21
BRANCH  19  22
ATOM     22  O   UNL     1       3.864   2.640  17.387  0.00  0.00    +0.000 OA
ATOM     23  C   UNL     1       2.548   2.296  17.794  0.00  0.00    +0.000 C 
ENDBRANCH  19  22
ENDBRANCH   1  17
TORSDOF 3
ENDMDL
MODEL 3
REMARK VINA RESULT:      -7.7      3.533      7.466
REMARK  Name = 
REMARK  5 active torsions:
REMARK  status: ('A' for Active; 'I' for Inactive)
REMARK    1  A    between atoms: C_1  and  O_2
REMARK    2  A    between atoms: O_2  and  C_3
REMARK    3  A    between atoms: C_6  and  C_7
REMARK    4  A    between atoms: C_21  and  O_22
REMARK    5  A    between atoms: O_22  and  C_23
REMARK                            x       y       z     vdW  Elec       q    Type
REMARK                         _______ _______ _______ _____ _____    ______ ____
ROOT
ATOM      1  C   UNL     1       2.449   7.260  18.818  0.00  0.00    +0.000 A 
ATOM      2  C   UNL     1       3.348   7.315  17.816  0.00  0.00    +0.000 A 
ATOM      3  C   UNL     1       4.025   6.121  17.332  0.00  0.00    +0.000 A 
ATOM      4  C   UNL     1       5.014   6.176  16.347  0.00  0.00    +0.000 A 
ATOM      5  C   UNL     1       5.580   4.991  15.866  0.00  0.00    +0.000 A 
ATOM      6 CL   UNL     1       6.818   5.067  14.673  0.00  0.00    +0.000 Cl
ATOM      7  C   UNL     1       5.154   3.751  16.337  0.00  0.00    +0.000 A 
ATOM      8  C   UNL     1       4.170   3.696  17.320  0.00  0.00    +0.000 A 
ATOM      9 CL   UNL     1       3.639   2.157  17.883  0.00  0.00    +0.000 Cl
ATOM     10  C   UNL     1       3.627   4.884  17.824  0.00  0.00    +0.000 A 
ATOM     11  O   UNL     1       2.698   4.813  18.873  0.00  0.00    +0.000 OA
ATOM     12  C   UNL     1       2.253   5.952  19.530  0.00  0.00    +0.000 A 
ATOM     13  O   UNL     1       1.713   5.857  20.626  0.00  0.00    +0.000 OA
ENDROOT
BRANCH   1  17
ATOM     14  C   UNL     1       0.260  10.813  20.014  0.00  0.00    +0.000 A 
ATOM     15  C   UNL     1       0.483  10.528  18.662  0.00  0.00    +0.000 A 
ATOM     16  C   UNL     1       1.166   9.371  18.269  0.00  0.00    +0.000 A 
ATOM     17  C   UNL     1       1.704   8.492  19.211  0.00  0.00    +0.000 A 
ATOM     18  C   UNL     1       1.557   8.845  20.566  0.00  0.00    +0.000 A 
ATOM     19  C   UNL     1       0.837   9.979  20.979  0.00  0.00    +0.000 A 
BRANCH  14  21
ATOM     20  C   UNL     1      -1.508  12.310  19.512  0.00  0.00    +0.000 C 
ATOM     21  O   UNL     1      -0.468  11.903  20.400  0.00  0.00    +0.000 OA
ENDBRANCH  14  21
BRANCH  19  22
ATOM     22  O   UNL     1       0.802  10.095  22.346  0.00  0.00    +0.000 OA
ATOM     23  C   UNL     1      -0.321   9.595  23.055  0.00  0.00    +0.000 C 
ENDBRANCH  19  22
ENDBRANCH   1  17
TORSDOF 3
ENDMDL
MODEL 4
REMARK VINA RESULT:      -7.7      1.369      1.939
REMARK  Name = 
REMARK  5 active torsions:
REMARK  status: ('A' for Active; 'I' for Inactive)
REMARK    1  A    between atoms: C_1  and  O_2
REMARK    2  A    between atoms: O_2  and  C_3
REMARK    3  A    between atoms: C_6  and  C_7
REMARK    4  A    between atoms: C_21  and  O_22
REMARK    5  A    between atoms: O_22  and  C_23
REMARK                            x       y       z     vdW  Elec       q    Type
REMARK                         _______ _______ _______ _____ _____    ______ ____
ROOT
ATOM      1  C   UNL     1       2.479   7.368  19.088  0.00  0.00    +0.000 A 
ATOM      2  C   UNL     1       2.075   8.525  18.525  0.00  0.00    +0.000 A 
ATOM      3  C   UNL     1       1.113   9.397  19.180  0.00  0.00    +0.000 A 
ATOM      4  C   UNL     1       0.630  10.559  18.573  0.00  0.00    +0.000 A 
ATOM      5  C   UNL     1      -0.238  11.400  19.277  0.00  0.00    +0.000 A 
ATOM      6 CL   UNL     1      -0.851  12.815  18.513  0.00  0.00    +0.000 Cl
ATOM      7  C   UNL     1      -0.609  11.110  20.588  0.00  0.00    +0.000 A 
ATOM      8  C   UNL     1      -0.130   9.952  21.192  0.00  0.00    +0.000 A 
ATOM      9 CL   UNL     1      -0.582   9.612  22.819  0.00  0.00    +0.000 Cl
ATOM     10  C   UNL     1       0.712   9.093  20.476  0.00  0.00    +0.000 A 
ATOM     11  O   UNL     1       1.118   7.889  21.070  0.00  0.00    +0.000 OA
ATOM     12  C   UNL     1       1.809   6.920  20.355  0.00  0.00    +0.000 A 
ATOM     13  O   UNL     1       1.867   5.771  20.777  0.00  0.00    +0.000 OA
ENDROOT
BRANCH   1  17
ATOM     14  C   UNL     1       5.602   4.995  17.228  0.00  0.00    +0.000 A 
ATOM     15  C   UNL     1       5.051   6.100  16.570  0.00  0.00    +0.000 A 
ATOM     16  C   UNL     1       4.062   6.885  17.174  0.00  0.00    +0.000 A 
ATOM     17  C   UNL     1       3.544   6.557  18.429  0.00  0.00    +0.000 A 
ATOM     18  C   UNL     1       4.038   5.386  19.033  0.00  0.00    +0.000 A 
ATOM     19  C   UNL     1       5.062   4.612  18.462  0.00  0.00    +0.000 A 
BRANCH  14  21
ATOM     20  C   UNL     1       6.816   4.440  15.269  0.00  0.00    +0.000 C 
ATOM     21  O   UNL     1       6.617   4.269  16.672  0.00  0.00    +0.000 OA
ENDBRANCH  14  21
BRANCH  19  22
ATOM     22  O   UNL     1       5.398   3.541  19.252  0.00  0.00    +0.000 OA
ATOM     23  C   UNL     1       4.370   2.694  19.743  0.00  0.00    +0.000 C 
ENDBRANCH  19  22
ENDBRANCH   1  17
TORSDOF 3
ENDMDL
MODEL 5
REMARK VINA RESULT:      -7.6      3.537      7.922
REMARK  Name = 
REMARK  5 active torsions:
REMARK  status: ('A' for Active; 'I' for Inactive)
REMARK    1  A    between atoms: C_1  and  O_2
REMARK    2  A    between atoms: O_2  and  C_3
REMARK    3  A    between atoms: C_6  and  C_7
REMARK    4  A    between atoms: C_21  and  O_22
REMARK    5  A    between atoms: O_22  and  C_23
REMARK                            x       y       z     vdW  Elec       q    Type
REMARK                         _______ _______ _______ _____ _____    ______ ____
ROOT
ATOM      1  C   UNL     1       2.032   7.801  19.329  0.00  0.00    +0.000 A 
ATOM      2  C   UNL     1       2.106   6.486  19.619  0.00  0.00    +0.000 A 
ATOM      3  C   UNL     1       2.827   5.557  18.762  0.00  0.00    +0.000 A 
ATOM      4  C   UNL     1       2.846   4.182  19.010  0.00  0.00    +0.000 A 
ATOM      5  C   UNL     1       3.615   3.342  18.198  0.00  0.00    +0.000 A 
ATOM      6 CL   UNL     1       3.612   1.646  18.492  0.00  0.00    +0.000 Cl
ATOM      7  C   UNL     1       4.385   3.859  17.159  0.00  0.00    +0.000 A 
ATOM      8  C   UNL     1       4.364   5.228  16.910  0.00  0.00    +0.000 A 
ATOM      9 CL   UNL     1       5.333   5.859  15.633  0.00  0.00    +0.000 Cl
ATOM     10  C   UNL     1       3.569   6.064  17.703  0.00  0.00    +0.000 A 
ATOM     11  O   UNL     1       3.494   7.429  17.386  0.00  0.00    +0.000 OA
ATOM     12  C   UNL     1       2.596   8.277  18.021  0.00  0.00    +0.000 A 
ATOM     13  O   UNL     1       2.318   9.360  17.522  0.00  0.00    +0.000 OA
ENDROOT
BRANCH   1  17
ATOM     14  C   UNL     1       0.125  10.562  22.083  0.00  0.00    +0.000 A 
ATOM     15  C   UNL     1       0.689   9.366  22.541  0.00  0.00    +0.000 A 
ATOM     16  C   UNL     1       1.328   8.483  21.662  0.00  0.00    +0.000 A 
ATOM     17  C   UNL     1       1.371   8.733  20.289  0.00  0.00    +0.000 A 
ATOM     18  C   UNL     1       0.713   9.891  19.834  0.00  0.00    +0.000 A 
ATOM     19  C   UNL     1       0.105  10.810  20.705  0.00  0.00    +0.000 A 
BRANCH  14  21
ATOM     20  C   UNL     1      -1.853  11.388  23.095  0.00  0.00    +0.000 C 
ATOM     21  O   UNL     1      -0.436  11.460  22.948  0.00  0.00    +0.000 OA
ENDBRANCH  14  21
BRANCH  19  22
ATOM     22  O   UNL     1      -0.439  11.874  20.032  0.00  0.00    +0.000 OA
ATOM     23  C   UNL     1      -1.441  11.636  19.055  0.00  0.00    +0.000 C 
ENDBRANCH  19  22
ENDBRANCH   1  17
TORSDOF 3
ENDMDL
MODEL 6
REMARK VINA RESULT:      -7.5      2.458      3.392
REMARK  Name = 
REMARK  5 active torsions:
REMARK  status: ('A' for Active; 'I' for Inactive)
REMARK    1  A    between atoms: C_1  and  O_2
REMARK    2  A    between atoms: O_2  and  C_3
REMARK    3  A    between atoms: C_6  and  C_7
REMARK    4  A    between atoms: C_21  and  O_22
REMARK    5  A    between atoms: O_22  and  C_23
REMARK                            x       y       z     vdW  Elec       q    Type
REMARK                         _______ _______ _______ _____ _____    ______ ____
ROOT
ATOM      1  C   UNL     1       2.044   7.198  19.767  0.00  0.00    +0.000 A 
ATOM      2  C   UNL     1       1.353   7.624  20.843  0.00  0.00    +0.000 A 
ATOM      3  C   UNL     1       0.724   8.936  20.875  0.00  0.00    +0.000 A 
ATOM      4  C   UNL     1       0.071   9.419  22.011  0.00  0.00    +0.000 A 
ATOM      5  C   UNL     1      -0.580  10.656  21.964  0.00  0.00    +0.000 A 
ATOM      6 CL   UNL     1      -1.358  11.258  23.376  0.00  0.00    +0.000 Cl
ATOM      7  C   UNL     1      -0.610  11.405  20.790  0.00  0.00    +0.000 A 
ATOM      8  C   UNL     1       0.043  10.926  19.658  0.00  0.00    +0.000 A 
ATOM      9 CL   UNL     1      -0.014  11.852  18.207  0.00  0.00    +0.000 Cl
ATOM     10  C   UNL     1       0.722   9.703  19.715  0.00  0.00    +0.000 A 
ATOM     11  O   UNL     1       1.444   9.274  18.592  0.00  0.00    +0.000 OA
ATOM     12  C   UNL     1       2.274   8.162  18.639  0.00  0.00    +0.000 A 
ATOM     13  O   UNL     1       3.127   7.996  17.775  0.00  0.00    +0.000 OA
ENDROOT
BRANCH   1  17
ATOM     14  C   UNL     1       3.655   3.169  19.640  0.00  0.00    +0.000 A 
ATOM     15  C   UNL     1       2.309   3.395  19.947  0.00  0.00    +0.000 A 
ATOM     16  C   UNL     1       1.777   4.689  19.965  0.00  0.00    +0.000 A 
ATOM     17  C   UNL     1       2.583   5.807  19.739  0.00  0.00    +0.000 A 
ATOM     18  C   UNL     1       3.954   5.568  19.529  0.00  0.00    +0.000 A 
ATOM     19  C   UNL     1       4.497   4.274  19.464  0.00  0.00    +0.000 A 
BRANCH  14  21
ATOM     20  C   UNL     1       3.779   1.153  18.399  0.00  0.00    +0.000 C 
ATOM     21  O   UNL     1       4.161   1.903  19.551  0.00  0.00    +0.000 OA
ENDBRANCH  14  21
BRANCH  19  22
ATOM     22  O   UNL     1       5.847   4.295  19.216  0.00  0.00    +0.000 OA
ATOM     23  C   UNL     1       6.513   5.544  19.115  0.00  0.00    +0.000 C 
ENDBRANCH  19  22
ENDBRANCH   1  17
TORSDOF 3
ENDMDL
MODEL 7
REMARK VINA RESULT:      -7.5      1.137      1.307
REMARK  Name = 
REMARK  5 active torsions:
REMARK  status: ('A' for Active; 'I' for Inactive)
REMARK    1  A    between atoms: C_1  and  O_2
REMARK    2  A    between atoms: O_2  and  C_3
REMARK    3  A    between atoms: C_6  and  C_7
REMARK    4  A    between atoms: C_21  and  O_22
REMARK    5  A    between atoms: O_22  and  C_23
REMARK                            x       y       z     vdW  Elec       q    Type
REMARK                         _______ _______ _______ _____ _____    ______ ____
ROOT
ATOM      1  C   UNL     1       3.016   7.370  18.422  0.00  0.00    +0.000 A 
ATOM      2  C   UNL     1       2.462   8.502  17.943  0.00  0.00    +0.000 A 
ATOM      3  C   UNL     1       1.425   9.212  18.676  0.00  0.00    +0.000 A 
ATOM      4  C   UNL     1       0.789  10.342  18.156  0.00  0.00    +0.000 A 
ATOM      5  C   UNL     1      -0.148  11.030  18.933  0.00  0.00    +0.000 A 
ATOM      6 CL   UNL     1      -0.948  12.405  18.275  0.00  0.00    +0.000 Cl
ATOM      7  C   UNL     1      -0.440  10.620  20.232  0.00  0.00    +0.000 A 
ATOM      8  C   UNL     1       0.191   9.493  20.750  0.00  0.00    +0.000 A 
ATOM      9 CL   UNL     1      -0.165   9.005  22.363  0.00  0.00    +0.000 Cl
ATOM     10  C   UNL     1       1.105   8.786  19.960  0.00  0.00    +0.000 A 
ATOM     11  O   UNL     1       1.669   7.606  20.467  0.00  0.00    +0.000 OA
ATOM     12  C   UNL     1       2.445   6.770  19.674  0.00  0.00    +0.000 A 
ATOM     13  O   UNL     1       2.651   5.614  20.022  0.00  0.00    +0.000 OA
ENDROOT
BRANCH   1  17
ATOM     14  C   UNL     1       6.346   5.529  16.333  0.00  0.00    +0.000 A 
ATOM     15  C   UNL     1       5.323   6.173  15.627  0.00  0.00    +0.000 A 
ATOM     16  C   UNL     1       4.260   6.791  16.296  0.00  0.00    +0.000 A 
ATOM     17  C   UNL     1       4.147   6.733  17.687  0.00  0.00    +0.000 A 
ATOM     18  C   UNL     1       5.131   5.997  18.373  0.00  0.00    +0.000 A 
ATOM     19  C   UNL     1       6.229   5.408  17.723  0.00  0.00    +0.000 A 
BRANCH  14  21
ATOM     20  C   UNL     1       7.223   4.638  14.319  0.00  0.00    +0.000 C 
ATOM     21  O   UNL     1       7.422   4.987  15.688  0.00  0.00    +0.000 OA
ENDBRANCH  14  21
BRANCH  19  22
ATOM     22  O   UNL     1       7.069   4.776  18.604  0.00  0.00    +0.000 OA
ATOM     23  C   UNL     1       7.891   5.556  19.459  0.00  0.00    +0.000 C 
ENDBRANCH  19  22
ENDBRANCH   1  17
TORSDOF 3
ENDMDL
MODEL 8
REMARK VINA RESULT:      -7.5      3.582      7.463
REMARK  Name = 
REMARK  5 active torsions:
REMARK  status: ('A' for Active; 'I' for Inactive)
REMARK    1  A    between atoms: C_1  and  O_2
REMARK    2  A    between atoms: O_2  and  C_3
REMARK    3  A    between atoms: C_6  and  C_7
REMARK    4  A    between atoms: C_21  and  O_22
REMARK    5  A    between atoms: O_22  and  C_23
REMARK                            x       y       z     vdW  Elec       q    Type
REMARK                         _______ _______ _______ _____ _____    ______ ____
ROOT
ATOM      1  C   UNL     1       2.393   6.929  19.435  0.00  0.00    +0.000 A 
ATOM      2  C   UNL     1       3.219   7.100  18.382  0.00  0.00    +0.000 A 
ATOM      3  C   UNL     1       3.831   5.969  17.703  0.00  0.00    +0.000 A 
ATOM      4  C   UNL     1       4.747   6.136  16.661  0.00  0.00    +0.000 A 
ATOM      5  C   UNL     1       5.250   5.015  15.993  0.00  0.00    +0.000 A 
ATOM      6 CL   UNL     1       6.399   5.227  14.729  0.00  0.00    +0.000 Cl
ATOM      7  C   UNL     1       4.831   3.731  16.333  0.00  0.00    +0.000 A 
ATOM      8  C   UNL     1       3.921   3.564  17.373  0.00  0.00    +0.000 A 
ATOM      9 CL   UNL     1       3.397   1.973  17.775  0.00  0.00    +0.000 Cl
ATOM     10  C   UNL     1       3.442   4.684  18.063  0.00  0.00    +0.000 A 
ATOM     11  O   UNL     1       2.591   4.492  19.160  0.00  0.00    +0.000 OA
ATOM     12  C   UNL     1       2.221   5.544  19.989  0.00  0.00    +0.000 A 
ATOM     13  O   UNL     1       1.759   5.316  21.100  0.00  0.00    +0.000 OA
ENDROOT
BRANCH   1  17
ATOM     14  C   UNL     1       0.421  10.402  21.134  0.00  0.00    +0.000 A 
ATOM     15  C   UNL     1       0.848   9.348  21.950  0.00  0.00    +0.000 A 
ATOM     16  C   UNL     1       1.507   8.237  21.411  0.00  0.00    +0.000 A 
ATOM     17  C   UNL     1       1.707   8.110  20.035  0.00  0.00    +0.000 A 
ATOM     18  C   UNL     1       1.184   9.132  19.221  0.00  0.00    +0.000 A 
ATOM     19  C   UNL     1       0.559  10.275  19.747  0.00  0.00    +0.000 A 
BRANCH  14  21
ATOM     20  C   UNL     1      -1.029  11.311  22.775  0.00  0.00    +0.000 C 
ATOM     21  O   UNL     1      -0.159  11.521  21.664  0.00  0.00    +0.000 OA
ENDBRANCH  14  21
BRANCH  19  22
ATOM     22  O   UNL     1       0.164  11.144  18.761  0.00  0.00    +0.000 OA
ATOM     23  C   UNL     1      -1.166  11.074  18.269  0.00  0.00    +0.000 C 
ENDBRANCH  19  22
ENDBRANCH   1  17
TORSDOF 3
ENDMDL
MODEL 9
REMARK VINA RESULT:      -7.4      2.508      4.138
REMARK  Name = 
REMARK  5 active torsions:
REMARK  status: ('A' for Active; 'I' for Inactive)
REMARK    1  A    between atoms: C_1  and  O_2
REMARK    2  A    between atoms: O_2  and  C_3
REMARK    3  A    between atoms: C_6  and  C_7
REMARK    4  A    between atoms: C_21  and  O_22
REMARK    5  A    between atoms: O_22  and  C_23
REMARK                            x       y       z     vdW  Elec       q    Type
REMARK                         _______ _______ _______ _____ _____    ______ ____
ROOT
ATOM      1  C   UNL     1       1.732   7.998  19.420  0.00  0.00    +0.000 A 
ATOM      2  C   UNL     1       1.146   8.392  20.568  0.00  0.00    +0.000 A 
ATOM      3  C   UNL     1       0.408   9.643  20.657  0.00  0.00    +0.000 A 
ATOM      4  C   UNL     1      -0.138  10.099  21.860  0.00  0.00    +0.000 A 
ATOM      5  C   UNL     1      -0.901  11.271  21.874  0.00  0.00    +0.000 A 
ATOM      6 CL   UNL     1      -1.548  11.842  23.364  0.00  0.00    +0.000 Cl
ATOM      7  C   UNL     1      -1.147  11.979  20.701  0.00  0.00    +0.000 A 
ATOM      8  C   UNL     1      -0.601  11.528  19.504  0.00  0.00    +0.000 A 
ATOM      9 CL   UNL     1      -0.925  12.403  18.056  0.00  0.00    +0.000 Cl
ATOM     10  C   UNL     1       0.190  10.372  19.495  0.00  0.00    +0.000 A 
ATOM     11  O   UNL     1       0.800   9.977  18.295  0.00  0.00    +0.000 OA
ATOM     12  C   UNL     1       1.729   8.946  18.256  0.00  0.00    +0.000 A 
ATOM     13  O   UNL     1       2.478   8.832  17.293  0.00  0.00    +0.000 OA
ENDROOT
BRANCH   1  17
ATOM     14  C   UNL     1       3.648   4.106  19.273  0.00  0.00    +0.000 A 
ATOM     15  C   UNL     1       3.811   5.026  18.231  0.00  0.00    +0.000 A 
ATOM     16  C   UNL     1       3.217   6.292  18.284  0.00  0.00    +0.000 A 
ATOM     17  C   UNL     1       2.389   6.660  19.348  0.00  0.00    +0.000 A 
ATOM     18  C   UNL     1       2.157   5.687  20.337  0.00  0.00    +0.000 A 
ATOM     19  C   UNL     1       2.780   4.428  20.323  0.00  0.00    +0.000 A 
BRANCH  14  21
ATOM     20  C   UNL     1       3.632   1.852  18.538  0.00  0.00    +0.000 C 
ATOM     21  O   UNL     1       4.285   2.896  19.258  0.00  0.00    +0.000 OA
ENDBRANCH  14  21
BRANCH  19  22
ATOM     22  O   UNL     1       2.425   3.666  21.408  0.00  0.00    +0.000 OA
ATOM     23  C   UNL     1       1.311   2.793  21.306  0.00  0.00    +0.000 C 
ENDBRANCH  19  22
ENDBRANCH   1  17
TORSDOF 3
ENDMDL
