MODEL 1
REMARK VINA RESULT:      -8.6      0.000      0.000
REMARK  Name = 
REMARK  1 active torsions:
REMARK  status: ('A' for Active; 'I' for Inactive)
REMARK    1  A    between atoms: C_2  and  C_3
REMARK                            x       y       z     vdW  Elec       q    Type
REMARK                         _______ _______ _______ _____ _____    ______ ____
ROOT
ATOM      1  O   UNL     1       4.588   3.893  16.501  0.00  0.00    +0.000 OA
ATOM      2  C   UNL     1       4.436   4.771  17.350  0.00  0.00    +0.000 C 
ATOM      3  N   UNL     1       3.271   5.008  18.101  0.00  0.00    +0.000 N 
ATOM      4  C   UNL     1       2.856   6.339  18.447  0.00  0.00    +0.000 A 
ATOM      5  C   UNL     1       3.018   7.375  17.511  0.00  0.00    +0.000 A 
ATOM      6  C   UNL     1       2.607   8.679  17.800  0.00  0.00    +0.000 A 
ATOM      7  C   UNL     1       2.054   8.969  19.043  0.00  0.00    +0.000 A 
ATOM      8  C   UNL     1       1.883   7.954  19.983  0.00  0.00    +0.000 A 
ATOM      9  C   UNL     1       2.255   6.638  19.682  0.00  0.00    +0.000 A 
ATOM     10  S   UNL     1       2.006   5.391  20.918  0.00  0.00    +0.000 S 
ATOM     11  C   UNL     1       1.820   3.992  19.832  0.00  0.00    +0.000 A 
ATOM     12  C   UNL     1       1.058   2.916  20.308  0.00  0.00    +0.000 A 
ATOM     13  C   UNL     1       0.851   1.793  19.514  0.00  0.00    +0.000 A 
ATOM     14  C   UNL     1       1.425   1.734  18.249  0.00  0.00    +0.000 A 
ATOM     15  C   UNL     1       2.229   2.783  17.788  0.00  0.00    +0.000 A 
ATOM     16  C   UNL     1       2.439   3.934  18.569  0.00  0.00    +0.000 A 
ENDROOT
BRANCH   2  17
ATOM     17  C   UNL     1       5.647   5.591  17.681  0.00  0.00    +0.000 A 
ATOM     18  C   UNL     1       6.319   5.376  18.894  0.00  0.00    +0.000 A 
ATOM     19  C   UNL     1       7.417   6.173  19.234  0.00  0.00    +0.000 A 
ATOM     20  C   UNL     1       7.841   7.178  18.367  0.00  0.00    +0.000 A 
ATOM     21  F   UNL     1       8.893   7.939  18.699  0.00  0.00    +0.000 F 
ATOM     22  C   UNL     1       7.174   7.418  17.180  0.00  0.00    +0.000 A 
ATOM     23  C   UNL     1       6.067   6.642  16.856  0.00  0.00    +0.000 A 
ATOM     24  F   UNL     1       5.392   6.968  15.747  0.00  0.00    +0.000 F 
ENDBRANCH   2  17
TORSDOF 1
ENDMDL
MODEL 2
REMARK VINA RESULT:      -8.6      0.977      1.388
REMARK  Name = 
REMARK  1 active torsions:
REMARK  status: ('A' for Active; 'I' for Inactive)
REMARK    1  A    between atoms: C_2  and  C_3
REMARK                            x       y       z     vdW  Elec       q    Type
REMARK                         _______ _______ _______ _____ _____    ______ ____
ROOT
ATOM      1  O   UNL     1       4.612   4.087  16.528  0.00  0.00    +0.000 OA
ATOM      2  C   UNL     1       4.422   4.959  17.376  0.00  0.00    +0.000 C 
ATOM      3  N   UNL     1       3.232   5.179  18.090  0.00  0.00    +0.000 N 
ATOM      4  C   UNL     1       2.791   6.504  18.430  0.00  0.00    +0.000 A 
ATOM      5  C   UNL     1       2.972   7.547  17.505  0.00  0.00    +0.000 A 
ATOM      6  C   UNL     1       2.537   8.844  17.787  0.00  0.00    +0.000 A 
ATOM      7  C   UNL     1       1.941   9.121  19.013  0.00  0.00    +0.000 A 
ATOM      8  C   UNL     1       1.751   8.099  19.942  0.00  0.00    +0.000 A 
ATOM      9  C   UNL     1       2.147   6.789  19.645  0.00  0.00    +0.000 A 
ATOM     10  S   UNL     1       1.872   5.532  20.866  0.00  0.00    +0.000 S 
ATOM     11  C   UNL     1       1.737   4.137  19.768  0.00  0.00    +0.000 A 
ATOM     12  C   UNL     1       0.972   3.050  20.213  0.00  0.00    +0.000 A 
ATOM     13  C   UNL     1       0.803   1.930  19.407  0.00  0.00    +0.000 A 
ATOM     14  C   UNL     1       1.418   1.884  18.160  0.00  0.00    +0.000 A 
ATOM     15  C   UNL     1       2.225   2.945  17.732  0.00  0.00    +0.000 A 
ATOM     16  C   UNL     1       2.397   4.093  18.525  0.00  0.00    +0.000 A 
ENDROOT
BRANCH   2  17
ATOM     17  C   UNL     1       5.614   5.790  17.750  0.00  0.00    +0.000 A 
ATOM     18  C   UNL     1       6.047   6.809  16.888  0.00  0.00    +0.000 A 
ATOM     19  C   UNL     1       7.188   7.552  17.205  0.00  0.00    +0.000 A 
ATOM     20  C   UNL     1       7.893   7.278  18.375  0.00  0.00    +0.000 A 
ATOM     21  F   UNL     1       8.987   7.992  18.673  0.00  0.00    +0.000 F 
ATOM     22  C   UNL     1       7.493   6.261  19.222  0.00  0.00    +0.000 A 
ATOM     23  C   UNL     1       6.372   5.506  18.893  0.00  0.00    +0.000 A 
ATOM     24  F   UNL     1       6.075   4.471  19.687  0.00  0.00    +0.000 F 
ENDBRANCH   2  17
TORSDOF 1
ENDMDL
MODEL 3
REMARK VINA RESULT:      -7.0      9.609     10.898
REMARK  Name = 
REMARK  1 active torsions:
REMARK  status: ('A' for Active; 'I' for Inactive)
REMARK    1  A    between atoms: C_2  and  C_3
REMARK                            x       y       z     vdW  Elec       q    Type
REMARK                         _______ _______ _______ _____ _____    ______ ____
ROOT
ATOM      1  O   UNL     1       7.125  12.972  17.200  0.00  0.00    +0.000 OA
ATOM      2  C   UNL     1       7.801  13.765  17.856  0.00  0.00    +0.000 C 
ATOM      3  N   UNL     1       7.482  15.108  18.124  0.00  0.00    +0.000 N 
ATOM      4  C   UNL     1       8.493  16.126  18.179  0.00  0.00    +0.000 A 
ATOM      5  C   UNL     1       9.565  16.080  17.269  0.00  0.00    +0.000 A 
ATOM      6  C   UNL     1      10.557  17.064  17.274  0.00  0.00    +0.000 A 
ATOM      7  C   UNL     1      10.506  18.091  18.211  0.00  0.00    +0.000 A 
ATOM      8  C   UNL     1       9.450  18.154  19.118  0.00  0.00    +0.000 A 
ATOM      9  C   UNL     1       8.431  17.195  19.089  0.00  0.00    +0.000 A 
ATOM     10  S   UNL     1       7.112  17.333  20.266  0.00  0.00    +0.000 S 
ATOM     11  C   UNL     1       5.840  16.526  19.317  0.00  0.00    +0.000 A 
ATOM     12  C   UNL     1       4.514  16.894  19.589  0.00  0.00    +0.000 A 
ATOM     13  C   UNL     1       3.464  16.323  18.879  0.00  0.00    +0.000 A 
ATOM     14  C   UNL     1       3.734  15.365  17.909  0.00  0.00    +0.000 A 
ATOM     15  C   UNL     1       5.052  14.957  17.668  0.00  0.00    +0.000 A 
ATOM     16  C   UNL     1       6.129  15.531  18.364  0.00  0.00    +0.000 A 
ENDROOT
BRANCH   2  17
ATOM     17  C   UNL     1       9.025  13.203  18.518  0.00  0.00    +0.000 A 
ATOM     18  C   UNL     1      10.018  12.595  17.735  0.00  0.00    +0.000 A 
ATOM     19  C   UNL     1      11.136  12.022  18.349  0.00  0.00    +0.000 A 
ATOM     20  C   UNL     1      11.261  12.056  19.736  0.00  0.00    +0.000 A 
ATOM     21  F   UNL     1      12.333  11.503  20.319  0.00  0.00    +0.000 F 
ATOM     22  C   UNL     1      10.278  12.628  20.523  0.00  0.00    +0.000 A 
ATOM     23  C   UNL     1       9.154  13.175  19.912  0.00  0.00    +0.000 A 
ATOM     24  F   UNL     1       8.183  13.633  20.711  0.00  0.00    +0.000 F 
ENDBRANCH   2  17
TORSDOF 1
ENDMDL
MODEL 4
REMARK VINA RESULT:      -6.7      2.614      5.408
REMARK  Name = 
REMARK  1 active torsions:
REMARK  status: ('A' for Active; 'I' for Inactive)
REMARK    1  A    between atoms: C_2  and  C_3
REMARK                            x       y       z     vdW  Elec       q    Type
REMARK                         _______ _______ _______ _____ _____    ______ ____
ROOT
ATOM      1  O   UNL     1       3.294   7.919  16.636  0.00  0.00    +0.000 OA
ATOM      2  C   UNL     1       3.108   7.130  17.563  0.00  0.00    +0.000 C 
ATOM      3  N   UNL     1       3.621   5.825  17.658  0.00  0.00    +0.000 N 
ATOM      4  C   UNL     1       2.859   4.757  18.245  0.00  0.00    +0.000 A 
ATOM      5  C   UNL     1       1.474   4.692  18.010  0.00  0.00    +0.000 A 
ATOM      6  C   UNL     1       0.702   3.658  18.544  0.00  0.00    +0.000 A 
ATOM      7  C   UNL     1       1.300   2.690  19.344  0.00  0.00    +0.000 A 
ATOM      8  C   UNL     1       2.672   2.738  19.585  0.00  0.00    +0.000 A 
ATOM      9  C   UNL     1       3.458   3.748  19.017  0.00  0.00    +0.000 A 
ATOM     10  S   UNL     1       5.198   3.750  19.357  0.00  0.00    +0.000 S 
ATOM     11  C   UNL     1       5.745   4.569  17.873  0.00  0.00    +0.000 A 
ATOM     12  C   UNL     1       7.048   4.290  17.437  0.00  0.00    +0.000 A 
ATOM     13  C   UNL     1       7.543   4.876  16.277  0.00  0.00    +0.000 A 
ATOM     14  C   UNL     1       6.744   5.761  15.561  0.00  0.00    +0.000 A 
ATOM     15  C   UNL     1       5.461   6.082  16.020  0.00  0.00    +0.000 A 
ATOM     16  C   UNL     1       4.935   5.490  17.182  0.00  0.00    +0.000 A 
ENDROOT
BRANCH   2  17
ATOM     17  C   UNL     1       2.353   7.661  18.744  0.00  0.00    +0.000 A 
ATOM     18  C   UNL     1       2.349   6.938  19.947  0.00  0.00    +0.000 A 
ATOM     19  C   UNL     1       1.603   7.399  21.036  0.00  0.00    +0.000 A 
ATOM     20  C   UNL     1       0.865   8.576  20.924  0.00  0.00    +0.000 A 
ATOM     21  F   UNL     1       0.150   9.012  21.970  0.00  0.00    +0.000 F 
ATOM     22  C   UNL     1       0.837   9.286  19.738  0.00  0.00    +0.000 A 
ATOM     23  C   UNL     1       1.560   8.812  18.648  0.00  0.00    +0.000 A 
ATOM     24  F   UNL     1       1.431   9.474  17.492  0.00  0.00    +0.000 F 
ENDBRANCH   2  17
TORSDOF 1
ENDMDL
MODEL 5
REMARK VINA RESULT:      -6.7      5.564      8.191
REMARK  Name = 
REMARK  1 active torsions:
REMARK  status: ('A' for Active; 'I' for Inactive)
REMARK    1  A    between atoms: C_2  and  C_3
REMARK                            x       y       z     vdW  Elec       q    Type
REMARK                         _______ _______ _______ _____ _____    ______ ____
ROOT
ATOM      1  O   UNL     1      -1.765  10.257  17.916  0.00  0.00    +0.000 OA
ATOM      2  C   UNL     1      -0.887  10.624  18.697  0.00  0.00    +0.000 C 
ATOM      3  N   UNL     1      -0.898  11.800  19.468  0.00  0.00    +0.000 N 
ATOM      4  C   UNL     1       0.304  12.545  19.722  0.00  0.00    +0.000 A 
ATOM      5  C   UNL     1       1.261  12.675  18.700  0.00  0.00    +0.000 A 
ATOM      6  C   UNL     1       2.432  13.410  18.899  0.00  0.00    +0.000 A 
ATOM      7  C   UNL     1       2.674  14.003  20.134  0.00  0.00    +0.000 A 
ATOM      8  C   UNL     1       1.735  13.887  21.158  0.00  0.00    +0.000 A 
ATOM      9  C   UNL     1       0.541  13.187  20.949  0.00  0.00    +0.000 A 
ATOM     10  S   UNL     1      -0.616  13.082  22.289  0.00  0.00    +0.000 S 
ATOM     11  C   UNL     1      -2.104  12.908  21.326  0.00  0.00    +0.000 A 
ATOM     12  C   UNL     1      -3.297  13.354  21.913  0.00  0.00    +0.000 A 
ATOM     13  C   UNL     1      -4.498  13.269  21.219  0.00  0.00    +0.000 A 
ATOM     14  C   UNL     1      -4.515  12.717  19.943  0.00  0.00    +0.000 A 
ATOM     15  C   UNL     1      -3.336  12.224  19.372  0.00  0.00    +0.000 A 
ATOM     16  C   UNL     1      -2.108  12.313  20.050  0.00  0.00    +0.000 A 
ENDROOT
BRANCH   2  17
ATOM     17  C   UNL     1       0.246   9.666  18.918  0.00  0.00    +0.000 A 
ATOM     18  C   UNL     1       1.019   9.243  17.826  0.00  0.00    +0.000 A 
ATOM     19  C   UNL     1       2.042   8.309  18.016  0.00  0.00    +0.000 A 
ATOM     20  C   UNL     1       2.292   7.801  19.289  0.00  0.00    +0.000 A 
ATOM     21  F   UNL     1       3.272   6.905  19.464  0.00  0.00    +0.000 F 
ATOM     22  C   UNL     1       1.522   8.189  20.370  0.00  0.00    +0.000 A 
ATOM     23  C   UNL     1       0.489   9.099  20.175  0.00  0.00    +0.000 A 
ATOM     24  F   UNL     1      -0.292   9.375  21.226  0.00  0.00    +0.000 F 
ENDBRANCH   2  17
TORSDOF 1
ENDMDL
MODEL 6
REMARK VINA RESULT:      -6.7      7.839     10.750
REMARK  Name = 
REMARK  1 active torsions:
REMARK  status: ('A' for Active; 'I' for Inactive)
REMARK    1  A    between atoms: C_2  and  C_3
REMARK                            x       y       z     vdW  Elec       q    Type
REMARK                         _______ _______ _______ _____ _____    ______ ____
ROOT
ATOM      1  O   UNL     1      -1.391  15.504  20.538  0.00  0.00    +0.000 OA
ATOM      2  C   UNL     1      -1.425  14.276  20.448  0.00  0.00    +0.000 C 
ATOM      3  N   UNL     1      -0.758  13.494  19.489  0.00  0.00    +0.000 N 
ATOM      4  C   UNL     1      -1.352  12.307  18.939  0.00  0.00    +0.000 A 
ATOM      5  C   UNL     1      -2.731  12.291  18.667  0.00  0.00    +0.000 A 
ATOM      6  C   UNL     1      -3.343  11.165  18.112  0.00  0.00    +0.000 A 
ATOM      7  C   UNL     1      -2.588  10.027  17.849  0.00  0.00    +0.000 A 
ATOM      8  C   UNL     1      -1.218  10.026  18.110  0.00  0.00    +0.000 A 
ATOM      9  C   UNL     1      -0.593  11.167  18.626  0.00  0.00    +0.000 A 
ATOM     10  S   UNL     1       1.152  11.103  18.931  0.00  0.00    +0.000 S 
ATOM     11  C   UNL     1       1.508  12.836  18.735  0.00  0.00    +0.000 A 
ATOM     12  C   UNL     1       2.805  13.177  18.327  0.00  0.00    +0.000 A 
ATOM     13  C   UNL     1       3.157  14.509  18.134  0.00  0.00    +0.000 A 
ATOM     14  C   UNL     1       2.217  15.506  18.369  0.00  0.00    +0.000 A 
ATOM     15  C   UNL     1       0.936  15.175  18.825  0.00  0.00    +0.000 A 
ATOM     16  C   UNL     1       0.555  13.835  19.013  0.00  0.00    +0.000 A 
ENDROOT
BRANCH   2  17
ATOM     17  C   UNL     1      -2.165  13.552  21.533  0.00  0.00    +0.000 A 
ATOM     18  C   UNL     1      -3.503  13.881  21.799  0.00  0.00    +0.000 A 
ATOM     19  C   UNL     1      -4.182  13.248  22.845  0.00  0.00    +0.000 A 
ATOM     20  C   UNL     1      -3.528  12.293  23.621  0.00  0.00    +0.000 A 
ATOM     21  F   UNL     1      -4.183  11.691  24.622  0.00  0.00    +0.000 F 
ATOM     22  C   UNL     1      -2.202  11.977  23.387  0.00  0.00    +0.000 A 
ATOM     23  C   UNL     1      -1.521  12.626  22.363  0.00  0.00    +0.000 A 
ATOM     24  F   UNL     1      -0.215  12.362  22.232  0.00  0.00    +0.000 F 
ENDBRANCH   2  17
TORSDOF 1
ENDMDL
MODEL 7
REMARK VINA RESULT:      -6.6      6.982      9.257
REMARK  Name = 
REMARK  1 active torsions:
REMARK  status: ('A' for Active; 'I' for Inactive)
REMARK    1  A    between atoms: C_2  and  C_3
REMARK                            x       y       z     vdW  Elec       q    Type
REMARK                         _______ _______ _______ _____ _____    ______ ____
ROOT
ATOM      1  O   UNL     1      -3.095  13.652  20.403  0.00  0.00    +0.000 OA
ATOM      2  C   UNL     1      -2.014  13.074  20.525  0.00  0.00    +0.000 C 
ATOM      3  N   UNL     1      -1.709  11.777  20.075  0.00  0.00    +0.000 N 
ATOM      4  C   UNL     1      -0.847  10.904  20.822  0.00  0.00    +0.000 A 
ATOM      5  C   UNL     1      -0.926  10.897  22.226  0.00  0.00    +0.000 A 
ATOM      6  C   UNL     1      -0.121  10.046  22.988  0.00  0.00    +0.000 A 
ATOM      7  C   UNL     1       0.795   9.211  22.356  0.00  0.00    +0.000 A 
ATOM      8  C   UNL     1       0.884   9.203  20.964  0.00  0.00    +0.000 A 
ATOM      9  C   UNL     1       0.050  10.023  20.195  0.00  0.00    +0.000 A 
ATOM     10  S   UNL     1       0.209   9.962  18.430  0.00  0.00    +0.000 S 
ATOM     11  C   UNL     1      -1.456  10.434  18.009  0.00  0.00    +0.000 A 
ATOM     12  C   UNL     1      -1.953   9.981  16.779  0.00  0.00    +0.000 A 
ATOM     13  C   UNL     1      -3.250  10.292  16.386  0.00  0.00    +0.000 A 
ATOM     14  C   UNL     1      -4.047  11.076  17.212  0.00  0.00    +0.000 A 
ATOM     15  C   UNL     1      -3.539  11.574  18.418  0.00  0.00    +0.000 A 
ATOM     16  C   UNL     1      -2.235  11.260  18.841  0.00  0.00    +0.000 A 
ENDROOT
BRANCH   2  17
ATOM     17  C   UNL     1      -0.895  13.879  21.116  0.00  0.00    +0.000 A 
ATOM     18  C   UNL     1      -1.068  14.495  22.365  0.00  0.00    +0.000 A 
ATOM     19  C   UNL     1      -0.049  15.291  22.897  0.00  0.00    +0.000 A 
ATOM     20  C   UNL     1       1.136  15.471  22.186  0.00  0.00    +0.000 A 
ATOM     21  F   UNL     1       2.108  16.236  22.699  0.00  0.00    +0.000 F 
ATOM     22  C   UNL     1       1.311  14.891  20.942  0.00  0.00    +0.000 A 
ATOM     23  C   UNL     1       0.286  14.121  20.403  0.00  0.00    +0.000 A 
ATOM     24  F   UNL     1       0.457  13.657  19.159  0.00  0.00    +0.000 F 
ENDBRANCH   2  17
TORSDOF 1
ENDMDL
MODEL 8
REMARK VINA RESULT:      -6.6      8.153     10.115
REMARK  Name = 
REMARK  1 active torsions:
REMARK  status: ('A' for Active; 'I' for Inactive)
REMARK    1  A    between atoms: C_2  and  C_3
REMARK                            x       y       z     vdW  Elec       q    Type
REMARK                         _______ _______ _______ _____ _____    ______ ____
ROOT
ATOM      1  O   UNL     1      -0.284  13.053  22.965  0.00  0.00    +0.000 OA
ATOM      2  C   UNL     1      -0.748  13.086  21.825  0.00  0.00    +0.000 C 
ATOM      3  N   UNL     1      -1.985  12.559  21.415  0.00  0.00    +0.000 N 
ATOM      4  C   UNL     1      -2.153  11.947  20.126  0.00  0.00    +0.000 A 
ATOM      5  C   UNL     1      -1.119  11.152  19.602  0.00  0.00    +0.000 A 
ATOM      6  C   UNL     1      -1.252  10.521  18.363  0.00  0.00    +0.000 A 
ATOM      7  C   UNL     1      -2.412  10.702  17.617  0.00  0.00    +0.000 A 
ATOM      8  C   UNL     1      -3.450  11.484  18.122  0.00  0.00    +0.000 A 
ATOM      9  C   UNL     1      -3.338  12.083  19.382  0.00  0.00    +0.000 A 
ATOM     10  S   UNL     1      -4.695  13.061  19.971  0.00  0.00    +0.000 S 
ATOM     11  C   UNL     1      -4.427  12.841  21.717  0.00  0.00    +0.000 A 
ATOM     12  C   UNL     1      -5.550  12.948  22.551  0.00  0.00    +0.000 A 
ATOM     13  C   UNL     1      -5.427  12.772  23.925  0.00  0.00    +0.000 A 
ATOM     14  C   UNL     1      -4.177  12.508  24.473  0.00  0.00    +0.000 A 
ATOM     15  C   UNL     1      -3.044  12.450  23.651  0.00  0.00    +0.000 A 
ATOM     16  C   UNL     1      -3.148  12.611  22.258  0.00  0.00    +0.000 A 
ENDROOT
BRANCH   2  17
ATOM     17  C   UNL     1       0.042  13.858  20.810  0.00  0.00    +0.000 A 
ATOM     18  C   UNL     1      -0.530  14.984  20.198  0.00  0.00    +0.000 A 
ATOM     19  C   UNL     1       0.180  15.677  19.212  0.00  0.00    +0.000 A 
ATOM     20  C   UNL     1       1.452  15.248  18.840  0.00  0.00    +0.000 A 
ATOM     21  F   UNL     1       2.126  15.915  17.893  0.00  0.00    +0.000 F 
ATOM     22  C   UNL     1       2.018  14.125  19.415  0.00  0.00    +0.000 A 
ATOM     23  C   UNL     1       1.300  13.422  20.377  0.00  0.00    +0.000 A 
ATOM     24  F   UNL     1       1.842  12.289  20.840  0.00  0.00    +0.000 F 
ENDBRANCH   2  17
TORSDOF 1
ENDMDL
MODEL 9
REMARK VINA RESULT:      -6.6      7.035      9.766
REMARK  Name = 
REMARK  1 active torsions:
REMARK  status: ('A' for Active; 'I' for Inactive)
REMARK    1  A    between atoms: C_2  and  C_3
REMARK                            x       y       z     vdW  Elec       q    Type
REMARK                         _______ _______ _______ _____ _____    ______ ____
ROOT
ATOM      1  O   UNL     1       1.096  13.201  18.420  0.00  0.00    +0.000 OA
ATOM      2  C   UNL     1       0.334  12.584  19.165  0.00  0.00    +0.000 C 
ATOM      3  N   UNL     1       0.275  12.689  20.566  0.00  0.00    +0.000 N 
ATOM      4  C   UNL     1       0.006  11.548  21.396  0.00  0.00    +0.000 A 
ATOM      5  C   UNL     1       0.558  10.302  21.052  0.00  0.00    +0.000 A 
ATOM      6  C   UNL     1       0.339   9.173  21.845  0.00  0.00    +0.000 A 
ATOM      7  C   UNL     1      -0.460   9.270  22.979  0.00  0.00    +0.000 A 
ATOM      8  C   UNL     1      -1.013  10.498  23.338  0.00  0.00    +0.000 A 
ATOM      9  C   UNL     1      -0.761  11.641  22.570  0.00  0.00    +0.000 A 
ATOM     10  S   UNL     1      -1.489  13.175  23.083  0.00  0.00    +0.000 S 
ATOM     11  C   UNL     1      -0.275  14.276  22.387  0.00  0.00    +0.000 A 
ATOM     12  C   UNL     1      -0.120  15.524  23.006  0.00  0.00    +0.000 A 
ATOM     13  C   UNL     1       0.819  16.434  22.533  0.00  0.00    +0.000 A 
ATOM     14  C   UNL     1       1.592  16.107  21.425  0.00  0.00    +0.000 A 
ATOM     15  C   UNL     1       1.406  14.883  20.771  0.00  0.00    +0.000 A 
ATOM     16  C   UNL     1       0.472  13.943  21.241  0.00  0.00    +0.000 A 
ENDROOT
BRANCH   2  17
ATOM     17  C   UNL     1      -0.696  11.724  18.496  0.00  0.00    +0.000 A 
ATOM     18  C   UNL     1      -2.052  12.079  18.572  0.00  0.00    +0.000 A 
ATOM     19  C   UNL     1      -3.022  11.253  17.996  0.00  0.00    +0.000 A 
ATOM     20  C   UNL     1      -2.641  10.080  17.348  0.00  0.00    +0.000 A 
ATOM     21  F   UNL     1      -3.576   9.292  16.800  0.00  0.00    +0.000 F 
ATOM     22  C   UNL     1      -1.312   9.703  17.288  0.00  0.00    +0.000 A 
ATOM     23  C   UNL     1      -0.351  10.513  17.883  0.00  0.00    +0.000 A 
ATOM     24  F   UNL     1       0.911  10.066  17.885  0.00  0.00    +0.000 F 
ENDBRANCH   2  17
TORSDOF 1
ENDMDL
