MODEL 1
REMARK VINA RESULT:      -7.3      0.000      0.000
REMARK  Name = 
REMARK  6 active torsions:
REMARK  status: ('A' for Active; 'I' for Inactive)
REMARK    1  A    between atoms: C_1  and  C_2
REMARK    2  A    between atoms: C_2  and  N_3
REMARK    3  A    between atoms: C_5  and  C_6
REMARK    4  A    between atoms: C_6  and  O_8
REMARK    5  A    between atoms: C_15  and  N_16
REMARK    6  A    between atoms: C_20  and  C_21
REMARK                            x       y       z     vdW  Elec       q    Type
REMARK                         _______ _______ _______ _____ _____    ______ ____
ROOT
ATOM      1  N   UNL     1       2.605   5.094  20.057  0.00  0.00    +0.000 N 
ATOM      2  C   UNL     1       3.100   4.094  19.230  0.00  0.00    +0.000 A 
ATOM      3  C   UNL     1       3.714   4.261  18.059  0.00  0.00    +0.000 A 
ATOM      4  C   UNL     1       3.849   5.648  17.588  0.00  0.00    +0.000 A 
ATOM      5  O   UNL     1       4.517   5.895  16.589  0.00  0.00    +0.000 OA
ATOM      6  C   UNL     1       3.105   6.708  18.314  0.00  0.00    +0.000 A 
ATOM      7  C   UNL     1       3.031   7.982  17.739  0.00  0.00    +0.000 A 
ATOM      8  C   UNL     1       2.245   8.978  18.317  0.00  0.00    +0.000 A 
ATOM      9  F   UNL     1       2.261  10.181  17.722  0.00  0.00    +0.000 F 
ATOM     10  C   UNL     1       1.474   8.752  19.463  0.00  0.00    +0.000 A 
ATOM     11  C   UNL     1       1.621   7.436  20.017  0.00  0.00    +0.000 A 
ATOM     12  F   UNL     1       0.780   7.112  20.997  0.00  0.00    +0.000 F 
ATOM     13  C   UNL     1       2.451   6.398  19.518  0.00  0.00    +0.000 A 
ENDROOT
BRANCH  10  14
ATOM     14  N   UNL     1       0.602   9.705  19.995  0.00  0.00    +0.000 N 
ATOM     15  C   UNL     1       0.981  10.601  21.108  0.00  0.00    +0.000 C 
ATOM     16  C   UNL     1       0.944  12.081  20.650  0.00  0.00    +0.000 C 
ATOM     17  N   UNL     1      -0.352  12.494  20.091  0.00  0.00    +0.000 NA
ATOM     18  C   UNL     1      -0.735  11.590  18.983  0.00  0.00    +0.000 C 
ATOM     19  C   UNL     1      -2.125  12.021  18.505  0.00  0.00    +0.000 C 
ATOM     20  C   UNL     1      -0.713  10.086  19.403  0.00  0.00    +0.000 C 
ATOM     21  H   UNL     1      -0.282  13.450  19.740  0.00  0.00    +0.000 HD
ENDBRANCH  10  14
BRANCH   1  23
ATOM     22  C   UNL     1       2.023   3.235  21.661  0.00  0.00    +0.000 C 
ATOM     23  C   UNL     1       2.340   4.701  21.458  0.00  0.00    +0.000 C 
ENDBRANCH   1  23
BRANCH   3  24
ATOM     24  C   UNL     1       4.243   3.071  17.368  0.00  0.00    +0.000 C 
ATOM     25  O   UNL     1       3.753   1.958  17.471  0.00  0.00    +0.000 OA
BRANCH  24  26
ATOM     26  O   UNL     1       5.334   3.316  16.615  0.00  0.00    +0.000 OA
ATOM     27  H   UNL     1       5.466   4.272  16.403  0.00  0.00    +0.000 HD
ENDBRANCH  24  26
ENDBRANCH   3  24
TORSDOF 4
ENDMDL
MODEL 2
REMARK VINA RESULT:      -7.3      3.710      7.682
REMARK  Name = 
REMARK  6 active torsions:
REMARK  status: ('A' for Active; 'I' for Inactive)
REMARK    1  A    between atoms: C_1  and  C_2
REMARK    2  A    between atoms: C_2  and  N_3
REMARK    3  A    between atoms: C_5  and  C_6
REMARK    4  A    between atoms: C_6  and  O_8
REMARK    5  A    between atoms: C_15  and  N_16
REMARK    6  A    between atoms: C_20  and  C_21
REMARK                            x       y       z     vdW  Elec       q    Type
REMARK                         _______ _______ _______ _____ _____    ______ ____
ROOT
ATOM      1  N   UNL     1       1.307  10.481  18.949  0.00  0.00    +0.000 N 
ATOM      2  C   UNL     1       0.276  11.195  19.545  0.00  0.00    +0.000 A 
ATOM      3  C   UNL     1      -0.351  10.890  20.681  0.00  0.00    +0.000 A 
ATOM      4  C   UNL     1       0.079   9.653  21.348  0.00  0.00    +0.000 A 
ATOM      5  O   UNL     1      -0.354   9.373  22.462  0.00  0.00    +0.000 OA
ATOM      6  C   UNL     1       0.987   8.739  20.609  0.00  0.00    +0.000 A 
ATOM      7  C   UNL     1       1.208   7.458  21.129  0.00  0.00    +0.000 A 
ATOM      8  C   UNL     1       1.953   6.521  20.413  0.00  0.00    +0.000 A 
ATOM      9  F   UNL     1       2.149   5.330  21.002  0.00  0.00    +0.000 F 
ATOM     10  C   UNL     1       2.479   6.793  19.145  0.00  0.00    +0.000 A 
ATOM     11  C   UNL     1       2.240   8.132  18.688  0.00  0.00    +0.000 A 
ATOM     12  F   UNL     1       2.562   8.388  17.422  0.00  0.00    +0.000 F 
ATOM     13  C   UNL     1       1.548   9.153  19.391  0.00  0.00    +0.000 A 
ENDROOT
BRANCH  10  14
ATOM     14  N   UNL     1       3.136   5.833  18.372  0.00  0.00    +0.000 N 
ATOM     15  C   UNL     1       4.602   5.837  18.171  0.00  0.00    +0.000 C 
ATOM     16  C   UNL     1       5.232   4.548  18.756  0.00  0.00    +0.000 C 
ATOM     17  N   UNL     1       4.654   3.309  18.214  0.00  0.00    +0.000 NA
ATOM     18  C   UNL     1       3.185   3.311  18.407  0.00  0.00    +0.000 C 
ATOM     19  C   UNL     1       2.638   2.041  17.749  0.00  0.00    +0.000 C 
ATOM     20  C   UNL     1       2.508   4.595  17.830  0.00  0.00    +0.000 C 
ATOM     21  H   UNL     1       5.057   2.506  18.696  0.00  0.00    +0.000 HD
ENDBRANCH  10  14
BRANCH   1  23
ATOM     22  C   UNL     1       2.392  12.658  18.280  0.00  0.00    +0.000 C 
ATOM     23  C   UNL     1       2.100  11.213  17.938  0.00  0.00    +0.000 C 
ENDBRANCH   1  23
BRANCH   3  24
ATOM     24  C   UNL     1      -1.370  11.825  21.193  0.00  0.00    +0.000 C 
ATOM     25  O   UNL     1      -2.285  12.264  20.514  0.00  0.00    +0.000 OA
BRANCH  24  26
ATOM     26  O   UNL     1      -1.196  12.170  22.485  0.00  0.00    +0.000 OA
ATOM     27  H   UNL     1      -1.505  13.084  22.698  0.00  0.00    +0.000 HD
ENDBRANCH  24  26
ENDBRANCH   3  24
TORSDOF 4
ENDMDL
MODEL 3
REMARK VINA RESULT:      -6.9      1.925      3.400
REMARK  Name = 
REMARK  6 active torsions:
REMARK  status: ('A' for Active; 'I' for Inactive)
REMARK    1  A    between atoms: C_1  and  C_2
REMARK    2  A    between atoms: C_2  and  N_3
REMARK    3  A    between atoms: C_5  and  C_6
REMARK    4  A    between atoms: C_6  and  O_8
REMARK    5  A    between atoms: C_15  and  N_16
REMARK    6  A    between atoms: C_20  and  C_21
REMARK                            x       y       z     vdW  Elec       q    Type
REMARK                         _______ _______ _______ _____ _____    ______ ____
ROOT
ATOM      1  N   UNL     1       3.967   5.107  18.236  0.00  0.00    +0.000 N 
ATOM      2  C   UNL     1       4.503   3.925  18.729  0.00  0.00    +0.000 A 
ATOM      3  C   UNL     1       4.029   3.196  19.739  0.00  0.00    +0.000 A 
ATOM      4  C   UNL     1       2.833   3.721  20.413  0.00  0.00    +0.000 A 
ATOM      5  O   UNL     1       2.259   3.044  21.262  0.00  0.00    +0.000 OA
ATOM      6  C   UNL     1       2.394   5.101  20.085  0.00  0.00    +0.000 A 
ATOM      7  C   UNL     1       1.412   5.695  20.887  0.00  0.00    +0.000 A 
ATOM      8  C   UNL     1       1.053   7.029  20.697  0.00  0.00    +0.000 A 
ATOM      9  F   UNL     1       0.076   7.508  21.483  0.00  0.00    +0.000 F 
ATOM     10  C   UNL     1       1.667   7.841  19.736  0.00  0.00    +0.000 A 
ATOM     11  C   UNL     1       2.639   7.159  18.931  0.00  0.00    +0.000 A 
ATOM     12  F   UNL     1       3.377   7.923  18.126  0.00  0.00    +0.000 F 
ATOM     13  C   UNL     1       3.007   5.792  19.027  0.00  0.00    +0.000 A 
ENDROOT
BRANCH  10  14
ATOM     14  N   UNL     1       1.392   9.204  19.603  0.00  0.00    +0.000 N 
ATOM     15  C   UNL     1       1.038   9.825  18.308  0.00  0.00    +0.000 C 
ATOM     16  C   UNL     1      -0.390  10.422  18.367  0.00  0.00    +0.000 C 
ATOM     17  N   UNL     1      -0.582  11.390  19.457  0.00  0.00    +0.000 NA
ATOM     18  C   UNL     1      -0.217  10.771  20.752  0.00  0.00    +0.000 C 
ATOM     19  C   UNL     1      -0.357  11.851  21.828  0.00  0.00    +0.000 C 
ATOM     20  C   UNL     1       1.218  10.156  20.738  0.00  0.00    +0.000 C 
ATOM     21  H   UNL     1      -1.558  11.683  19.484  0.00  0.00    +0.000 HD
ENDBRANCH  10  14
BRANCH   1  23
ATOM     22  C   UNL     1       5.097   4.414  16.089  0.00  0.00    +0.000 C 
ATOM     23  C   UNL     1       4.417   5.507  16.885  0.00  0.00    +0.000 C 
ENDBRANCH   1  23
BRANCH   3  24
ATOM     24  C   UNL     1       4.699   1.922  20.059  0.00  0.00    +0.000 C 
ATOM     25  O   UNL     1       5.329   1.731  21.087  0.00  0.00    +0.000 OA
BRANCH  24  26
ATOM     26  O   UNL     1       4.568   0.980  19.103  0.00  0.00    +0.000 OA
ATOM     27  H   UNL     1       4.069   0.180  19.398  0.00  0.00    +0.000 HD
ENDBRANCH  24  26
ENDBRANCH   3  24
TORSDOF 4
ENDMDL
MODEL 4
REMARK VINA RESULT:      -6.7      3.916      7.750
REMARK  Name = 
REMARK  6 active torsions:
REMARK  status: ('A' for Active; 'I' for Inactive)
REMARK    1  A    between atoms: C_1  and  C_2
REMARK    2  A    between atoms: C_2  and  N_3
REMARK    3  A    between atoms: C_5  and  C_6
REMARK    4  A    between atoms: C_6  and  O_8
REMARK    5  A    between atoms: C_15  and  N_16
REMARK    6  A    between atoms: C_20  and  C_21
REMARK                            x       y       z     vdW  Elec       q    Type
REMARK                         _______ _______ _______ _____ _____    ______ ____
ROOT
ATOM      1  N   UNL     1       0.971  10.999  19.669  0.00  0.00    +0.000 N 
ATOM      2  C   UNL     1       0.128  11.658  20.556  0.00  0.00    +0.000 A 
ATOM      3  C   UNL     1      -0.210  11.254  21.780  0.00  0.00    +0.000 A 
ATOM      4  C   UNL     1       0.347   9.966  22.217  0.00  0.00    +0.000 A 
ATOM      5  O   UNL     1       0.192   9.590  23.375  0.00  0.00    +0.000 OA
ATOM      6  C   UNL     1       1.031   9.121  21.205  0.00  0.00    +0.000 A 
ATOM      7  C   UNL     1       1.349   7.801  21.546  0.00  0.00    +0.000 A 
ATOM      8  C   UNL     1       1.880   6.930  20.595  0.00  0.00    +0.000 A 
ATOM      9  F   UNL     1       2.192   5.695  21.017  0.00  0.00    +0.000 F 
ATOM     10  C   UNL     1       2.088   7.311  19.264  0.00  0.00    +0.000 A 
ATOM     11  C   UNL     1       1.770   8.684  18.993  0.00  0.00    +0.000 A 
ATOM     12  F   UNL     1       1.780   9.049  17.712  0.00  0.00    +0.000 F 
ATOM     13  C   UNL     1       1.288   9.639  19.926  0.00  0.00    +0.000 A 
ENDROOT
BRANCH  10  14
ATOM     14  N   UNL     1       2.521   6.424  18.277  0.00  0.00    +0.000 N 
ATOM     15  C   UNL     1       3.796   6.598  17.549  0.00  0.00    +0.000 C 
ATOM     16  C   UNL     1       4.745   5.405  17.825  0.00  0.00    +0.000 C 
ATOM     17  N   UNL     1       4.158   4.096  17.501  0.00  0.00    +0.000 NA
ATOM     18  C   UNL     1       2.875   3.926  18.222  0.00  0.00    +0.000 C 
ATOM     19  C   UNL     1       2.278   2.589  17.778  0.00  0.00    +0.000 C 
ATOM     20  C   UNL     1       1.887   5.109  17.972  0.00  0.00    +0.000 C 
ATOM     21  H   UNL     1       4.803   3.356  17.778  0.00  0.00    +0.000 HD
ENDBRANCH  10  14
BRANCH   1  23
ATOM     22  C   UNL     1       2.271  13.053  18.990  0.00  0.00    +0.000 C 
ATOM     23  C   UNL     1       1.509  11.818  18.560  0.00  0.00    +0.000 C 
ENDBRANCH   1  23
BRANCH   3  24
ATOM     24  C   UNL     1      -1.057  12.139  22.601  0.00  0.00    +0.000 C 
ATOM     25  O   UNL     1      -0.859  13.337  22.725  0.00  0.00    +0.000 OA
BRANCH  24  26
ATOM     26  O   UNL     1      -2.072  11.504  23.221  0.00  0.00    +0.000 OA
ATOM     27  H   UNL     1      -2.765  12.112  23.577  0.00  0.00    +0.000 HD
ENDBRANCH  24  26
ENDBRANCH   3  24
TORSDOF 4
ENDMDL
MODEL 5
REMARK VINA RESULT:      -6.6      3.646      7.288
REMARK  Name = 
REMARK  6 active torsions:
REMARK  status: ('A' for Active; 'I' for Inactive)
REMARK    1  A    between atoms: C_1  and  C_2
REMARK    2  A    between atoms: C_2  and  N_3
REMARK    3  A    between atoms: C_5  and  C_6
REMARK    4  A    between atoms: C_6  and  O_8
REMARK    5  A    between atoms: C_15  and  N_16
REMARK    6  A    between atoms: C_20  and  C_21
REMARK                            x       y       z     vdW  Elec       q    Type
REMARK                         _______ _______ _______ _____ _____    ______ ____
ROOT
ATOM      1  N   UNL     1       0.349   9.765  21.162  0.00  0.00    +0.000 N 
ATOM      2  C   UNL     1       0.275  11.148  21.252  0.00  0.00    +0.000 A 
ATOM      3  C   UNL     1       0.600  12.026  20.302  0.00  0.00    +0.000 A 
ATOM      4  C   UNL     1       1.116  11.462  19.046  0.00  0.00    +0.000 A 
ATOM      5  O   UNL     1       1.311  12.193  18.079  0.00  0.00    +0.000 OA
ATOM      6  C   UNL     1       1.451  10.016  19.014  0.00  0.00    +0.000 A 
ATOM      7  C   UNL     1       2.162   9.523  17.914  0.00  0.00    +0.000 A 
ATOM      8  C   UNL     1       2.606   8.201  17.891  0.00  0.00    +0.000 A 
ATOM      9  F   UNL     1       3.246   7.799  16.781  0.00  0.00    +0.000 F 
ATOM     10  C   UNL     1       2.400   7.323  18.961  0.00  0.00    +0.000 A 
ATOM     11  C   UNL     1       1.639   7.885  20.040  0.00  0.00    +0.000 A 
ATOM     12  F   UNL     1       1.567   7.157  21.152  0.00  0.00    +0.000 F 
ATOM     13  C   UNL     1       1.103   9.198  20.100  0.00  0.00    +0.000 A 
ENDROOT
BRANCH  10  14
ATOM     14  N   UNL     1       2.928   6.030  18.998  0.00  0.00    +0.000 N 
ATOM     15  C   UNL     1       2.113   4.827  18.725  0.00  0.00    +0.000 C 
ATOM     16  C   UNL     1       2.648   4.082  17.477  0.00  0.00    +0.000 C 
ATOM     17  N   UNL     1       4.069   3.716  17.570  0.00  0.00    +0.000 NA
ATOM     18  C   UNL     1       4.883   4.920  17.853  0.00  0.00    +0.000 C 
ATOM     19  C   UNL     1       6.333   4.459  18.022  0.00  0.00    +0.000 C 
ATOM     20  C   UNL     1       4.378   5.702  19.108  0.00  0.00    +0.000 C 
ATOM     21  H   UNL     1       4.372   3.301  16.689  0.00  0.00    +0.000 HD
ENDBRANCH  10  14
BRANCH   1  23
ATOM     22  C   UNL     1      -0.233   9.458  23.598  0.00  0.00    +0.000 C 
ATOM     23  C   UNL     1      -0.432   9.010  22.166  0.00  0.00    +0.000 C 
ENDBRANCH   1  23
BRANCH   3  24
ATOM     24  C   UNL     1       0.373  13.459  20.565  0.00  0.00    +0.000 C 
ATOM     25  O   UNL     1       0.775  14.034  21.563  0.00  0.00    +0.000 OA
BRANCH  24  26
ATOM     26  O   UNL     1      -0.339  14.084  19.604  0.00  0.00    +0.000 OA
ATOM     27  H   UNL     1      -1.293  14.206  19.831  0.00  0.00    +0.000 HD
ENDBRANCH  24  26
ENDBRANCH   3  24
TORSDOF 4
ENDMDL
MODEL 6
REMARK VINA RESULT:      -6.6      6.395      9.957
REMARK  Name = 
REMARK  6 active torsions:
REMARK  status: ('A' for Active; 'I' for Inactive)
REMARK    1  A    between atoms: C_1  and  C_2
REMARK    2  A    between atoms: C_2  and  N_3
REMARK    3  A    between atoms: C_5  and  C_6
REMARK    4  A    between atoms: C_6  and  O_8
REMARK    5  A    between atoms: C_15  and  N_16
REMARK    6  A    between atoms: C_20  and  C_21
REMARK                            x       y       z     vdW  Elec       q    Type
REMARK                         _______ _______ _______ _____ _____    ______ ____
ROOT
ATOM      1  N   UNL     1      -5.413  12.868  20.490  0.00  0.00    +0.000 N 
ATOM      2  C   UNL     1      -6.265  12.684  21.571  0.00  0.00    +0.000 A 
ATOM      3  C   UNL     1      -5.924  12.667  22.859  0.00  0.00    +0.000 A 
ATOM      4  C   UNL     1      -4.494  12.832  23.155  0.00  0.00    +0.000 A 
ATOM      5  O   UNL     1      -4.117  12.961  24.316  0.00  0.00    +0.000 OA
ATOM      6  C   UNL     1      -3.534  12.769  22.024  0.00  0.00    +0.000 A 
ATOM      7  C   UNL     1      -2.167  12.682  22.315  0.00  0.00    +0.000 A 
ATOM      8  C   UNL     1      -1.235  12.498  21.295  0.00  0.00    +0.000 A 
ATOM      9  F   UNL     1       0.057  12.465  21.658  0.00  0.00    +0.000 F 
ATOM     10  C   UNL     1      -1.610  12.357  19.954  0.00  0.00    +0.000 A 
ATOM     11  C   UNL     1      -3.020  12.487  19.725  0.00  0.00    +0.000 A 
ATOM     12  F   UNL     1      -3.448  12.185  18.500  0.00  0.00    +0.000 F 
ATOM     13  C   UNL     1      -4.015  12.738  20.705  0.00  0.00    +0.000 A 
ENDROOT
BRANCH  10  14
ATOM     14  N   UNL     1      -0.699  12.068  18.935  0.00  0.00    +0.000 N 
ATOM     15  C   UNL     1       0.167  13.099  18.322  0.00  0.00    +0.000 C 
ATOM     16  C   UNL     1       1.660  12.772  18.573  0.00  0.00    +0.000 C 
ATOM     17  N   UNL     1       2.059  11.436  18.103  0.00  0.00    +0.000 NA
ATOM     18  C   UNL     1       1.186  10.406  18.710  0.00  0.00    +0.000 C 
ATOM     19  C   UNL     1       1.597   9.055  18.118  0.00  0.00    +0.000 C 
ATOM     20  C   UNL     1      -0.332  10.697  18.479  0.00  0.00    +0.000 C 
ATOM     21  H   UNL     1       3.028  11.258  18.369  0.00  0.00    +0.000 HD
ENDBRANCH  10  14
BRANCH   1  23
ATOM     22  C   UNL     1      -6.940  12.180  18.602  0.00  0.00    +0.000 C 
ATOM     23  C   UNL     1      -6.059  13.248  19.215  0.00  0.00    +0.000 C 
ENDBRANCH   1  23
BRANCH   3  24
ATOM     24  C   UNL     1      -6.994  12.538  23.866  0.00  0.00    +0.000 C 
ATOM     25  O   UNL     1      -7.711  11.555  23.966  0.00  0.00    +0.000 OA
BRANCH  24  26
ATOM     26  O   UNL     1      -7.125  13.617  24.665  0.00  0.00    +0.000 OA
ATOM     27  H   UNL     1      -6.587  13.567  25.492  0.00  0.00    +0.000 HD
ENDBRANCH  24  26
ENDBRANCH   3  24
TORSDOF 4
ENDMDL
MODEL 7
REMARK VINA RESULT:      -6.6      3.635      7.052
REMARK  Name = 
REMARK  6 active torsions:
REMARK  status: ('A' for Active; 'I' for Inactive)
REMARK    1  A    between atoms: C_1  and  C_2
REMARK    2  A    between atoms: C_2  and  N_3
REMARK    3  A    between atoms: C_5  and  C_6
REMARK    4  A    between atoms: C_6  and  O_8
REMARK    5  A    between atoms: C_15  and  N_16
REMARK    6  A    between atoms: C_20  and  C_21
REMARK                            x       y       z     vdW  Elec       q    Type
REMARK                         _______ _______ _______ _____ _____    ______ ____
ROOT
ATOM      1  N   UNL     1       0.481   9.716  21.112  0.00  0.00    +0.000 N 
ATOM      2  C   UNL     1       0.532  11.093  21.289  0.00  0.00    +0.000 A 
ATOM      3  C   UNL     1       0.937  11.995  20.396  0.00  0.00    +0.000 A 
ATOM      4  C   UNL     1       1.404  11.467  19.105  0.00  0.00    +0.000 A 
ATOM      5  O   UNL     1       1.666  12.237  18.186  0.00  0.00    +0.000 OA
ATOM      6  C   UNL     1       1.608  10.002  18.981  0.00  0.00    +0.000 A 
ATOM      7  C   UNL     1       2.275   9.516  17.850  0.00  0.00    +0.000 A 
ATOM      8  C   UNL     1       2.599   8.165  17.743  0.00  0.00    +0.000 A 
ATOM      9  F   UNL     1       3.203   7.777  16.609  0.00  0.00    +0.000 F 
ATOM     10  C   UNL     1       2.312   7.243  18.757  0.00  0.00    +0.000 A 
ATOM     11  C   UNL     1       1.601   7.802  19.871  0.00  0.00    +0.000 A 
ATOM     12  F   UNL     1       1.460   7.015  20.936  0.00  0.00    +0.000 F 
ATOM     13  C   UNL     1       1.184   9.152  20.015  0.00  0.00    +0.000 A 
ENDROOT
BRANCH  10  14
ATOM     14  N   UNL     1       2.721   5.908  18.712  0.00  0.00    +0.000 N 
ATOM     15  C   UNL     1       3.936   5.422  19.401  0.00  0.00    +0.000 C 
ATOM     16  C   UNL     1       3.564   4.373  20.478  0.00  0.00    +0.000 C 
ATOM     17  N   UNL     1       2.793   3.235  19.955  0.00  0.00    +0.000 NA
ATOM     18  C   UNL     1       1.582   3.724  19.257  0.00  0.00    +0.000 C 
ATOM     19  C   UNL     1       0.873   2.502  18.666  0.00  0.00    +0.000 C 
ATOM     20  C   UNL     1       1.912   4.785  18.159  0.00  0.00    +0.000 C 
ATOM     21  H   UNL     1       2.517   2.627  20.727  0.00  0.00    +0.000 HD
ENDBRANCH  10  14
BRANCH   1  23
ATOM     22  C   UNL     1      -0.397   9.542  23.472  0.00  0.00    +0.000 C 
ATOM     23  C   UNL     1      -0.367   8.973  22.069  0.00  0.00    +0.000 C 
ENDBRANCH   1  23
BRANCH   3  24
ATOM     24  C   UNL     1       0.839  13.424  20.748  0.00  0.00    +0.000 C 
ATOM     25  O   UNL     1       1.328  13.905  21.757  0.00  0.00    +0.000 OA
BRANCH  24  26
ATOM     26  O   UNL     1       0.141  14.159  19.858  0.00  0.00    +0.000 OA
ATOM     27  H   UNL     1      -0.562  13.651  19.385  0.00  0.00    +0.000 HD
ENDBRANCH  24  26
ENDBRANCH   3  24
TORSDOF 4
ENDMDL
MODEL 8
REMARK VINA RESULT:      -6.6      0.956      1.272
REMARK  Name = 
REMARK  6 active torsions:
REMARK  status: ('A' for Active; 'I' for Inactive)
REMARK    1  A    between atoms: C_1  and  C_2
REMARK    2  A    between atoms: C_2  and  N_3
REMARK    3  A    between atoms: C_5  and  C_6
REMARK    4  A    between atoms: C_6  and  O_8
REMARK    5  A    between atoms: C_15  and  N_16
REMARK    6  A    between atoms: C_20  and  C_21
REMARK                            x       y       z     vdW  Elec       q    Type
REMARK                         _______ _______ _______ _____ _____    ______ ____
ROOT
ATOM      1  N   UNL     1       2.642   4.983  20.051  0.00  0.00    +0.000 N 
ATOM      2  C   UNL     1       3.125   3.969  19.234  0.00  0.00    +0.000 A 
ATOM      3  C   UNL     1       3.733   4.118  18.057  0.00  0.00    +0.000 A 
ATOM      4  C   UNL     1       3.875   5.498  17.569  0.00  0.00    +0.000 A 
ATOM      5  O   UNL     1       4.538   5.728  16.562  0.00  0.00    +0.000 OA
ATOM      6  C   UNL     1       3.144   6.572  18.286  0.00  0.00    +0.000 A 
ATOM      7  C   UNL     1       3.076   7.840  17.696  0.00  0.00    +0.000 A 
ATOM      8  C   UNL     1       2.301   8.848  18.267  0.00  0.00    +0.000 A 
ATOM      9  F   UNL     1       2.323  10.044  17.657  0.00  0.00    +0.000 F 
ATOM     10  C   UNL     1       1.535   8.642  19.421  0.00  0.00    +0.000 A 
ATOM     11  C   UNL     1       1.676   7.332  19.989  0.00  0.00    +0.000 A 
ATOM     12  F   UNL     1       0.839   7.026  20.979  0.00  0.00    +0.000 F 
ATOM     13  C   UNL     1       2.495   6.282  19.497  0.00  0.00    +0.000 A 
ENDROOT
BRANCH  10  14
ATOM     14  N   UNL     1       0.674   9.608  19.946  0.00  0.00    +0.000 N 
ATOM     15  C   UNL     1      -0.257   9.327  21.060  0.00  0.00    +0.000 C 
ATOM     16  C   UNL     1       0.086  10.205  22.288  0.00  0.00    +0.000 C 
ATOM     17  N   UNL     1       0.102  11.647  21.999  0.00  0.00    +0.000 NA
ATOM     18  C   UNL     1       1.028  11.926  20.877  0.00  0.00    +0.000 C 
ATOM     19  C   UNL     1       0.933  13.424  20.571  0.00  0.00    +0.000 C 
ATOM     20  C   UNL     1       0.716  11.061  19.614  0.00  0.00    +0.000 C 
ATOM     21  H   UNL     1       0.410  12.157  22.827  0.00  0.00    +0.000 HD
ENDBRANCH  10  14
BRANCH   1  23
ATOM     22  C   UNL     1       1.985   3.165  21.673  0.00  0.00    +0.000 C 
ATOM     23  C   UNL     1       2.384   4.609  21.459  0.00  0.00    +0.000 C 
ENDBRANCH   1  23
BRANCH   3  24
ATOM     24  C   UNL     1       4.248   2.915  17.377  0.00  0.00    +0.000 C 
ATOM     25  O   UNL     1       3.757   1.805  17.505  0.00  0.00    +0.000 OA
BRANCH  24  26
ATOM     26  O   UNL     1       5.329   3.145  16.604  0.00  0.00    +0.000 OA
ATOM     27  H   UNL     1       5.740   4.032  16.747  0.00  0.00    +0.000 HD
ENDBRANCH  24  26
ENDBRANCH   3  24
TORSDOF 4
ENDMDL
MODEL 9
REMARK VINA RESULT:      -6.5      1.586      2.048
REMARK  Name = 
REMARK  6 active torsions:
REMARK  status: ('A' for Active; 'I' for Inactive)
REMARK    1  A    between atoms: C_1  and  C_2
REMARK    2  A    between atoms: C_2  and  N_3
REMARK    3  A    between atoms: C_5  and  C_6
REMARK    4  A    between atoms: C_6  and  O_8
REMARK    5  A    between atoms: C_15  and  N_16
REMARK    6  A    between atoms: C_20  and  C_21
REMARK                            x       y       z     vdW  Elec       q    Type
REMARK                         _______ _______ _______ _____ _____    ______ ____
ROOT
ATOM      1  N   UNL     1       3.824   4.666  18.530  0.00  0.00    +0.000 N 
ATOM      2  C   UNL     1       4.403   4.111  17.396  0.00  0.00    +0.000 A 
ATOM      3  C   UNL     1       4.864   4.771  16.334  0.00  0.00    +0.000 A 
ATOM      4  C   UNL     1       4.714   6.234  16.363  0.00  0.00    +0.000 A 
ATOM      5  O   UNL     1       5.231   6.922  15.488  0.00  0.00    +0.000 OA
ATOM      6  C   UNL     1       3.872   6.830  17.431  0.00  0.00    +0.000 A 
ATOM      7  C   UNL     1       3.526   8.182  17.329  0.00  0.00    +0.000 A 
ATOM      8  C   UNL     1       2.640   8.759  18.238  0.00  0.00    +0.000 A 
ATOM      9  F   UNL     1       2.394  10.070  18.090  0.00  0.00    +0.000 F 
ATOM     10  C   UNL     1       2.032   8.023  19.261  0.00  0.00    +0.000 A 
ATOM     11  C   UNL     1       2.455   6.653  19.326  0.00  0.00    +0.000 A 
ATOM     12  F   UNL     1       1.779   5.867  20.162  0.00  0.00    +0.000 F 
ATOM     13  C   UNL     1       3.398   6.020  18.475  0.00  0.00    +0.000 A 
ENDROOT
BRANCH  10  14
ATOM     14  N   UNL     1       1.065   8.559  20.114  0.00  0.00    +0.000 N 
ATOM     15  C   UNL     1       0.990   8.218  21.551  0.00  0.00    +0.000 C 
ATOM     16  C   UNL     1       1.217   9.480  22.420  0.00  0.00    +0.000 C 
ATOM     17  N   UNL     1       0.291  10.582  22.116  0.00  0.00    +0.000 NA
ATOM     18  C   UNL     1       0.360  10.916  20.675  0.00  0.00    +0.000 C 
ATOM     19  C   UNL     1      -0.682  12.005  20.411  0.00  0.00    +0.000 C 
ATOM     20  C   UNL     1       0.135   9.670  19.761  0.00  0.00    +0.000 C 
ATOM     21  H   UNL     1       0.546  11.402  22.667  0.00  0.00    +0.000 HD
ENDBRANCH  10  14
BRANCH   1  23
ATOM     22  C   UNL     1       2.801   2.628  19.611  0.00  0.00    +0.000 C 
ATOM     23  C   UNL     1       3.766   3.789  19.721  0.00  0.00    +0.000 C 
ENDBRANCH   1  23
BRANCH   3  24
ATOM     24  C   UNL     1       5.520   4.002  15.261  0.00  0.00    +0.000 C 
ATOM     25  O   UNL     1       5.290   4.168  14.074  0.00  0.00    +0.000 OA
BRANCH  24  26
ATOM     26  O   UNL     1       6.395   3.078  15.708  0.00  0.00    +0.000 OA
ATOM     27  H   UNL     1       6.030   2.160  15.728  0.00  0.00    +0.000 HD
ENDBRANCH  24  26
ENDBRANCH   3  24
TORSDOF 4
ENDMDL
