MODEL 1
REMARK VINA RESULT:      -8.9      0.000      0.000
REMARK  Name = 
REMARK  6 active torsions:
REMARK  status: ('A' for Active; 'I' for Inactive)
REMARK    1  A    between atoms: C_1  and  C_2
REMARK    2  A    between atoms: C_3  and  C_4
REMARK    3  A    between atoms: C_4  and  C_5
REMARK    4  A    between atoms: C_16  and  O_17
REMARK    5  A    between atoms: O_17  and  C_18
REMARK    6  A    between atoms: C_18  and  C_19
REMARK                            x       y       z     vdW  Elec       q    Type
REMARK                         _______ _______ _______ _____ _____    ______ ____
ROOT
ATOM      1  C   UNL     1       4.919   7.029  15.610  0.00  0.00    +0.000 C 
ATOM      2  C   UNL     1       5.451   6.069  16.643  0.00  0.00    +0.000 A 
ATOM      3  C   UNL     1       6.657   5.460  16.548  0.00  0.00    +0.000 A 
ATOM      4  C   UNL     1       7.149   4.582  17.645  0.00  0.00    +0.000 A 
ATOM      5  O   UNL     1       8.310   4.193  17.709  0.00  0.00    +0.000 OA
ATOM      6  O   UNL     1       6.227   4.169  18.589  0.00  0.00    +0.000 OA
ATOM      7  C   UNL     1       5.001   4.833  18.732  0.00  0.00    +0.000 A 
ATOM      8  C   UNL     1       4.248   4.488  19.858  0.00  0.00    +0.000 A 
ATOM      9  C   UNL     1       3.039   5.130  20.093  0.00  0.00    +0.000 A 
ATOM     10  C   UNL     1       2.615   6.115  19.201  0.00  0.00    +0.000 A 
ATOM     11  C   UNL     1       3.376   6.437  18.067  0.00  0.00    +0.000 A 
ATOM     12  C   UNL     1       4.596   5.799  17.817  0.00  0.00    +0.000 A 
ENDROOT
BRANCH   3  13
ATOM     13  C   UNL     1       7.538   5.539  15.318  0.00  0.00    +0.000 C 
BRANCH  13  14
ATOM     14  C   UNL     1       7.086   4.751  14.109  0.00  0.00    +0.000 A 
ATOM     15  C   UNL     1       5.969   3.915  14.180  0.00  0.00    +0.000 A 
ATOM     16  C   UNL     1       5.474   3.273  13.049  0.00  0.00    +0.000 A 
ATOM     17  C   UNL     1       6.084   3.465  11.814  0.00  0.00    +0.000 A 
ATOM     18  C   UNL     1       7.202   4.281  11.719  0.00  0.00    +0.000 A 
ATOM     19  C   UNL     1       7.712   4.918  12.857  0.00  0.00    +0.000 A 
ENDBRANCH  13  14
ENDBRANCH   3  13
BRANCH   9  20
ATOM     20  O   UNL     1       2.225   4.918  21.170  0.00  0.00    +0.000 OA
BRANCH  20  21
ATOM     21  C   UNL     1       1.925   3.546  21.464  0.00  0.00    +0.000 C 
BRANCH  21  22
ATOM     22  C   UNL     1       1.512   2.801  20.244  0.00  0.00    +0.000 A 
ATOM     23  N   UNL     1       0.382   3.101  19.531  0.00  0.00    +0.000 NA
ATOM     24  N   UNL     1       0.358   2.268  18.498  0.00  0.00    +0.000 NA
ATOM     25  N   UNL     1       1.461   1.522  18.637  0.00  0.00    +0.000 N 
ATOM     26  N   UNL     1       2.238   1.812  19.691  0.00  0.00    +0.000 NA
ATOM     27  H   UNL     1       1.700   0.790  17.972  0.00  0.00    +0.000 HD
ENDBRANCH  21  22
ENDBRANCH  20  21
ENDBRANCH   9  20
TORSDOF 5
ENDMDL
MODEL 2
REMARK VINA RESULT:      -8.9      5.120      8.113
REMARK  Name = 
REMARK  6 active torsions:
REMARK  status: ('A' for Active; 'I' for Inactive)
REMARK    1  A    between atoms: C_1  and  C_2
REMARK    2  A    between atoms: C_3  and  C_4
REMARK    3  A    between atoms: C_4  and  C_5
REMARK    4  A    between atoms: C_16  and  O_17
REMARK    5  A    between atoms: O_17  and  C_18
REMARK    6  A    between atoms: C_18  and  C_19
REMARK                            x       y       z     vdW  Elec       q    Type
REMARK                         _______ _______ _______ _____ _____    ______ ____
ROOT
ATOM      1  C   UNL     1       0.420   8.497  21.181  0.00  0.00    +0.000 C 
ATOM      2  C   UNL     1       1.214   8.705  19.918  0.00  0.00    +0.000 A 
ATOM      3  C   UNL     1       1.174   9.846  19.188  0.00  0.00    +0.000 A 
ATOM      4  C   UNL     1       2.043  10.009  17.991  0.00  0.00    +0.000 A 
ATOM      5  O   UNL     1       2.208  11.090  17.437  0.00  0.00    +0.000 OA
ATOM      6  O   UNL     1       2.642   8.871  17.482  0.00  0.00    +0.000 OA
ATOM      7  C   UNL     1       2.739   7.706  18.254  0.00  0.00    +0.000 A 
ATOM      8  C   UNL     1       3.559   6.699  17.737  0.00  0.00    +0.000 A 
ATOM      9  C   UNL     1       3.740   5.528  18.461  0.00  0.00    +0.000 A 
ATOM     10  C   UNL     1       3.106   5.395  19.697  0.00  0.00    +0.000 A 
ATOM     11  C   UNL     1       2.274   6.409  20.193  0.00  0.00    +0.000 A 
ATOM     12  C   UNL     1       2.082   7.595  19.474  0.00  0.00    +0.000 A 
ENDROOT
BRANCH   3  13
ATOM     13  C   UNL     1       0.203  10.977  19.460  0.00  0.00    +0.000 C 
BRANCH  13  14
ATOM     14  C   UNL     1      -1.118  10.928  18.727  0.00  0.00    +0.000 A 
ATOM     15  C   UNL     1      -1.334   9.995  17.710  0.00  0.00    +0.000 A 
ATOM     16  C   UNL     1      -2.580   9.862  17.105  0.00  0.00    +0.000 A 
ATOM     17  C   UNL     1      -3.645  10.657  17.516  0.00  0.00    +0.000 A 
ATOM     18  C   UNL     1      -3.453  11.599  18.515  0.00  0.00    +0.000 A 
ATOM     19  C   UNL     1      -2.197  11.747  19.118  0.00  0.00    +0.000 A 
ENDBRANCH  13  14
ENDBRANCH   3  13
BRANCH   9  20
ATOM     20  O   UNL     1       4.541   4.483  18.093  0.00  0.00    +0.000 OA
BRANCH  20  21
ATOM     21  C   UNL     1       5.942   4.779  17.985  0.00  0.00    +0.000 C 
BRANCH  21  22
ATOM     22  C   UNL     1       6.397   4.767  16.568  0.00  0.00    +0.000 A 
ATOM     23  N   UNL     1       7.287   5.675  16.061  0.00  0.00    +0.000 NA
ATOM     24  N   UNL     1       7.488   5.335  14.794  0.00  0.00    +0.000 NA
ATOM     25  N   UNL     1       6.724   4.253  14.606  0.00  0.00    +0.000 N 
ATOM     26  N   UNL     1       6.031   3.830  15.675  0.00  0.00    +0.000 NA
ATOM     27  H   UNL     1       6.684   3.774  13.710  0.00  0.00    +0.000 HD
ENDBRANCH  21  22
ENDBRANCH  20  21
ENDBRANCH   9  20
TORSDOF 5
ENDMDL
MODEL 3
REMARK VINA RESULT:      -8.8      5.072      8.070
REMARK  Name = 
REMARK  6 active torsions:
REMARK  status: ('A' for Active; 'I' for Inactive)
REMARK    1  A    between atoms: C_1  and  C_2
REMARK    2  A    between atoms: C_3  and  C_4
REMARK    3  A    between atoms: C_4  and  C_5
REMARK    4  A    between atoms: C_16  and  O_17
REMARK    5  A    between atoms: O_17  and  C_18
REMARK    6  A    between atoms: C_18  and  C_19
REMARK                            x       y       z     vdW  Elec       q    Type
REMARK                         _______ _______ _______ _____ _____    ______ ____
ROOT
ATOM      1  C   UNL     1      -0.088   8.922  21.214  0.00  0.00    +0.000 C 
ATOM      2  C   UNL     1       0.853   8.937  20.037  0.00  0.00    +0.000 A 
ATOM      3  C   UNL     1       0.976   9.989  19.191  0.00  0.00    +0.000 A 
ATOM      4  C   UNL     1       1.982   9.962  18.094  0.00  0.00    +0.000 A 
ATOM      5  O   UNL     1       2.285  10.961  17.451  0.00  0.00    +0.000 OA
ATOM      6  O   UNL     1       2.547   8.739  17.781  0.00  0.00    +0.000 OA
ATOM      7  C   UNL     1       2.474   7.666  18.679  0.00  0.00    +0.000 A 
ATOM      8  C   UNL     1       3.270   6.558  18.370  0.00  0.00    +0.000 A 
ATOM      9  C   UNL     1       3.284   5.468  19.231  0.00  0.00    +0.000 A 
ATOM     10  C   UNL     1       2.510   5.515  20.391  0.00  0.00    +0.000 A 
ATOM     11  C   UNL     1       1.705   6.628  20.676  0.00  0.00    +0.000 A 
ATOM     12  C   UNL     1       1.680   7.733  19.818  0.00  0.00    +0.000 A 
ENDROOT
BRANCH   3  13
ATOM     13  C   UNL     1       0.067  11.200  19.227  0.00  0.00    +0.000 C 
BRANCH  13  14
ATOM     14  C   UNL     1      -1.328  11.018  18.672  0.00  0.00    +0.000 A 
ATOM     15  C   UNL     1      -2.385  11.806  19.132  0.00  0.00    +0.000 A 
ATOM     16  C   UNL     1      -3.648  11.730  18.552  0.00  0.00    +0.000 A 
ATOM     17  C   UNL     1      -3.876  10.866  17.486  0.00  0.00    +0.000 A 
ATOM     18  C   UNL     1      -2.845  10.065  17.018  0.00  0.00    +0.000 A 
ATOM     19  C   UNL     1      -1.576  10.128  17.608  0.00  0.00    +0.000 A 
ENDBRANCH  13  14
ENDBRANCH   3  13
BRANCH   9  20
ATOM     20  O   UNL     1       4.041   4.341  19.072  0.00  0.00    +0.000 OA
BRANCH  20  21
ATOM     21  C   UNL     1       4.422   4.032  17.723  0.00  0.00    +0.000 C 
BRANCH  21  22
ATOM     22  C   UNL     1       5.888   4.192  17.517  0.00  0.00    +0.000 A 
ATOM     23  N   UNL     1       6.458   4.329  16.279  0.00  0.00    +0.000 NA
ATOM     24  N   UNL     1       7.760   4.490  16.482  0.00  0.00    +0.000 NA
ATOM     25  N   UNL     1       7.905   4.446  17.812  0.00  0.00    +0.000 N 
ATOM     26  N   UNL     1       6.777   4.283  18.521  0.00  0.00    +0.000 NA
ATOM     27  H   UNL     1       8.815   4.545  18.256  0.00  0.00    +0.000 HD
ENDBRANCH  21  22
ENDBRANCH  20  21
ENDBRANCH   9  20
TORSDOF 5
ENDMDL
MODEL 4
REMARK VINA RESULT:      -8.7      5.124      8.220
REMARK  Name = 
REMARK  6 active torsions:
REMARK  status: ('A' for Active; 'I' for Inactive)
REMARK    1  A    between atoms: C_1  and  C_2
REMARK    2  A    between atoms: C_3  and  C_4
REMARK    3  A    between atoms: C_4  and  C_5
REMARK    4  A    between atoms: C_16  and  O_17
REMARK    5  A    between atoms: O_17  and  C_18
REMARK    6  A    between atoms: C_18  and  C_19
REMARK                            x       y       z     vdW  Elec       q    Type
REMARK                         _______ _______ _______ _____ _____    ______ ____
ROOT
ATOM      1  C   UNL     1       0.295   8.693  21.229  0.00  0.00    +0.000 C 
ATOM      2  C   UNL     1       1.089   8.853  19.958  0.00  0.00    +0.000 A 
ATOM      3  C   UNL     1       1.077   9.980  19.205  0.00  0.00    +0.000 A 
ATOM      4  C   UNL     1       1.946  10.094  18.002  0.00  0.00    +0.000 A 
ATOM      5  O   UNL     1       2.138  11.158  17.424  0.00  0.00    +0.000 OA
ATOM      6  O   UNL     1       2.512   8.930  17.515  0.00  0.00    +0.000 OA
ATOM      7  C   UNL     1       2.581   7.779  18.311  0.00  0.00    +0.000 A 
ATOM      8  C   UNL     1       3.371   6.739  17.813  0.00  0.00    +0.000 A 
ATOM      9  C   UNL     1       3.523   5.579  18.562  0.00  0.00    +0.000 A 
ATOM     10  C   UNL     1       2.890   5.489  19.802  0.00  0.00    +0.000 A 
ATOM     11  C   UNL     1       2.088   6.536  20.279  0.00  0.00    +0.000 A 
ATOM     12  C   UNL     1       1.925   7.711  19.536  0.00  0.00    +0.000 A 
ENDROOT
BRANCH   3  13
ATOM     13  C   UNL     1       0.138  11.142  19.456  0.00  0.00    +0.000 C 
BRANCH  13  14
ATOM     14  C   UNL     1      -1.216  11.077  18.788  0.00  0.00    +0.000 A 
ATOM     15  C   UNL     1      -1.482  10.115  17.810  0.00  0.00    +0.000 A 
ATOM     16  C   UNL     1      -2.756   9.969  17.269  0.00  0.00    +0.000 A 
ATOM     17  C   UNL     1      -3.798  10.780  17.707  0.00  0.00    +0.000 A 
ATOM     18  C   UNL     1      -3.557  11.750  18.668  0.00  0.00    +0.000 A 
ATOM     19  C   UNL     1      -2.274  11.910  19.206  0.00  0.00    +0.000 A 
ENDBRANCH  13  14
ENDBRANCH   3  13
BRANCH   9  20
ATOM     20  O   UNL     1       4.294   4.505  18.213  0.00  0.00    +0.000 OA
BRANCH  20  21
ATOM     21  C   UNL     1       5.504   4.810  17.505  0.00  0.00    +0.000 C 
BRANCH  21  22
ATOM     22  C   UNL     1       6.562   5.317  18.422  0.00  0.00    +0.000 A 
ATOM     23  N   UNL     1       6.681   4.909  19.724  0.00  0.00    +0.000 NA
ATOM     24  N   UNL     1       7.747   5.530  20.215  0.00  0.00    +0.000 NA
ATOM     25  N   UNL     1       8.211   6.265  19.197  0.00  0.00    +0.000 N 
ATOM     26  N   UNL     1       7.534   6.166  18.043  0.00  0.00    +0.000 NA
ATOM     27  H   UNL     1       9.036   6.852  19.293  0.00  0.00    +0.000 HD
ENDBRANCH  21  22
ENDBRANCH  20  21
ENDBRANCH   9  20
TORSDOF 5
ENDMDL
MODEL 5
REMARK VINA RESULT:      -8.6      5.150      8.223
REMARK  Name = 
REMARK  6 active torsions:
REMARK  status: ('A' for Active; 'I' for Inactive)
REMARK    1  A    between atoms: C_1  and  C_2
REMARK    2  A    between atoms: C_3  and  C_4
REMARK    3  A    between atoms: C_4  and  C_5
REMARK    4  A    between atoms: C_16  and  O_17
REMARK    5  A    between atoms: O_17  and  C_18
REMARK    6  A    between atoms: C_18  and  C_19
REMARK                            x       y       z     vdW  Elec       q    Type
REMARK                         _______ _______ _______ _____ _____    ______ ____
ROOT
ATOM      1  C   UNL     1      -0.251   8.890  21.356  0.00  0.00    +0.000 C 
ATOM      2  C   UNL     1       0.688   9.001  20.183  0.00  0.00    +0.000 A 
ATOM      3  C   UNL     1       0.768  10.096  19.389  0.00  0.00    +0.000 A 
ATOM      4  C   UNL     1       1.774  10.164  18.294  0.00  0.00    +0.000 A 
ATOM      5  O   UNL     1       2.035  11.205  17.701  0.00  0.00    +0.000 OA
ATOM      6  O   UNL     1       2.389   8.982  17.923  0.00  0.00    +0.000 OA
ATOM      7  C   UNL     1       2.360   7.865  18.767  0.00  0.00    +0.000 A 
ATOM      8  C   UNL     1       3.201   6.807  18.407  0.00  0.00    +0.000 A 
ATOM      9  C   UNL     1       3.260   5.678  19.214  0.00  0.00    +0.000 A 
ATOM     10  C   UNL     1       2.485   5.637  20.373  0.00  0.00    +0.000 A 
ATOM     11  C   UNL     1       1.635   6.700  20.710  0.00  0.00    +0.000 A 
ATOM     12  C   UNL     1       1.564   7.844  19.907  0.00  0.00    +0.000 A 
ENDROOT
BRANCH   3  13
ATOM     13  C   UNL     1      -0.190  11.266  19.481  0.00  0.00    +0.000 C 
BRANCH  13  14
ATOM     14  C   UNL     1      -1.498  11.132  18.735  0.00  0.00    +0.000 A 
ATOM     15  C   UNL     1      -1.655  10.162  17.742  0.00  0.00    +0.000 A 
ATOM     16  C   UNL     1      -2.886   9.951  17.127  0.00  0.00    +0.000 A 
ATOM     17  C   UNL     1      -3.993  10.703  17.504  0.00  0.00    +0.000 A 
ATOM     18  C   UNL     1      -3.861  11.680  18.480  0.00  0.00    +0.000 A 
ATOM     19  C   UNL     1      -2.621  11.906  19.092  0.00  0.00    +0.000 A 
ENDBRANCH  13  14
ENDBRANCH   3  13
BRANCH   9  20
ATOM     20  O   UNL     1       4.064   4.592  19.002  0.00  0.00    +0.000 OA
BRANCH  20  21
ATOM     21  C   UNL     1       5.460   4.789  19.269  0.00  0.00    +0.000 C 
BRANCH  21  22
ATOM     22  C   UNL     1       6.280   4.647  18.035  0.00  0.00    +0.000 A 
ATOM     23  N   UNL     1       7.634   4.441  18.057  0.00  0.00    +0.000 NA
ATOM     24  N   UNL     1       8.014   4.323  16.791  0.00  0.00    +0.000 NA
ATOM     25  N   UNL     1       6.887   4.457  16.082  0.00  0.00    +0.000 N 
ATOM     26  N   UNL     1       5.764   4.642  16.793  0.00  0.00    +0.000 NA
ATOM     27  H   UNL     1       6.883   4.408  15.066  0.00  0.00    +0.000 HD
ENDBRANCH  21  22
ENDBRANCH  20  21
ENDBRANCH   9  20
TORSDOF 5
ENDMDL
MODEL 6
REMARK VINA RESULT:      -8.5      5.032      8.110
REMARK  Name = 
REMARK  6 active torsions:
REMARK  status: ('A' for Active; 'I' for Inactive)
REMARK    1  A    between atoms: C_1  and  C_2
REMARK    2  A    between atoms: C_3  and  C_4
REMARK    3  A    between atoms: C_4  and  C_5
REMARK    4  A    between atoms: C_16  and  O_17
REMARK    5  A    between atoms: O_17  and  C_18
REMARK    6  A    between atoms: C_18  and  C_19
REMARK                            x       y       z     vdW  Elec       q    Type
REMARK                         _______ _______ _______ _____ _____    ______ ____
ROOT
ATOM      1  C   UNL     1       0.333   8.727  21.404  0.00  0.00    +0.000 C 
ATOM      2  C   UNL     1       1.094   8.760  20.104  0.00  0.00    +0.000 A 
ATOM      3  C   UNL     1       1.156   9.850  19.301  0.00  0.00    +0.000 A 
ATOM      4  C   UNL     1       1.990   9.834  18.068  0.00  0.00    +0.000 A 
ATOM      5  O   UNL     1       2.254  10.851  17.436  0.00  0.00    +0.000 OA
ATOM      6  O   UNL     1       2.433   8.604  17.617  0.00  0.00    +0.000 OA
ATOM      7  C   UNL     1       2.427   7.487  18.463  0.00  0.00    +0.000 A 
ATOM      8  C   UNL     1       3.105   6.360  17.989  0.00  0.00    +0.000 A 
ATOM      9  C   UNL     1       3.179   5.224  18.785  0.00  0.00    +0.000 A 
ATOM     10  C   UNL     1       2.584   5.244  20.046  0.00  0.00    +0.000 A 
ATOM     11  C   UNL     1       1.894   6.379  20.499  0.00  0.00    +0.000 A 
ATOM     12  C   UNL     1       1.810   7.530  19.709  0.00  0.00    +0.000 A 
ENDROOT
BRANCH   3  13
ATOM     13  C   UNL     1       0.332  11.101  19.527  0.00  0.00    +0.000 C 
BRANCH  13  14
ATOM     14  C   UNL     1      -1.101  11.066  19.048  0.00  0.00    +0.000 A 
ATOM     15  C   UNL     1      -2.041  11.971  19.549  0.00  0.00    +0.000 A 
ATOM     16  C   UNL     1      -3.334  12.026  19.036  0.00  0.00    +0.000 A 
ATOM     17  C   UNL     1      -3.710  11.180  17.998  0.00  0.00    +0.000 A 
ATOM     18  C   UNL     1      -2.799  10.265  17.492  0.00  0.00    +0.000 A 
ATOM     19  C   UNL     1      -1.501  10.196  18.014  0.00  0.00    +0.000 A 
ENDBRANCH  13  14
ENDBRANCH   3  13
BRANCH   9  20
ATOM     20  O   UNL     1       3.840   4.071  18.462  0.00  0.00    +0.000 OA
BRANCH  20  21
ATOM     21  C   UNL     1       5.008   3.782  19.245  0.00  0.00    +0.000 C 
BRANCH  21  22
ATOM     22  C   UNL     1       6.170   4.609  18.821  0.00  0.00    +0.000 A 
ATOM     23  N   UNL     1       6.890   5.386  19.689  0.00  0.00    +0.000 NA
ATOM     24  N   UNL     1       7.864   5.940  18.976  0.00  0.00    +0.000 NA
ATOM     25  N   UNL     1       7.685   5.472  17.735  0.00  0.00    +0.000 N 
ATOM     26  N   UNL     1       6.661   4.621  17.569  0.00  0.00    +0.000 NA
ATOM     27  H   UNL     1       8.300   5.736  16.969  0.00  0.00    +0.000 HD
ENDBRANCH  21  22
ENDBRANCH  20  21
ENDBRANCH   9  20
TORSDOF 5
ENDMDL
MODEL 7
REMARK VINA RESULT:      -8.4      4.260      7.735
REMARK  Name = 
REMARK  6 active torsions:
REMARK  status: ('A' for Active; 'I' for Inactive)
REMARK    1  A    between atoms: C_1  and  C_2
REMARK    2  A    between atoms: C_3  and  C_4
REMARK    3  A    between atoms: C_4  and  C_5
REMARK    4  A    between atoms: C_16  and  O_17
REMARK    5  A    between atoms: O_17  and  C_18
REMARK    6  A    between atoms: C_18  and  C_19
REMARK                            x       y       z     vdW  Elec       q    Type
REMARK                         _______ _______ _______ _____ _____    ______ ____
ROOT
ATOM      1  C   UNL     1       1.814  10.397  17.741  0.00  0.00    +0.000 C 
ATOM      2  C   UNL     1       1.597   9.366  18.819  0.00  0.00    +0.000 A 
ATOM      3  C   UNL     1       0.738   9.535  19.853  0.00  0.00    +0.000 A 
ATOM      4  C   UNL     1       0.519   8.442  20.840  0.00  0.00    +0.000 A 
ATOM      5  O   UNL     1      -0.399   8.459  21.651  0.00  0.00    +0.000 OA
ATOM      6  O   UNL     1       1.430   7.402  20.847  0.00  0.00    +0.000 OA
ATOM      7  C   UNL     1       2.280   7.187  19.754  0.00  0.00    +0.000 A 
ATOM      8  C   UNL     1       2.992   5.983  19.762  0.00  0.00    +0.000 A 
ATOM      9  C   UNL     1       3.826   5.677  18.695  0.00  0.00    +0.000 A 
ATOM     10  C   UNL     1       3.921   6.578  17.634  0.00  0.00    +0.000 A 
ATOM     11  C   UNL     1       3.212   7.788  17.650  0.00  0.00    +0.000 A 
ATOM     12  C   UNL     1       2.368   8.111  18.718  0.00  0.00    +0.000 A 
ENDROOT
BRANCH   3  13
ATOM     13  C   UNL     1       0.024  10.840  20.141  0.00  0.00    +0.000 C 
BRANCH  13  14
ATOM     14  C   UNL     1      -1.282  11.073  19.415  0.00  0.00    +0.000 A 
ATOM     15  C   UNL     1      -1.695  10.209  18.398  0.00  0.00    +0.000 A 
ATOM     16  C   UNL     1      -2.945  10.343  17.800  0.00  0.00    +0.000 A 
ATOM     17  C   UNL     1      -3.816  11.343  18.219  0.00  0.00    +0.000 A 
ATOM     18  C   UNL     1      -3.425  12.221  19.220  0.00  0.00    +0.000 A 
ATOM     19  C   UNL     1      -2.162  12.099  19.815  0.00  0.00    +0.000 A 
ENDBRANCH  13  14
ENDBRANCH   3  13
BRANCH   9  20
ATOM     20  O   UNL     1       4.548   4.524  18.557  0.00  0.00    +0.000 OA
BRANCH  20  21
ATOM     21  C   UNL     1       4.069   3.604  17.565  0.00  0.00    +0.000 C 
BRANCH  21  22
ATOM     22  C   UNL     1       2.857   2.877  18.030  0.00  0.00    +0.000 A 
ATOM     23  N   UNL     1       1.582   3.292  17.748  0.00  0.00    +0.000 NA
ATOM     24  N   UNL     1       0.768   2.389  18.282  0.00  0.00    +0.000 NA
ATOM     25  N   UNL     1       1.582   1.488  18.846  0.00  0.00    +0.000 N 
ATOM     26  N   UNL     1       2.897   1.718  18.711  0.00  0.00    +0.000 NA
ATOM     27  H   UNL     1       1.221   0.672  19.335  0.00  0.00    +0.000 HD
ENDBRANCH  21  22
ENDBRANCH  20  21
ENDBRANCH   9  20
TORSDOF 5
ENDMDL
MODEL 8
REMARK VINA RESULT:      -8.4      4.968      8.023
REMARK  Name = 
REMARK  6 active torsions:
REMARK  status: ('A' for Active; 'I' for Inactive)
REMARK    1  A    between atoms: C_1  and  C_2
REMARK    2  A    between atoms: C_3  and  C_4
REMARK    3  A    between atoms: C_4  and  C_5
REMARK    4  A    between atoms: C_16  and  O_17
REMARK    5  A    between atoms: O_17  and  C_18
REMARK    6  A    between atoms: C_18  and  C_19
REMARK                            x       y       z     vdW  Elec       q    Type
REMARK                         _______ _______ _______ _____ _____    ______ ____
ROOT
ATOM      1  C   UNL     1       0.754   8.178  21.367  0.00  0.00    +0.000 C 
ATOM      2  C   UNL     1       1.439   8.389  20.042  0.00  0.00    +0.000 A 
ATOM      3  C   UNL     1       1.327   9.528  19.315  0.00  0.00    +0.000 A 
ATOM      4  C   UNL     1       2.094   9.695  18.050  0.00  0.00    +0.000 A 
ATOM      5  O   UNL     1       2.201  10.776  17.481  0.00  0.00    +0.000 OA
ATOM      6  O   UNL     1       2.660   8.562  17.496  0.00  0.00    +0.000 OA
ATOM      7  C   UNL     1       2.833   7.400  18.261  0.00  0.00    +0.000 A 
ATOM      8  C   UNL     1       3.618   6.399  17.681  0.00  0.00    +0.000 A 
ATOM      9  C   UNL     1       3.870   5.233  18.391  0.00  0.00    +0.000 A 
ATOM     10  C   UNL     1       3.340   5.098  19.675  0.00  0.00    +0.000 A 
ATOM     11  C   UNL     1       2.542   6.106  20.235  0.00  0.00    +0.000 A 
ATOM     12  C   UNL     1       2.279   7.286  19.531  0.00  0.00    +0.000 A 
ENDROOT
BRANCH   3  13
ATOM     13  C   UNL     1       0.371  10.650  19.663  0.00  0.00    +0.000 C 
BRANCH  13  14
ATOM     14  C   UNL     1      -0.945  10.675  18.918  0.00  0.00    +0.000 A 
ATOM     15  C   UNL     1      -1.960  11.556  19.297  0.00  0.00    +0.000 A 
ATOM     16  C   UNL     1      -3.131  11.672  18.553  0.00  0.00    +0.000 A 
ATOM     17  C   UNL     1      -3.304  10.913  17.400  0.00  0.00    +0.000 A 
ATOM     18  C   UNL     1      -2.315  10.022  17.009  0.00  0.00    +0.000 A 
ATOM     19  C   UNL     1      -1.141   9.892  17.763  0.00  0.00    +0.000 A 
ENDBRANCH  13  14
ENDBRANCH   3  13
BRANCH   9  20
ATOM     20  O   UNL     1       4.648   4.194  17.961  0.00  0.00    +0.000 OA
BRANCH  20  21
ATOM     21  C   UNL     1       5.792   4.558  17.173  0.00  0.00    +0.000 C 
BRANCH  21  22
ATOM     22  C   UNL     1       6.791   5.316  17.975  0.00  0.00    +0.000 A 
ATOM     23  N   UNL     1       7.252   6.554  17.616  0.00  0.00    +0.000 NA
ATOM     24  N   UNL     1       8.088   6.934  18.575  0.00  0.00    +0.000 NA
ATOM     25  N   UNL     1       8.084   5.923  19.451  0.00  0.00    +0.000 N 
ATOM     26  N   UNL     1       7.283   4.888  19.151  0.00  0.00    +0.000 NA
ATOM     27  H   UNL     1       8.645   5.946  20.299  0.00  0.00    +0.000 HD
ENDBRANCH  21  22
ENDBRANCH  20  21
ENDBRANCH   9  20
TORSDOF 5
ENDMDL
MODEL 9
REMARK VINA RESULT:      -8.4      5.652      7.535
REMARK  Name = 
REMARK  6 active torsions:
REMARK  status: ('A' for Active; 'I' for Inactive)
REMARK    1  A    between atoms: C_1  and  C_2
REMARK    2  A    between atoms: C_3  and  C_4
REMARK    3  A    between atoms: C_4  and  C_5
REMARK    4  A    between atoms: C_16  and  O_17
REMARK    5  A    between atoms: O_17  and  C_18
REMARK    6  A    between atoms: C_18  and  C_19
REMARK                            x       y       z     vdW  Elec       q    Type
REMARK                         _______ _______ _______ _____ _____    ______ ____
ROOT
ATOM      1  C   UNL     1       2.412   8.930  17.757  0.00  0.00    +0.000 C 
ATOM      2  C   UNL     1       2.031   8.131  18.976  0.00  0.00    +0.000 A 
ATOM      3  C   UNL     1       2.376   6.834  19.159  0.00  0.00    +0.000 A 
ATOM      4  C   UNL     1       2.029   6.130  20.424  0.00  0.00    +0.000 A 
ATOM      5  O   UNL     1       2.506   5.043  20.728  0.00  0.00    +0.000 OA
ATOM      6  O   UNL     1       1.094   6.731  21.248  0.00  0.00    +0.000 OA
ATOM      7  C   UNL     1       0.777   8.087  21.101  0.00  0.00    +0.000 A 
ATOM      8  C   UNL     1       0.002   8.646  22.123  0.00  0.00    +0.000 A 
ATOM      9  C   UNL     1      -0.322   9.996  22.072  0.00  0.00    +0.000 A 
ATOM     10  C   UNL     1       0.147  10.762  21.005  0.00  0.00    +0.000 A 
ATOM     11  C   UNL     1       0.910  10.181  19.981  0.00  0.00    +0.000 A 
ATOM     12  C   UNL     1       1.244   8.823  20.018  0.00  0.00    +0.000 A 
ENDROOT
BRANCH   3  13
ATOM     13  C   UNL     1       3.037   5.987  18.091  0.00  0.00    +0.000 C 
BRANCH  13  14
ATOM     14  C   UNL     1       4.548   6.011  18.044  0.00  0.00    +0.000 A 
ATOM     15  C   UNL     1       5.219   6.768  17.081  0.00  0.00    +0.000 A 
ATOM     16  C   UNL     1       6.605   6.891  17.096  0.00  0.00    +0.000 A 
ATOM     17  C   UNL     1       7.352   6.265  18.089  0.00  0.00    +0.000 A 
ATOM     18  C   UNL     1       6.710   5.498  19.051  0.00  0.00    +0.000 A 
ATOM     19  C   UNL     1       5.316   5.360  19.031  0.00  0.00    +0.000 A 
ENDBRANCH  13  14
ENDBRANCH   3  13
BRANCH   9  20
ATOM     20  O   UNL     1      -1.037  10.676  23.018  0.00  0.00    +0.000 OA
BRANCH  20  21
ATOM     21  C   UNL     1      -1.441  12.005  22.658  0.00  0.00    +0.000 C 
BRANCH  21  22
ATOM     22  C   UNL     1      -2.909  12.194  22.816  0.00  0.00    +0.000 A 
ATOM     23  N   UNL     1      -3.552  12.077  24.019  0.00  0.00    +0.000 NA
ATOM     24  N   UNL     1      -4.831  12.350  23.788  0.00  0.00    +0.000 NA
ATOM     25  N   UNL     1      -4.890  12.616  22.478  0.00  0.00    +0.000 N 
ATOM     26  N   UNL     1      -3.727  12.557  21.812  0.00  0.00    +0.000 NA
ATOM     27  H   UNL     1      -5.765  12.862  22.020  0.00  0.00    +0.000 HD
ENDBRANCH  21  22
ENDBRANCH  20  21
ENDBRANCH   9  20
TORSDOF 5
ENDMDL
