MODEL 1
REMARK VINA RESULT:      -7.1      0.000      0.000
REMARK  Name = 
REMARK  11 active torsions:
REMARK  status: ('A' for Active; 'I' for Inactive)
REMARK    1  A    between atoms: C_1  and  C_2
REMARK    2  A    between atoms: C_2  and  O_3
REMARK    3  A    between atoms: O_3  and  C_4
REMARK    4  A    between atoms: C_4  and  C_6
REMARK    5  A    between atoms: C_6  and  C_7
REMARK    6  A    between atoms: C_7  and  O_9
REMARK    7  A    between atoms: O_9  and  C_10
REMARK    8  A    between atoms: C_10  and  C_11
REMARK    9  A    between atoms: N_13  and  C_14
REMARK   10  A    between atoms: C_14  and  C_15
REMARK   11  A    between atoms: N_17  and  C_18
REMARK                            x       y       z     vdW  Elec       q    Type
REMARK                         _______ _______ _______ _____ _____    ______ ____
ROOT
ATOM      1  C   UNL     1       5.452   5.310  16.839  0.00  0.00    +0.000 C 
ATOM      2  C   UNL     1       4.832   6.717  16.649  0.00  0.00    +0.000 C 
ATOM      3  N   UNL     1       3.872   7.125  17.693  0.00  0.00    +0.000 NA
ATOM      4  C   UNL     1       2.856   6.077  17.829  0.00  0.00    +0.000 C 
ATOM      5  N   UNL     1       3.325   4.710  17.998  0.00  0.00    +0.000 N 
ATOM      6  C   UNL     1       4.334   4.265  17.017  0.00  0.00    +0.000 C 
ENDROOT
BRANCH   5   7
ATOM      7  C   UNL     1       3.128   4.022  19.184  0.00  0.00    +0.000 A 
ATOM      8  C   UNL     1       3.932   2.922  19.521  0.00  0.00    +0.000 A 
ATOM      9  C   UNL     1       3.722   2.186  20.693  0.00  0.00    +0.000 A 
ATOM     10  C   UNL     1       2.701   2.541  21.568  0.00  0.00    +0.000 A 
ATOM     11  C   UNL     1       1.889   3.625  21.264  0.00  0.00    +0.000 A 
ATOM     12  C   UNL     1       2.099   4.347  20.084  0.00  0.00    +0.000 A 
ENDBRANCH   5   7
BRANCH   1  13
ATOM     13  C   UNL     1       6.387   5.193  18.026  0.00  0.00    +0.000 C 
ATOM     14  O   UNL     1       6.931   4.149  18.361  0.00  0.00    +0.000 OA
BRANCH  13  15
ATOM     15  O   UNL     1       6.602   6.393  18.640  0.00  0.00    +0.000 OA
BRANCH  15  17
ATOM     16  C   UNL     1       7.968   8.051  17.651  0.00  0.00    +0.000 C 
ATOM     17  C   UNL     1       7.954   6.856  18.583  0.00  0.00    +0.000 C 
ENDBRANCH  15  17
ENDBRANCH  13  15
ENDBRANCH   1  13
BRANCH   1  18
ATOM     18  C   UNL     1       6.283   5.075  15.593  0.00  0.00    +0.000 C 
ATOM     19  O   UNL     1       7.361   5.619  15.370  0.00  0.00    +0.000 OA
BRANCH  18  20
ATOM     20  O   UNL     1       5.589   4.370  14.654  0.00  0.00    +0.000 OA
BRANCH  20  21
ATOM     21  C   UNL     1       6.382   3.834  13.582  0.00  0.00    +0.000 C 
ATOM     22  C   UNL     1       5.434   3.476  12.450  0.00  0.00    +0.000 C 
ENDBRANCH  20  21
ENDBRANCH  18  20
ENDBRANCH   1  18
BRANCH   3  23
ATOM     23  C   UNL     1       3.217   8.411  17.405  0.00  0.00    +0.000 C 
ATOM     24  C   UNL     1       1.779   8.498  17.900  0.00  0.00    +0.000 C 
ENDBRANCH   3  23
TORSDOF 8
ENDMDL
MODEL 2
REMARK VINA RESULT:      -7.1      0.985      1.023
REMARK  Name = 
REMARK  11 active torsions:
REMARK  status: ('A' for Active; 'I' for Inactive)
REMARK    1  A    between atoms: C_1  and  C_2
REMARK    2  A    between atoms: C_2  and  O_3
REMARK    3  A    between atoms: O_3  and  C_4
REMARK    4  A    between atoms: C_4  and  C_6
REMARK    5  A    between atoms: C_6  and  C_7
REMARK    6  A    between atoms: C_7  and  O_9
REMARK    7  A    between atoms: O_9  and  C_10
REMARK    8  A    between atoms: C_10  and  C_11
REMARK    9  A    between atoms: N_13  and  C_14
REMARK   10  A    between atoms: C_14  and  C_15
REMARK   11  A    between atoms: N_17  and  C_18
REMARK                            x       y       z     vdW  Elec       q    Type
REMARK                         _______ _______ _______ _____ _____    ______ ____
ROOT
ATOM      1  C   UNL     1       4.694   5.466  16.977  0.00  0.00    +0.000 C 
ATOM      2  C   UNL     1       4.182   6.928  16.915  0.00  0.00    +0.000 C 
ATOM      3  N   UNL     1       3.253   7.312  17.994  0.00  0.00    +0.000 NA
ATOM      4  C   UNL     1       2.161   6.336  18.041  0.00  0.00    +0.000 C 
ATOM      5  N   UNL     1       2.525   4.928  18.087  0.00  0.00    +0.000 N 
ATOM      6  C   UNL     1       3.499   4.496  17.067  0.00  0.00    +0.000 C 
ENDROOT
BRANCH   5   7
ATOM      7  C   UNL     1       2.272   4.155  19.208  0.00  0.00    +0.000 A 
ATOM      8  C   UNL     1       1.674   2.891  19.091  0.00  0.00    +0.000 A 
ATOM      9  C   UNL     1       1.370   2.112  20.214  0.00  0.00    +0.000 A 
ATOM     10  C   UNL     1       1.670   2.577  21.490  0.00  0.00    +0.000 A 
ATOM     11  C   UNL     1       2.263   3.823  21.639  0.00  0.00    +0.000 A 
ATOM     12  C   UNL     1       2.552   4.599  20.512  0.00  0.00    +0.000 A 
ENDBRANCH   5   7
BRANCH   1  13
ATOM     13  C   UNL     1       5.614   5.174  18.145  0.00  0.00    +0.000 C 
ATOM     14  O   UNL     1       5.830   4.048  18.574  0.00  0.00    +0.000 OA
BRANCH  13  15
ATOM     15  O   UNL     1       6.221   6.299  18.623  0.00  0.00    +0.000 OA
BRANCH  15  17
ATOM     16  C   UNL     1       7.842   7.768  17.723  0.00  0.00    +0.000 C 
ATOM     17  C   UNL     1       7.616   6.395  18.324  0.00  0.00    +0.000 C 
ENDBRANCH  15  17
ENDBRANCH  13  15
ENDBRANCH   1  13
BRANCH   1  18
ATOM     18  C   UNL     1       5.508   5.280  15.712  0.00  0.00    +0.000 C 
ATOM     19  O   UNL     1       6.084   6.189  15.123  0.00  0.00    +0.000 OA
BRANCH  18  20
ATOM     20  O   UNL     1       5.336   4.033  15.185  0.00  0.00    +0.000 OA
BRANCH  20  21
ATOM     21  C   UNL     1       6.282   3.664  14.167  0.00  0.00    +0.000 C 
ATOM     22  C   UNL     1       5.526   3.588  12.851  0.00  0.00    +0.000 C 
ENDBRANCH  20  21
ENDBRANCH  18  20
ENDBRANCH   1  18
BRANCH   3  23
ATOM     23  C   UNL     1       2.698   8.664  17.823  0.00  0.00    +0.000 C 
ATOM     24  C   UNL     1       1.540   8.982  18.762  0.00  0.00    +0.000 C 
ENDBRANCH   3  23
TORSDOF 8
ENDMDL
MODEL 3
REMARK VINA RESULT:      -7.0      0.978      1.162
REMARK  Name = 
REMARK  11 active torsions:
REMARK  status: ('A' for Active; 'I' for Inactive)
REMARK    1  A    between atoms: C_1  and  C_2
REMARK    2  A    between atoms: C_2  and  O_3
REMARK    3  A    between atoms: O_3  and  C_4
REMARK    4  A    between atoms: C_4  and  C_6
REMARK    5  A    between atoms: C_6  and  C_7
REMARK    6  A    between atoms: C_7  and  O_9
REMARK    7  A    between atoms: O_9  and  C_10
REMARK    8  A    between atoms: C_10  and  C_11
REMARK    9  A    between atoms: N_13  and  C_14
REMARK   10  A    between atoms: C_14  and  C_15
REMARK   11  A    between atoms: N_17  and  C_18
REMARK                            x       y       z     vdW  Elec       q    Type
REMARK                         _______ _______ _______ _____ _____    ______ ____
ROOT
ATOM      1  C   UNL     1       4.952   5.356  17.159  0.00  0.00    +0.000 C 
ATOM      2  C   UNL     1       4.521   6.841  17.040  0.00  0.00    +0.000 C 
ATOM      3  N   UNL     1       3.499   7.276  18.009  0.00  0.00    +0.000 NA
ATOM      4  C   UNL     1       2.362   6.353  17.935  0.00  0.00    +0.000 C 
ATOM      5  N   UNL     1       2.650   4.930  18.022  0.00  0.00    +0.000 N 
ATOM      6  C   UNL     1       3.710   4.446  17.117  0.00  0.00    +0.000 C 
ENDROOT
BRANCH   5   7
ATOM      7  C   UNL     1       2.238   4.177  19.109  0.00  0.00    +0.000 A 
ATOM      8  C   UNL     1       2.537   4.580  20.420  0.00  0.00    +0.000 A 
ATOM      9  C   UNL     1       2.169   3.812  21.530  0.00  0.00    +0.000 A 
ATOM     10  C   UNL     1       1.478   2.618  21.357  0.00  0.00    +0.000 A 
ATOM     11  C   UNL     1       1.166   2.192  20.073  0.00  0.00    +0.000 A 
ATOM     12  C   UNL     1       1.549   2.960  18.969  0.00  0.00    +0.000 A 
ENDBRANCH   5   7
BRANCH   1  13
ATOM     13  C   UNL     1       5.722   5.029  18.422  0.00  0.00    +0.000 C 
ATOM     14  O   UNL     1       5.831   3.897  18.876  0.00  0.00    +0.000 OA
BRANCH  13  15
ATOM     15  O   UNL     1       6.329   6.125  18.961  0.00  0.00    +0.000 OA
BRANCH  15  17
ATOM     16  C   UNL     1       8.230   7.422  18.416  0.00  0.00    +0.000 C 
ATOM     17  C   UNL     1       7.759   6.082  18.944  0.00  0.00    +0.000 C 
ENDBRANCH  15  17
ENDBRANCH  13  15
ENDBRANCH   1  13
BRANCH   1  18
ATOM     18  C   UNL     1       5.892   5.124  15.992  0.00  0.00    +0.000 C 
ATOM     19  O   UNL     1       6.705   5.949  15.587  0.00  0.00    +0.000 OA
BRANCH  18  20
ATOM     20  O   UNL     1       5.569   3.988  15.309  0.00  0.00    +0.000 OA
BRANCH  20  21
ATOM     21  C   UNL     1       5.279   4.175  13.914  0.00  0.00    +0.000 C 
ATOM     22  C   UNL     1       6.488   3.694  13.130  0.00  0.00    +0.000 C 
ENDBRANCH  20  21
ENDBRANCH  18  20
ENDBRANCH   1  18
BRANCH   3  23
ATOM     23  C   UNL     1       3.031   8.652  17.777  0.00  0.00    +0.000 C 
ATOM     24  C   UNL     1       1.515   8.804  17.800  0.00  0.00    +0.000 C 
ENDBRANCH   3  23
TORSDOF 8
ENDMDL
MODEL 4
REMARK VINA RESULT:      -6.6      1.909      4.413
REMARK  Name = 
REMARK  11 active torsions:
REMARK  status: ('A' for Active; 'I' for Inactive)
REMARK    1  A    between atoms: C_1  and  C_2
REMARK    2  A    between atoms: C_2  and  O_3
REMARK    3  A    between atoms: O_3  and  C_4
REMARK    4  A    between atoms: C_4  and  C_6
REMARK    5  A    between atoms: C_6  and  C_7
REMARK    6  A    between atoms: C_7  and  O_9
REMARK    7  A    between atoms: O_9  and  C_10
REMARK    8  A    between atoms: C_10  and  C_11
REMARK    9  A    between atoms: N_13  and  C_14
REMARK   10  A    between atoms: C_14  and  C_15
REMARK   11  A    between atoms: N_17  and  C_18
REMARK                            x       y       z     vdW  Elec       q    Type
REMARK                         _______ _______ _______ _____ _____    ______ ____
ROOT
ATOM      1  C   UNL     1       6.260   5.734  17.265  0.00  0.00    +0.000 C 
ATOM      2  C   UNL     1       6.741   5.320  15.851  0.00  0.00    +0.000 C 
ATOM      3  N   UNL     1       5.830   4.420  15.118  0.00  0.00    +0.000 NA
ATOM      4  C   UNL     1       5.528   3.266  15.970  0.00  0.00    +0.000 C 
ATOM      5  N   UNL     1       5.081   3.536  17.328  0.00  0.00    +0.000 N 
ATOM      6  C   UNL     1       5.921   4.478  18.091  0.00  0.00    +0.000 C 
ENDROOT
BRANCH   5   7
ATOM      7  C   UNL     1       3.792   3.235  17.735  0.00  0.00    +0.000 A 
ATOM      8  C   UNL     1       2.688   3.905  17.184  0.00  0.00    +0.000 A 
ATOM      9  C   UNL     1       1.380   3.648  17.612  0.00  0.00    +0.000 A 
ATOM     10  C   UNL     1       1.141   2.699  18.601  0.00  0.00    +0.000 A 
ATOM     11  C   UNL     1       2.212   2.019  19.164  0.00  0.00    +0.000 A 
ATOM     12  C   UNL     1       3.516   2.291  18.739  0.00  0.00    +0.000 A 
ENDBRANCH   5   7
BRANCH   1  13
ATOM     13  C   UNL     1       5.042   6.635  17.273  0.00  0.00    +0.000 C 
ATOM     14  O   UNL     1       4.609   7.199  16.277  0.00  0.00    +0.000 OA
BRANCH  13  15
ATOM     15  O   UNL     1       4.447   6.696  18.500  0.00  0.00    +0.000 OA
BRANCH  15  17
ATOM     16  C   UNL     1       2.439   6.569  19.743  0.00  0.00    +0.000 C 
ATOM     17  C   UNL     1       3.076   7.103  18.476  0.00  0.00    +0.000 C 
ENDBRANCH  15  17
ENDBRANCH  13  15
ENDBRANCH   1  13
BRANCH   1  18
ATOM     18  C   UNL     1       7.407   6.532  17.853  0.00  0.00    +0.000 C 
ATOM     19  O   UNL     1       7.863   6.359  18.979  0.00  0.00    +0.000 OA
BRANCH  18  20
ATOM     20  O   UNL     1       7.718   7.608  17.074  0.00  0.00    +0.000 OA
BRANCH  20  21
ATOM     21  C   UNL     1       7.415   8.889  17.652  0.00  0.00    +0.000 C 
ATOM     22  C   UNL     1       8.695   9.419  18.277  0.00  0.00    +0.000 C 
ENDBRANCH  20  21
ENDBRANCH  18  20
ENDBRANCH   1  18
BRANCH   3  23
ATOM     23  C   UNL     1       6.384   3.955  13.837  0.00  0.00    +0.000 C 
ATOM     24  C   UNL     1       5.329   3.614  12.792  0.00  0.00    +0.000 C 
ENDBRANCH   3  23
TORSDOF 8
ENDMDL
MODEL 5
REMARK VINA RESULT:      -6.5      1.625      4.899
REMARK  Name = 
REMARK  11 active torsions:
REMARK  status: ('A' for Active; 'I' for Inactive)
REMARK    1  A    between atoms: C_1  and  C_2
REMARK    2  A    between atoms: C_2  and  O_3
REMARK    3  A    between atoms: O_3  and  C_4
REMARK    4  A    between atoms: C_4  and  C_6
REMARK    5  A    between atoms: C_6  and  C_7
REMARK    6  A    between atoms: C_7  and  O_9
REMARK    7  A    between atoms: O_9  and  C_10
REMARK    8  A    between atoms: C_10  and  C_11
REMARK    9  A    between atoms: N_13  and  C_14
REMARK   10  A    between atoms: C_14  and  C_15
REMARK   11  A    between atoms: N_17  and  C_18
REMARK                            x       y       z     vdW  Elec       q    Type
REMARK                         _______ _______ _______ _____ _____    ______ ____
ROOT
ATOM      1  C   UNL     1       4.899   5.220  18.316  0.00  0.00    +0.000 C 
ATOM      2  C   UNL     1       4.091   3.910  18.135  0.00  0.00    +0.000 C 
ATOM      3  N   UNL     1       2.632   4.087  18.010  0.00  0.00    +0.000 NA
ATOM      4  C   UNL     1       2.159   4.887  19.144  0.00  0.00    +0.000 C 
ATOM      5  N   UNL     1       2.856   6.135  19.417  0.00  0.00    +0.000 N 
ATOM      6  C   UNL     1       4.326   6.031  19.494  0.00  0.00    +0.000 C 
ENDROOT
BRANCH   5   7
ATOM      7  C   UNL     1       2.233   7.360  19.248  0.00  0.00    +0.000 A 
ATOM      8  C   UNL     1       1.641   8.024  20.334  0.00  0.00    +0.000 A 
ATOM      9  C   UNL     1       0.968   9.241  20.177  0.00  0.00    +0.000 A 
ATOM     10  C   UNL     1       0.879   9.835  18.923  0.00  0.00    +0.000 A 
ATOM     11  C   UNL     1       1.456   9.205  17.828  0.00  0.00    +0.000 A 
ATOM     12  C   UNL     1       2.116   7.982  17.993  0.00  0.00    +0.000 A 
ENDBRANCH   5   7
BRANCH   1  13
ATOM     13  C   UNL     1       4.912   6.121  17.098  0.00  0.00    +0.000 C 
ATOM     14  O   UNL     1       5.172   7.316  17.140  0.00  0.00    +0.000 OA
BRANCH  13  15
ATOM     15  O   UNL     1       4.660   5.439  15.943  0.00  0.00    +0.000 OA
BRANCH  15  17
ATOM     16  C   UNL     1       5.955   4.060  14.523  0.00  0.00    +0.000 C 
ATOM     17  C   UNL     1       5.719   5.485  14.983  0.00  0.00    +0.000 C 
ENDBRANCH  15  17
ENDBRANCH  13  15
ENDBRANCH   1  13
BRANCH   1  18
ATOM     18  C   UNL     1       6.328   4.771  18.552  0.00  0.00    +0.000 C 
ATOM     19  O   UNL     1       6.898   3.909  17.890  0.00  0.00    +0.000 OA
BRANCH  18  20
ATOM     20  O   UNL     1       6.823   5.271  19.721  0.00  0.00    +0.000 OA
BRANCH  20  21
ATOM     21  C   UNL     1       8.165   5.782  19.648  0.00  0.00    +0.000 C 
ATOM     22  C   UNL     1       8.151   6.956  18.685  0.00  0.00    +0.000 C 
ENDBRANCH  20  21
ENDBRANCH  18  20
ENDBRANCH   1  18
BRANCH   3  23
ATOM     23  C   UNL     1       1.897   2.813  17.967  0.00  0.00    +0.000 C 
ATOM     24  C   UNL     1       2.475   1.733  18.874  0.00  0.00    +0.000 C 
ENDBRANCH   3  23
TORSDOF 8
ENDMDL
MODEL 6
REMARK VINA RESULT:      -6.5      2.391      5.771
REMARK  Name = 
REMARK  11 active torsions:
REMARK  status: ('A' for Active; 'I' for Inactive)
REMARK    1  A    between atoms: C_1  and  C_2
REMARK    2  A    between atoms: C_2  and  O_3
REMARK    3  A    between atoms: O_3  and  C_4
REMARK    4  A    between atoms: C_4  and  C_6
REMARK    5  A    between atoms: C_6  and  C_7
REMARK    6  A    between atoms: C_7  and  O_9
REMARK    7  A    between atoms: O_9  and  C_10
REMARK    8  A    between atoms: C_10  and  C_11
REMARK    9  A    between atoms: N_13  and  C_14
REMARK   10  A    between atoms: C_14  and  C_15
REMARK   11  A    between atoms: N_17  and  C_18
REMARK                            x       y       z     vdW  Elec       q    Type
REMARK                         _______ _______ _______ _____ _____    ______ ____
ROOT
ATOM      1  C   UNL     1       2.710   5.536  19.075  0.00  0.00    +0.000 C 
ATOM      2  C   UNL     1       2.160   6.971  18.875  0.00  0.00    +0.000 C 
ATOM      3  N   UNL     1       2.661   7.672  17.678  0.00  0.00    +0.000 NA
ATOM      4  C   UNL     1       4.126   7.628  17.689  0.00  0.00    +0.000 C 
ATOM      5  N   UNL     1       4.754   6.330  17.886  0.00  0.00    +0.000 N 
ATOM      6  C   UNL     1       4.250   5.555  19.036  0.00  0.00    +0.000 C 
ENDROOT
BRANCH   5   7
ATOM      7  C   UNL     1       5.483   5.723  16.877  0.00  0.00    +0.000 A 
ATOM      8  C   UNL     1       6.635   4.977  17.171  0.00  0.00    +0.000 A 
ATOM      9  C   UNL     1       7.411   4.391  16.163  0.00  0.00    +0.000 A 
ATOM     10  C   UNL     1       7.045   4.528  14.829  0.00  0.00    +0.000 A 
ATOM     11  C   UNL     1       5.910   5.259  14.506  0.00  0.00    +0.000 A 
ATOM     12  C   UNL     1       5.147   5.851  15.519  0.00  0.00    +0.000 A 
ENDBRANCH   5   7
BRANCH   1  13
ATOM     13  C   UNL     1       2.233   4.534  18.044  0.00  0.00    +0.000 C 
ATOM     14  O   UNL     1       1.142   4.595  17.492  0.00  0.00    +0.000 OA
BRANCH  13  15
ATOM     15  O   UNL     1       3.179   3.594  17.755  0.00  0.00    +0.000 OA
BRANCH  15  17
ATOM     16  C   UNL     1       3.629   1.398  18.510  0.00  0.00    +0.000 C 
ATOM     17  C   UNL     1       2.685   2.253  17.689  0.00  0.00    +0.000 C 
ENDBRANCH  15  17
ENDBRANCH  13  15
ENDBRANCH   1  13
BRANCH   1  18
ATOM     18  C   UNL     1       2.162   5.088  20.416  0.00  0.00    +0.000 C 
ATOM     19  O   UNL     1       1.312   5.703  21.054  0.00  0.00    +0.000 OA
BRANCH  18  20
ATOM     20  O   UNL     1       2.884   4.052  20.932  0.00  0.00    +0.000 OA
BRANCH  20  21
ATOM     21  C   UNL     1       2.154   3.170  21.801  0.00  0.00    +0.000 C 
ATOM     22  C   UNL     1       1.095   2.478  20.959  0.00  0.00    +0.000 C 
ENDBRANCH  20  21
ENDBRANCH  18  20
ENDBRANCH   1  18
BRANCH   3  23
ATOM     23  C   UNL     1       2.211   9.071  17.597  0.00  0.00    +0.000 C 
ATOM     24  C   UNL     1       1.206   9.462  18.673  0.00  0.00    +0.000 C 
ENDBRANCH   3  23
TORSDOF 8
ENDMDL
MODEL 7
REMARK VINA RESULT:      -6.4      1.149      1.410
REMARK  Name = 
REMARK  11 active torsions:
REMARK  status: ('A' for Active; 'I' for Inactive)
REMARK    1  A    between atoms: C_1  and  C_2
REMARK    2  A    between atoms: C_2  and  O_3
REMARK    3  A    between atoms: O_3  and  C_4
REMARK    4  A    between atoms: C_4  and  C_6
REMARK    5  A    between atoms: C_6  and  C_7
REMARK    6  A    between atoms: C_7  and  O_9
REMARK    7  A    between atoms: O_9  and  C_10
REMARK    8  A    between atoms: C_10  and  C_11
REMARK    9  A    between atoms: N_13  and  C_14
REMARK   10  A    between atoms: C_14  and  C_15
REMARK   11  A    between atoms: N_17  and  C_18
REMARK                            x       y       z     vdW  Elec       q    Type
REMARK                         _______ _______ _______ _____ _____    ______ ____
ROOT
ATOM      1  C   UNL     1       4.884   4.903  17.125  0.00  0.00    +0.000 C 
ATOM      2  C   UNL     1       4.503   6.386  16.883  0.00  0.00    +0.000 C 
ATOM      3  N   UNL     1       3.535   6.949  17.842  0.00  0.00    +0.000 NA
ATOM      4  C   UNL     1       2.363   6.070  17.895  0.00  0.00    +0.000 C 
ATOM      5  N   UNL     1       2.603   4.650  18.104  0.00  0.00    +0.000 N 
ATOM      6  C   UNL     1       3.609   4.043  17.211  0.00  0.00    +0.000 C 
ENDROOT
BRANCH   5   7
ATOM      7  C   UNL     1       2.206   4.016  19.270  0.00  0.00    +0.000 A 
ATOM      8  C   UNL     1       1.283   2.959  19.237  0.00  0.00    +0.000 A 
ATOM      9  C   UNL     1       0.835   2.334  20.407  0.00  0.00    +0.000 A 
ATOM     10  C   UNL     1       1.310   2.747  21.647  0.00  0.00    +0.000 A 
ATOM     11  C   UNL     1       2.225   3.790  21.713  0.00  0.00    +0.000 A 
ATOM     12  C   UNL     1       2.658   4.416  20.539  0.00  0.00    +0.000 A 
ENDBRANCH   5   7
BRANCH   1  13
ATOM     13  C   UNL     1       5.689   4.663  18.385  0.00  0.00    +0.000 C 
ATOM     14  O   UNL     1       5.840   3.559  18.894  0.00  0.00    +0.000 OA
BRANCH  13  15
ATOM     15  O   UNL     1       6.277   5.802  18.854  0.00  0.00    +0.000 OA
BRANCH  15  17
ATOM     16  C   UNL     1       8.026   7.256  18.205  0.00  0.00    +0.000 C 
ATOM     17  C   UNL     1       7.695   5.854  18.678  0.00  0.00    +0.000 C 
ENDBRANCH  15  17
ENDBRANCH  13  15
ENDBRANCH   1  13
BRANCH   1  18
ATOM     18  C   UNL     1       5.769   4.528  15.953  0.00  0.00    +0.000 C 
ATOM     19  O   UNL     1       6.029   3.373  15.628  0.00  0.00    +0.000 OA
BRANCH  18  20
ATOM     20  O   UNL     1       6.419   5.616  15.448  0.00  0.00    +0.000 OA
BRANCH  20  21
ATOM     21  C   UNL     1       7.573   5.319  14.643  0.00  0.00    +0.000 C 
ATOM     22  C   UNL     1       7.075   4.956  13.255  0.00  0.00    +0.000 C 
ENDBRANCH  20  21
ENDBRANCH  18  20
ENDBRANCH   1  18
BRANCH   3  23
ATOM     23  C   UNL     1       3.109   8.316  17.499  0.00  0.00    +0.000 C 
ATOM     24  C   UNL     1       1.707   8.667  17.980  0.00  0.00    +0.000 C 
ENDBRANCH   3  23
TORSDOF 8
ENDMDL
MODEL 8
REMARK VINA RESULT:      -6.4      1.701      4.760
REMARK  Name = 
REMARK  11 active torsions:
REMARK  status: ('A' for Active; 'I' for Inactive)
REMARK    1  A    between atoms: C_1  and  C_2
REMARK    2  A    between atoms: C_2  and  O_3
REMARK    3  A    between atoms: O_3  and  C_4
REMARK    4  A    between atoms: C_4  and  C_6
REMARK    5  A    between atoms: C_6  and  C_7
REMARK    6  A    between atoms: C_7  and  O_9
REMARK    7  A    between atoms: O_9  and  C_10
REMARK    8  A    between atoms: C_10  and  C_11
REMARK    9  A    between atoms: N_13  and  C_14
REMARK   10  A    between atoms: C_14  and  C_15
REMARK   11  A    between atoms: N_17  and  C_18
REMARK                            x       y       z     vdW  Elec       q    Type
REMARK                         _______ _______ _______ _____ _____    ______ ____
ROOT
ATOM      1  C   UNL     1       5.013   5.057  18.303  0.00  0.00    +0.000 C 
ATOM      2  C   UNL     1       4.235   3.720  18.197  0.00  0.00    +0.000 C 
ATOM      3  N   UNL     1       2.770   3.854  18.095  0.00  0.00    +0.000 NA
ATOM      4  C   UNL     1       2.299   4.692  19.202  0.00  0.00    +0.000 C 
ATOM      5  N   UNL     1       2.968   5.968  19.406  0.00  0.00    +0.000 N 
ATOM      6  C   UNL     1       4.441   5.905  19.456  0.00  0.00    +0.000 C 
ENDROOT
BRANCH   5   7
ATOM      7  C   UNL     1       2.310   7.168  19.196  0.00  0.00    +0.000 A 
ATOM      8  C   UNL     1       2.271   7.755  17.921  0.00  0.00    +0.000 A 
ATOM      9  C   UNL     1       1.649   8.988  17.695  0.00  0.00    +0.000 A 
ATOM     10  C   UNL     1       1.037   9.666  18.743  0.00  0.00    +0.000 A 
ATOM     11  C   UNL     1       1.056   9.111  20.016  0.00  0.00    +0.000 A 
ATOM     12  C   UNL     1       1.690   7.883  20.235  0.00  0.00    +0.000 A 
ENDBRANCH   5   7
BRANCH   1  13
ATOM     13  C   UNL     1       4.977   5.903  17.047  0.00  0.00    +0.000 C 
ATOM     14  O   UNL     1       5.179   7.110  17.035  0.00  0.00    +0.000 OA
BRANCH  13  15
ATOM     15  O   UNL     1       4.756   5.159  15.924  0.00  0.00    +0.000 OA
BRANCH  15  17
ATOM     16  C   UNL     1       6.566   4.418  14.594  0.00  0.00    +0.000 C 
ATOM     17  C   UNL     1       5.556   5.530  14.798  0.00  0.00    +0.000 C 
ENDBRANCH  15  17
ENDBRANCH  13  15
ENDBRANCH   1  13
BRANCH   1  18
ATOM     18  C   UNL     1       6.457   4.656  18.528  0.00  0.00    +0.000 C 
ATOM     19  O   UNL     1       7.054   3.821  17.855  0.00  0.00    +0.000 OA
BRANCH  18  20
ATOM     20  O   UNL     1       6.939   5.159  19.702  0.00  0.00    +0.000 OA
BRANCH  20  21
ATOM     21  C   UNL     1       8.239   5.767  19.617  0.00  0.00    +0.000 C 
ATOM     22  C   UNL     1       8.134   6.929  18.645  0.00  0.00    +0.000 C 
ENDBRANCH  20  21
ENDBRANCH  18  20
ENDBRANCH   1  18
BRANCH   3  23
ATOM     23  C   UNL     1       2.068   2.561  18.124  0.00  0.00    +0.000 C 
ATOM     24  C   UNL     1       0.700   2.613  18.792  0.00  0.00    +0.000 C 
ENDBRANCH   3  23
TORSDOF 8
ENDMDL
MODEL 9
REMARK VINA RESULT:      -6.3      1.324      2.407
REMARK  Name = 
REMARK  11 active torsions:
REMARK  status: ('A' for Active; 'I' for Inactive)
REMARK    1  A    between atoms: C_1  and  C_2
REMARK    2  A    between atoms: C_2  and  O_3
REMARK    3  A    between atoms: O_3  and  C_4
REMARK    4  A    between atoms: C_4  and  C_6
REMARK    5  A    between atoms: C_6  and  C_7
REMARK    6  A    between atoms: C_7  and  O_9
REMARK    7  A    between atoms: O_9  and  C_10
REMARK    8  A    between atoms: C_10  and  C_11
REMARK    9  A    between atoms: N_13  and  C_14
REMARK   10  A    between atoms: C_14  and  C_15
REMARK   11  A    between atoms: N_17  and  C_18
REMARK                            x       y       z     vdW  Elec       q    Type
REMARK                         _______ _______ _______ _____ _____    ______ ____
ROOT
ATOM      1  C   UNL     1       5.169   5.400  17.348  0.00  0.00    +0.000 C 
ATOM      2  C   UNL     1       4.791   6.898  17.216  0.00  0.00    +0.000 C 
ATOM      3  N   UNL     1       3.576   7.303  17.947  0.00  0.00    +0.000 NA
ATOM      4  C   UNL     1       2.479   6.411  17.561  0.00  0.00    +0.000 C 
ATOM      5  N   UNL     1       2.726   4.979  17.631  0.00  0.00    +0.000 N 
ATOM      6  C   UNL     1       3.962   4.521  16.969  0.00  0.00    +0.000 C 
ENDROOT
BRANCH   5   7
ATOM      7  C   UNL     1       2.067   4.179  18.550  0.00  0.00    +0.000 A 
ATOM      8  C   UNL     1       1.820   4.633  19.855  0.00  0.00    +0.000 A 
ATOM      9  C   UNL     1       1.195   3.825  20.812  0.00  0.00    +0.000 A 
ATOM     10  C   UNL     1       0.789   2.536  20.482  0.00  0.00    +0.000 A 
ATOM     11  C   UNL     1       1.018   2.058  19.199  0.00  0.00    +0.000 A 
ATOM     12  C   UNL     1       1.654   2.869  18.253  0.00  0.00    +0.000 A 
ENDBRANCH   5   7
BRANCH   1  13
ATOM     13  C   UNL     1       5.623   4.989  18.733  0.00  0.00    +0.000 C 
ATOM     14  O   UNL     1       5.940   5.785  19.608  0.00  0.00    +0.000 OA
BRANCH  13  15
ATOM     15  O   UNL     1       5.581   3.637  18.916  0.00  0.00    +0.000 OA
BRANCH  15  17
ATOM     16  C   UNL     1       4.584   1.762  19.957  0.00  0.00    +0.000 C 
ATOM     17  C   UNL     1       4.953   3.221  20.133  0.00  0.00    +0.000 C 
ENDBRANCH  15  17
ENDBRANCH  13  15
ENDBRANCH   1  13
BRANCH   1  18
ATOM     18  C   UNL     1       6.351   5.209  16.418  0.00  0.00    +0.000 C 
ATOM     19  O   UNL     1       7.348   5.925  16.414  0.00  0.00    +0.000 OA
BRANCH  18  20
ATOM     20  O   UNL     1       6.076   4.297  15.441  0.00  0.00    +0.000 OA
BRANCH  20  21
ATOM     21  C   UNL     1       6.638   4.595  14.151  0.00  0.00    +0.000 C 
ATOM     22  C   UNL     1       5.940   3.706  13.136  0.00  0.00    +0.000 C 
ENDBRANCH  20  21
ENDBRANCH  18  20
ENDBRANCH   1  18
BRANCH   3  23
ATOM     23  C   UNL     1       3.188   8.700  17.691  0.00  0.00    +0.000 C 
ATOM     24  C   UNL     1       1.697   8.968  17.853  0.00  0.00    +0.000 C 
ENDBRANCH   3  23
TORSDOF 8
ENDMDL
