MODEL 1
REMARK VINA RESULT:      -6.5      0.000      0.000
REMARK  Name = 
REMARK  4 active torsions:
REMARK  status: ('A' for Active; 'I' for Inactive)
REMARK    1  A    between atoms: C_1  and  C_2
REMARK    2  A    between atoms: C_2  and  C_3
REMARK    3  A    between atoms: C_2  and  N_4
REMARK    4  A    between atoms: C_8  and  C_10
REMARK                            x       y       z     vdW  Elec       q    Type
REMARK                         _______ _______ _______ _____ _____    ______ ____
ROOT
ATOM      1  N   UNL     1       0.578  10.344  19.412  0.00  0.00    +0.000 NA
ATOM      2  C   UNL     1       0.649   9.649  18.118  0.00  0.00    +0.000 C 
ATOM      3  C   UNL     1       1.844   8.689  17.926  0.00  0.00    +0.000 C 
ATOM      4  N   UNL     1       2.019   7.749  19.049  0.00  0.00    +0.000 N 
ATOM      5  C   UNL     1       2.756   6.544  18.966  0.00  0.00    +0.000 C 
ATOM      6  O   UNL     1       2.885   5.827  19.945  0.00  0.00    +0.000 OA
ATOM      7  C   UNL     1       1.794   8.317  20.382  0.00  0.00    +0.000 C 
ATOM      8  C   UNL     1       0.630   9.329  20.478  0.00  0.00    +0.000 C 
ENDROOT
BRANCH   5   9
ATOM      9  C   UNL     1       3.301   6.107  17.554  0.00  0.00    +0.000 C 
ATOM     10  C   UNL     1       3.575   4.594  17.424  0.00  0.00    +0.000 C 
ATOM     11  O   UNL     1       4.895   4.141  17.746  0.00  0.00    +0.000 OA
ATOM     12  C   UNL     1       5.822   5.133  17.846  0.00  0.00    +0.000 A 
ATOM     13  C   UNL     1       7.040   4.791  18.434  0.00  0.00    +0.000 A 
ATOM     14  C   UNL     1       8.006   5.774  18.652  0.00  0.00    +0.000 A 
ATOM     15  C   UNL     1       7.795   7.073  18.192  0.00  0.00    +0.000 A 
ATOM     16  C   UNL     1       6.593   7.402  17.564  0.00  0.00    +0.000 A 
ATOM     17  C   UNL     1       5.585   6.445  17.453  0.00  0.00    +0.000 A 
ATOM     18  O   UNL     1       4.369   6.872  17.001  0.00  0.00    +0.000 OA
ENDBRANCH   5   9
BRANCH   1  20
ATOM     19  C   UNL     1       1.976  12.325  18.474  0.00  0.00    +0.000 C 
ATOM     20  C   UNL     1       1.425  11.527  19.661  0.00  0.00    +0.000 C 
ATOM     21  C   UNL     1       0.761  12.520  20.629  0.00  0.00    +0.000 C 
ENDBRANCH   1  20
TORSDOF 2
ENDMDL
MODEL 2
REMARK VINA RESULT:      -6.4      3.190      7.517
REMARK  Name = 
REMARK  4 active torsions:
REMARK  status: ('A' for Active; 'I' for Inactive)
REMARK    1  A    between atoms: C_1  and  C_2
REMARK    2  A    between atoms: C_2  and  C_3
REMARK    3  A    between atoms: C_2  and  N_4
REMARK    4  A    between atoms: C_8  and  C_10
REMARK                            x       y       z     vdW  Elec       q    Type
REMARK                         _______ _______ _______ _____ _____    ______ ____
ROOT
ATOM      1  N   UNL     1       2.699   4.987  19.507  0.00  0.00    +0.000 NA
ATOM      2  C   UNL     1       3.249   6.163  18.815  0.00  0.00    +0.000 C 
ATOM      3  C   UNL     1       2.306   7.380  18.690  0.00  0.00    +0.000 C 
ATOM      4  N   UNL     1       1.673   7.759  19.967  0.00  0.00    +0.000 N 
ATOM      5  C   UNL     1       1.098   9.025  20.222  0.00  0.00    +0.000 C 
ATOM      6  O   UNL     1       0.563   9.260  21.293  0.00  0.00    +0.000 OA
ATOM      7  C   UNL     1       1.248   6.637  20.811  0.00  0.00    +0.000 C 
ATOM      8  C   UNL     1       2.204   5.423  20.824  0.00  0.00    +0.000 C 
ENDROOT
BRANCH   5   9
ATOM      9  C   UNL     1       1.270  10.148  19.130  0.00  0.00    +0.000 C 
ATOM     10  C   UNL     1       1.148  11.585  19.678  0.00  0.00    +0.000 C 
ATOM     11  O   UNL     1      -0.155  12.181  19.662  0.00  0.00    +0.000 OA
ATOM     12  C   UNL     1      -1.067  11.518  18.899  0.00  0.00    +0.000 A 
ATOM     13  C   UNL     1      -2.403  11.877  19.073  0.00  0.00    +0.000 A 
ATOM     14  C   UNL     1      -3.404  11.181  18.393  0.00  0.00    +0.000 A 
ATOM     15  C   UNL     1      -3.062  10.197  17.466  0.00  0.00    +0.000 A 
ATOM     16  C   UNL     1      -1.721   9.871  17.261  0.00  0.00    +0.000 A 
ATOM     17  C   UNL     1      -0.733  10.487  18.028  0.00  0.00    +0.000 A 
ATOM     18  O   UNL     1       0.537   9.997  17.917  0.00  0.00    +0.000 OA
ENDBRANCH   5   9
BRANCH   1  20
ATOM     19  C   UNL     1       2.308   3.285  17.581  0.00  0.00    +0.000 C 
ATOM     20  C   UNL     1       1.791   4.069  18.793  0.00  0.00    +0.000 C 
ATOM     21  C   UNL     1       1.111   3.071  19.744  0.00  0.00    +0.000 C 
ENDBRANCH   1  20
TORSDOF 2
ENDMDL
MODEL 3
REMARK VINA RESULT:      -6.3      3.551      5.677
REMARK  Name = 
REMARK  4 active torsions:
REMARK  status: ('A' for Active; 'I' for Inactive)
REMARK    1  A    between atoms: C_1  and  C_2
REMARK    2  A    between atoms: C_2  and  C_3
REMARK    3  A    between atoms: C_2  and  N_4
REMARK    4  A    between atoms: C_8  and  C_10
REMARK                            x       y       z     vdW  Elec       q    Type
REMARK                         _______ _______ _______ _____ _____    ______ ____
ROOT
ATOM      1  N   UNL     1       2.234   4.902  20.209  0.00  0.00    +0.000 NA
ATOM      2  C   UNL     1       3.627   4.433  20.258  0.00  0.00    +0.000 C 
ATOM      3  C   UNL     1       4.282   4.104  18.898  0.00  0.00    +0.000 C 
ATOM      4  N   UNL     1       4.113   5.174  17.897  0.00  0.00    +0.000 N 
ATOM      5  C   UNL     1       4.915   5.313  16.741  0.00  0.00    +0.000 C 
ATOM      6  O   UNL     1       4.699   6.207  15.939  0.00  0.00    +0.000 OA
ATOM      7  C   UNL     1       2.798   5.825  17.894  0.00  0.00    +0.000 C 
ATOM      8  C   UNL     1       2.172   6.051  19.288  0.00  0.00    +0.000 C 
ENDROOT
BRANCH   5   9
ATOM      9  C   UNL     1       6.156   4.355  16.584  0.00  0.00    +0.000 C 
ATOM     10  C   UNL     1       7.510   5.088  16.481  0.00  0.00    +0.000 C 
ATOM     11  O   UNL     1       7.973   5.421  15.167  0.00  0.00    +0.000 OA
ATOM     12  C   UNL     1       7.305   4.794  14.159  0.00  0.00    +0.000 A 
ATOM     13  C   UNL     1       7.511   5.290  12.872  0.00  0.00    +0.000 A 
ATOM     14  C   UNL     1       6.794   4.757  11.800  0.00  0.00    +0.000 A 
ATOM     15  C   UNL     1       5.949   3.666  11.999  0.00  0.00    +0.000 A 
ATOM     16  C   UNL     1       5.779   3.143  13.281  0.00  0.00    +0.000 A 
ATOM     17  C   UNL     1       6.408   3.752  14.367  0.00  0.00    +0.000 A 
ATOM     18  O   UNL     1       6.059   3.315  15.613  0.00  0.00    +0.000 OA
ENDBRANCH   5   9
BRANCH   1  20
ATOM     19  C   UNL     1       0.972   3.198  18.704  0.00  0.00    +0.000 C 
ATOM     20  C   UNL     1       1.135   3.931  20.041  0.00  0.00    +0.000 C 
ATOM     21  C   UNL     1       1.116   2.879  21.161  0.00  0.00    +0.000 C 
ENDBRANCH   1  20
TORSDOF 2
ENDMDL
MODEL 4
REMARK VINA RESULT:      -6.3      3.394      6.861
REMARK  Name = 
REMARK  4 active torsions:
REMARK  status: ('A' for Active; 'I' for Inactive)
REMARK    1  A    between atoms: C_1  and  C_2
REMARK    2  A    between atoms: C_2  and  C_3
REMARK    3  A    between atoms: C_2  and  N_4
REMARK    4  A    between atoms: C_8  and  C_10
REMARK                            x       y       z     vdW  Elec       q    Type
REMARK                         _______ _______ _______ _____ _____    ______ ____
ROOT
ATOM      1  N   UNL     1       7.105   5.722  15.195  0.00  0.00    +0.000 NA
ATOM      2  C   UNL     1       5.954   6.628  15.335  0.00  0.00    +0.000 C 
ATOM      3  C   UNL     1       4.846   6.174  16.311  0.00  0.00    +0.000 C 
ATOM      4  N   UNL     1       5.365   5.760  17.628  0.00  0.00    +0.000 N 
ATOM      5  C   UNL     1       4.577   5.680  18.800  0.00  0.00    +0.000 C 
ATOM      6  O   UNL     1       5.067   5.301  19.852  0.00  0.00    +0.000 OA
ATOM      7  C   UNL     1       6.616   4.995  17.596  0.00  0.00    +0.000 C 
ATOM      8  C   UNL     1       7.645   5.460  16.541  0.00  0.00    +0.000 C 
ENDROOT
BRANCH   5   9
ATOM      9  C   UNL     1       3.092   6.201  18.730  0.00  0.00    +0.000 C 
ATOM     10  C   UNL     1       2.512   6.639  20.091  0.00  0.00    +0.000 C 
ATOM     11  O   UNL     1       1.816   5.645  20.852  0.00  0.00    +0.000 OA
ATOM     12  C   UNL     1       1.501   4.519  20.154  0.00  0.00    +0.000 A 
ATOM     13  C   UNL     1       1.091   3.416  20.903  0.00  0.00    +0.000 A 
ATOM     14  C   UNL     1       0.837   2.200  20.267  0.00  0.00    +0.000 A 
ATOM     15  C   UNL     1       0.896   2.115  18.877  0.00  0.00    +0.000 A 
ATOM     16  C   UNL     1       1.264   3.232  18.127  0.00  0.00    +0.000 A 
ATOM     17  C   UNL     1       1.629   4.412  18.774  0.00  0.00    +0.000 A 
ATOM     18  O   UNL     1       2.157   5.408  18.002  0.00  0.00    +0.000 OA
ENDBRANCH   5   9
BRANCH   1  20
ATOM     19  C   UNL     1       5.663   3.778  14.246  0.00  0.00    +0.000 C 
ATOM     20  C   UNL     1       7.000   4.523  14.341  0.00  0.00    +0.000 C 
ATOM     21  C   UNL     1       7.496   4.786  12.911  0.00  0.00    +0.000 C 
ENDBRANCH   1  20
TORSDOF 2
ENDMDL
MODEL 5
REMARK VINA RESULT:      -6.1      2.054      4.058
REMARK  Name = 
REMARK  4 active torsions:
REMARK  status: ('A' for Active; 'I' for Inactive)
REMARK    1  A    between atoms: C_1  and  C_2
REMARK    2  A    between atoms: C_2  and  C_3
REMARK    3  A    between atoms: C_2  and  N_4
REMARK    4  A    between atoms: C_8  and  C_10
REMARK                            x       y       z     vdW  Elec       q    Type
REMARK                         _______ _______ _______ _____ _____    ______ ____
ROOT
ATOM      1  N   UNL     1       0.566  10.524  19.205  0.00  0.00    +0.000 NA
ATOM      2  C   UNL     1       1.355   9.941  20.302  0.00  0.00    +0.000 C 
ATOM      3  C   UNL     1       1.689   8.439  20.175  0.00  0.00    +0.000 C 
ATOM      4  N   UNL     1       2.251   8.077  18.860  0.00  0.00    +0.000 N 
ATOM      5  C   UNL     1       2.989   6.897  18.611  0.00  0.00    +0.000 C 
ATOM      6  O   UNL     1       3.400   6.646  17.490  0.00  0.00    +0.000 OA
ATOM      7  C   UNL     1       1.637   8.750  17.710  0.00  0.00    +0.000 C 
ATOM      8  C   UNL     1       1.259  10.231  17.939  0.00  0.00    +0.000 C 
ENDROOT
BRANCH   5   9
ATOM      9  C   UNL     1       3.357   5.982  19.840  0.00  0.00    +0.000 C 
ATOM     10  C   UNL     1       4.660   5.176  19.659  0.00  0.00    +0.000 C 
ATOM     11  O   UNL     1       4.541   3.864  19.095  0.00  0.00    +0.000 OA
ATOM     12  C   UNL     1       3.269   3.380  19.059  0.00  0.00    +0.000 A 
ATOM     13  C   UNL     1       3.055   2.250  18.269  0.00  0.00    +0.000 A 
ATOM     14  C   UNL     1       1.762   1.749  18.111  0.00  0.00    +0.000 A 
ATOM     15  C   UNL     1       0.704   2.314  18.821  0.00  0.00    +0.000 A 
ATOM     16  C   UNL     1       0.929   3.416  19.645  0.00  0.00    +0.000 A 
ATOM     17  C   UNL     1       2.200   3.985  19.709  0.00  0.00    +0.000 A 
ATOM     18  O   UNL     1       2.319   5.168  20.382  0.00  0.00    +0.000 OA
ENDBRANCH   5   9
BRANCH   1  20
ATOM     19  C   UNL     1      -1.822  11.319  19.856  0.00  0.00    +0.000 C 
ATOM     20  C   UNL     1      -0.895  10.318  19.157  0.00  0.00    +0.000 C 
ATOM     21  C   UNL     1      -1.405  10.127  17.720  0.00  0.00    +0.000 C 
ENDBRANCH   1  20
TORSDOF 2
ENDMDL
MODEL 6
REMARK VINA RESULT:      -6.1      1.527      2.587
REMARK  Name = 
REMARK  4 active torsions:
REMARK  status: ('A' for Active; 'I' for Inactive)
REMARK    1  A    between atoms: C_1  and  C_2
REMARK    2  A    between atoms: C_2  and  C_3
REMARK    3  A    between atoms: C_2  and  N_4
REMARK    4  A    between atoms: C_8  and  C_10
REMARK                            x       y       z     vdW  Elec       q    Type
REMARK                         _______ _______ _______ _____ _____    ______ ____
ROOT
ATOM      1  N   UNL     1       0.570  10.347  19.902  0.00  0.00    +0.000 NA
ATOM      2  C   UNL     1       1.061   9.159  20.618  0.00  0.00    +0.000 C 
ATOM      3  C   UNL     1       1.403   7.932  19.745  0.00  0.00    +0.000 C 
ATOM      4  N   UNL     1       2.268   8.259  18.596  0.00  0.00    +0.000 N 
ATOM      5  C   UNL     1       3.034   7.307  17.884  0.00  0.00    +0.000 C 
ATOM      6  O   UNL     1       3.705   7.645  16.922  0.00  0.00    +0.000 OA
ATOM      7  C   UNL     1       1.960   9.526  17.922  0.00  0.00    +0.000 C 
ATOM      8  C   UNL     1       1.551  10.686  18.856  0.00  0.00    +0.000 C 
ENDROOT
BRANCH   5   9
ATOM      9  C   UNL     1       3.081   5.833  18.438  0.00  0.00    +0.000 C 
ATOM     10  C   UNL     1       3.989   5.651  19.672  0.00  0.00    +0.000 C 
ATOM     11  O   UNL     1       5.354   5.291  19.430  0.00  0.00    +0.000 OA
ATOM     12  C   UNL     1       5.608   4.869  18.161  0.00  0.00    +0.000 A 
ATOM     13  C   UNL     1       6.950   4.784  17.789  0.00  0.00    +0.000 A 
ATOM     14  C   UNL     1       7.287   4.446  16.478  0.00  0.00    +0.000 A 
ATOM     15  C   UNL     1       6.289   4.095  15.570  0.00  0.00    +0.000 A 
ATOM     16  C   UNL     1       4.950   4.138  15.957  0.00  0.00    +0.000 A 
ATOM     17  C   UNL     1       4.612   4.589  17.232  0.00  0.00    +0.000 A 
ATOM     18  O   UNL     1       3.285   4.787  17.491  0.00  0.00    +0.000 OA
ENDBRANCH   5   9
BRANCH   1  20
ATOM     19  C   UNL     1      -1.683  11.639  19.812  0.00  0.00    +0.000 C 
ATOM     20  C   UNL     1      -0.836  10.412  19.458  0.00  0.00    +0.000 C 
ATOM     21  C   UNL     1      -0.977  10.160  17.949  0.00  0.00    +0.000 C 
ENDBRANCH   1  20
TORSDOF 2
ENDMDL
MODEL 7
REMARK VINA RESULT:      -5.9      3.035      7.382
REMARK  Name = 
REMARK  4 active torsions:
REMARK  status: ('A' for Active; 'I' for Inactive)
REMARK    1  A    between atoms: C_1  and  C_2
REMARK    2  A    between atoms: C_2  and  C_3
REMARK    3  A    between atoms: C_2  and  N_4
REMARK    4  A    between atoms: C_8  and  C_10
REMARK                            x       y       z     vdW  Elec       q    Type
REMARK                         _______ _______ _______ _____ _____    ______ ____
ROOT
ATOM      1  N   UNL     1       3.104   4.480  19.047  0.00  0.00    +0.000 NA
ATOM      2  C   UNL     1       3.420   5.514  18.049  0.00  0.00    +0.000 C 
ATOM      3  C   UNL     1       2.421   6.688  17.947  0.00  0.00    +0.000 C 
ATOM      4  N   UNL     1       2.094   7.288  19.254  0.00  0.00    +0.000 N 
ATOM      5  C   UNL     1       1.540   8.579  19.418  0.00  0.00    +0.000 C 
ATOM      6  O   UNL     1       1.265   9.000  20.530  0.00  0.00    +0.000 OA
ATOM      7  C   UNL     1       1.932   6.334  20.357  0.00  0.00    +0.000 C 
ATOM      8  C   UNL     1       2.918   5.144  20.349  0.00  0.00    +0.000 C 
ENDROOT
BRANCH   5   9
ATOM      9  C   UNL     1       1.397   9.489  18.140  0.00  0.00    +0.000 C 
ATOM     10  C   UNL     1       2.265  10.764  18.172  0.00  0.00    +0.000 C 
ATOM     11  O   UNL     1       1.667  11.945  18.719  0.00  0.00    +0.000 OA
ATOM     12  C   UNL     1       0.316  11.873  18.873  0.00  0.00    +0.000 A 
ATOM     13  C   UNL     1      -0.275  12.863  19.658  0.00  0.00    +0.000 A 
ATOM     14  C   UNL     1      -1.642  12.806  19.935  0.00  0.00    +0.000 A 
ATOM     15  C   UNL     1      -2.431  11.818  19.347  0.00  0.00    +0.000 A 
ATOM     16  C   UNL     1      -1.844  10.855  18.526  0.00  0.00    +0.000 A 
ATOM     17  C   UNL     1      -0.461  10.848  18.346  0.00  0.00    +0.000 A 
ATOM     18  O   UNL     1       0.075   9.777  17.689  0.00  0.00    +0.000 OA
ENDBRANCH   5   9
BRANCH   1  20
ATOM     19  C   UNL     1       2.433   2.326  17.755  0.00  0.00    +0.000 C 
ATOM     20  C   UNL     1       2.094   3.447  18.744  0.00  0.00    +0.000 C 
ATOM     21  C   UNL     1       1.530   2.798  20.018  0.00  0.00    +0.000 C 
ENDBRANCH   1  20
TORSDOF 2
ENDMDL
MODEL 8
REMARK VINA RESULT:      -5.8      3.686      7.259
REMARK  Name = 
REMARK  4 active torsions:
REMARK  status: ('A' for Active; 'I' for Inactive)
REMARK    1  A    between atoms: C_1  and  C_2
REMARK    2  A    between atoms: C_2  and  C_3
REMARK    3  A    between atoms: C_2  and  N_4
REMARK    4  A    between atoms: C_8  and  C_10
REMARK                            x       y       z     vdW  Elec       q    Type
REMARK                         _______ _______ _______ _____ _____    ______ ____
ROOT
ATOM      1  N   UNL     1       6.795   4.916  14.042  0.00  0.00    +0.000 NA
ATOM      2  C   UNL     1       5.788   5.950  14.329  0.00  0.00    +0.000 C 
ATOM      3  C   UNL     1       4.755   5.608  15.425  0.00  0.00    +0.000 C 
ATOM      4  N   UNL     1       5.371   5.102  16.666  0.00  0.00    +0.000 N 
ATOM      5  C   UNL     1       4.723   5.087  17.923  0.00  0.00    +0.000 C 
ATOM      6  O   UNL     1       5.282   4.624  18.904  0.00  0.00    +0.000 OA
ATOM      7  C   UNL     1       6.506   4.192  16.476  0.00  0.00    +0.000 C 
ATOM      8  C   UNL     1       7.453   4.557  15.311  0.00  0.00    +0.000 C 
ENDROOT
BRANCH   5   9
ATOM      9  C   UNL     1       3.315   5.784  18.037  0.00  0.00    +0.000 C 
ATOM     10  C   UNL     1       3.116   6.598  19.333  0.00  0.00    +0.000 C 
ATOM     11  O   UNL     1       2.540   5.913  20.451  0.00  0.00    +0.000 OA
ATOM     12  C   UNL     1       1.971   4.715  20.145  0.00  0.00    +0.000 A 
ATOM     13  C   UNL     1       1.658   3.881  21.219  0.00  0.00    +0.000 A 
ATOM     14  C   UNL     1       1.155   2.601  20.981  0.00  0.00    +0.000 A 
ATOM     15  C   UNL     1       0.872   2.195  19.678  0.00  0.00    +0.000 A 
ATOM     16  C   UNL     1       1.145   3.048  18.608  0.00  0.00    +0.000 A 
ATOM     17  C   UNL     1       1.756   4.279  18.842  0.00  0.00    +0.000 A 
ATOM     18  O   UNL     1       2.167   4.988  17.749  0.00  0.00    +0.000 OA
ENDBRANCH   5   9
BRANCH   1  20
ATOM     19  C   UNL     1       4.987   3.553  12.766  0.00  0.00    +0.000 C 
ATOM     20  C   UNL     1       6.444   3.761  13.193  0.00  0.00    +0.000 C 
ATOM     21  C   UNL     1       7.321   3.680  11.934  0.00  0.00    +0.000 C 
ENDBRANCH   1  20
TORSDOF 2
ENDMDL
MODEL 9
REMARK VINA RESULT:      -5.7      6.175     10.672
REMARK  Name = 
REMARK  4 active torsions:
REMARK  status: ('A' for Active; 'I' for Inactive)
REMARK    1  A    between atoms: C_1  and  C_2
REMARK    2  A    between atoms: C_2  and  C_3
REMARK    3  A    between atoms: C_2  and  N_4
REMARK    4  A    between atoms: C_8  and  C_10
REMARK                            x       y       z     vdW  Elec       q    Type
REMARK                         _______ _______ _______ _____ _____    ______ ____
ROOT
ATOM      1  N   UNL     1       0.935  10.359  21.374  0.00  0.00    +0.000 NA
ATOM      2  C   UNL     1       0.564  11.737  21.017  0.00  0.00    +0.000 C 
ATOM      3  C   UNL     1      -0.941  12.078  21.092  0.00  0.00    +0.000 C 
ATOM      4  N   UNL     1      -1.567  11.667  22.362  0.00  0.00    +0.000 N 
ATOM      5  C   UNL     1      -2.789  12.188  22.848  0.00  0.00    +0.000 C 
ATOM      6  O   UNL     1      -3.266  11.779  23.894  0.00  0.00    +0.000 OA
ATOM      7  C   UNL     1      -1.123  10.372  22.889  0.00  0.00    +0.000 C 
ATOM      8  C   UNL     1       0.381  10.069  22.708  0.00  0.00    +0.000 C 
ENDROOT
BRANCH   5   9
ATOM      9  C   UNL     1      -3.449  13.381  22.059  0.00  0.00    +0.000 C 
ATOM     10  C   UNL     1      -4.295  14.327  22.937  0.00  0.00    +0.000 C 
ATOM     11  O   UNL     1      -5.690  14.025  23.063  0.00  0.00    +0.000 OA
ATOM     12  C   UNL     1      -6.153  13.116  22.161  0.00  0.00    +0.000 A 
ATOM     13  C   UNL     1      -7.412  12.572  22.415  0.00  0.00    +0.000 A 
ATOM     14  C   UNL     1      -7.916  11.569  21.586  0.00  0.00    +0.000 A 
ATOM     15  C   UNL     1      -7.206  11.183  20.449  0.00  0.00    +0.000 A 
ATOM     16  C   UNL     1      -5.966  11.760  20.174  0.00  0.00    +0.000 A 
ATOM     17  C   UNL     1      -5.415  12.677  21.068  0.00  0.00    +0.000 A 
ATOM     18  O   UNL     1      -4.125  13.066  20.844  0.00  0.00    +0.000 OA
ENDBRANCH   5   9
BRANCH   1  20
ATOM     19  C   UNL     1       1.068   9.525  18.915  0.00  0.00    +0.000 C 
ATOM     20  C   UNL     1       0.754   9.270  20.394  0.00  0.00    +0.000 C 
ATOM     21  C   UNL     1       1.484   7.985  20.816  0.00  0.00    +0.000 C 
ENDBRANCH   1  20
TORSDOF 2
ENDMDL
