MODEL 1
REMARK VINA RESULT:      -8.4      0.000      0.000
REMARK  Name = 
REMARK  9 active torsions:
REMARK  status: ('A' for Active; 'I' for Inactive)
REMARK    1  A    between atoms: C_1  and  C_2
REMARK    2  A    between atoms: C_4  and  C_5
REMARK    3  A    between atoms: C_7  and  C_8
REMARK    4  A    between atoms: N_10  and  C_11
REMARK    5  A    between atoms: C_11  and  C_12
REMARK    6  A    between atoms: C_14  and  C_15
REMARK    7  A    between atoms: C_15  and  C_16
REMARK    8  A    between atoms: C_16  and  C_17
REMARK    9  A    between atoms: C_16  and  C_18
REMARK                            x       y       z     vdW  Elec       q    Type
REMARK                         _______ _______ _______ _____ _____    ______ ____
ROOT
ATOM      1  C   UNL     1       3.869   5.558  17.612  0.00  0.00    +0.000 C 
ATOM      2  O   UNL     1       3.330   4.490  17.345  0.00  0.00    +0.000 OA
ATOM      3  N   UNL     1       5.247   5.667  17.684  0.00  0.00    +0.000 N 
ATOM      4  H   UNL     1       5.615   6.558  18.005  0.00  0.00    +0.000 HD
ENDROOT
BRANCH   1  11
ATOM      5  C   UNL     1       0.050   9.673  21.448  0.00  0.00    +0.000 C 
ATOM      6  C   UNL     1       0.888   8.825  20.519  0.00  0.00    +0.000 A 
ATOM      7  C   UNL     1       1.237   7.452  20.980  0.00  0.00    +0.000 A 
ATOM      8  C   UNL     1       2.000   6.698  20.164  0.00  0.00    +0.000 A 
ATOM      9  C   UNL     1       2.390   5.323  20.602  0.00  0.00    +0.000 C 
ATOM     10  N   UNL     1       2.418   7.252  18.935  0.00  0.00    +0.000 N 
ATOM     11  C   UNL     1       3.192   6.818  17.862  0.00  0.00    +0.000 A 
ATOM     12  N   UNL     1       3.263   7.787  16.962  0.00  0.00    +0.000 NA
ATOM     13  N   UNL     1       2.538   8.852  17.403  0.00  0.00    +0.000 NA
ATOM     14  C   UNL     1       2.031   8.555  18.578  0.00  0.00    +0.000 A 
ATOM     15  N   UNL     1       1.259   9.337  19.387  0.00  0.00    +0.000 NA
ENDBRANCH   1  11
BRANCH   3  16
ATOM     16  C   UNL     1       6.164   4.567  17.462  0.00  0.00    +0.000 C 
BRANCH  16  17
ATOM     17  C   UNL     1       6.539   4.543  16.029  0.00  0.00    +0.000 A 
ATOM     18  C   UNL     1       6.200   3.742  14.964  0.00  0.00    +0.000 A 
ATOM     19  C   UNL     1       6.777   4.381  13.842  0.00  0.00    +0.000 A 
ATOM     20  N   UNL     1       7.524   5.428  14.217  0.00  0.00    +0.000 NA
ATOM     21  O   UNL     1       7.371   5.527  15.591  0.00  0.00    +0.000 OA
BRANCH  19  22
ATOM     22  C   UNL     1       6.563   4.063  12.397  0.00  0.00    +0.000 C 
BRANCH  22  23
ATOM     23  C   UNL     1       5.518   2.942  12.193  0.00  0.00    +0.000 C 
ATOM     24  C   UNL     1       4.255   3.452  11.490  0.00  0.00    +0.000 C 
ATOM     25  C   UNL     1       6.107   1.777  11.399  0.00  0.00    +0.000 C 
ENDBRANCH  22  23
ENDBRANCH  19  22
ENDBRANCH  16  17
ENDBRANCH   3  16
TORSDOF 5
ENDMDL
MODEL 2
REMARK VINA RESULT:      -7.6      2.759      3.755
REMARK  Name = 
REMARK  9 active torsions:
REMARK  status: ('A' for Active; 'I' for Inactive)
REMARK    1  A    between atoms: C_1  and  C_2
REMARK    2  A    between atoms: C_4  and  C_5
REMARK    3  A    between atoms: C_7  and  C_8
REMARK    4  A    between atoms: N_10  and  C_11
REMARK    5  A    between atoms: C_11  and  C_12
REMARK    6  A    between atoms: C_14  and  C_15
REMARK    7  A    between atoms: C_15  and  C_16
REMARK    8  A    between atoms: C_16  and  C_17
REMARK    9  A    between atoms: C_16  and  C_18
REMARK                            x       y       z     vdW  Elec       q    Type
REMARK                         _______ _______ _______ _____ _____    ______ ____
ROOT
ATOM      1  C   UNL     1       4.774   4.653  17.249  0.00  0.00    +0.000 C 
ATOM      2  O   UNL     1       4.253   5.656  16.776  0.00  0.00    +0.000 OA
ATOM      3  N   UNL     1       6.139   4.441  17.152  0.00  0.00    +0.000 N 
ATOM      4  H   UNL     1       6.482   3.542  17.481  0.00  0.00    +0.000 HD
ENDROOT
BRANCH   1  11
ATOM      5  C   UNL     1       0.918   2.368  22.361  0.00  0.00    +0.000 C 
ATOM      6  C   UNL     1       1.795   2.778  21.201  0.00  0.00    +0.000 A 
ATOM      7  C   UNL     1       2.148   4.222  21.092  0.00  0.00    +0.000 A 
ATOM      8  C   UNL     1       2.914   4.597  20.049  0.00  0.00    +0.000 A 
ATOM      9  C   UNL     1       3.271   6.040  19.894  0.00  0.00    +0.000 C 
ATOM     10  N   UNL     1       3.330   3.607  19.132  0.00  0.00    +0.000 N 
ATOM     11  C   UNL     1       4.089   3.592  17.965  0.00  0.00    +0.000 A 
ATOM     12  N   UNL     1       4.144   2.351  17.504  0.00  0.00    +0.000 NA
ATOM     13  N   UNL     1       3.453   1.536  18.347  0.00  0.00    +0.000 NA
ATOM     14  C   UNL     1       2.957   2.266  19.320  0.00  0.00    +0.000 A 
ATOM     15  N   UNL     1       2.182   1.862  20.369  0.00  0.00    +0.000 NA
ENDBRANCH   1  11
BRANCH   3  16
ATOM     16  C   UNL     1       7.061   5.350  16.502  0.00  0.00    +0.000 C 
BRANCH  16  17
ATOM     17  C   UNL     1       7.165   4.979  15.071  0.00  0.00    +0.000 A 
ATOM     18  C   UNL     1       6.503   4.085  14.264  0.00  0.00    +0.000 A 
ATOM     19  C   UNL     1       6.977   4.366  12.961  0.00  0.00    +0.000 A 
ATOM     20  N   UNL     1       7.955   5.281  12.992  0.00  0.00    +0.000 NA
ATOM     21  O   UNL     1       8.069   5.665  14.319  0.00  0.00    +0.000 OA
BRANCH  19  22
ATOM     22  C   UNL     1       6.456   3.836  11.664  0.00  0.00    +0.000 C 
BRANCH  22  23
ATOM     23  C   UNL     1       5.392   2.733  11.867  0.00  0.00    +0.000 C 
ATOM     24  C   UNL     1       4.061   3.084  11.193  0.00  0.00    +0.000 C 
ATOM     25  C   UNL     1       5.889   1.386  11.342  0.00  0.00    +0.000 C 
ENDBRANCH  22  23
ENDBRANCH  19  22
ENDBRANCH  16  17
ENDBRANCH   3  16
TORSDOF 5
ENDMDL
MODEL 3
REMARK VINA RESULT:      -7.4      1.403      2.239
REMARK  Name = 
REMARK  9 active torsions:
REMARK  status: ('A' for Active; 'I' for Inactive)
REMARK    1  A    between atoms: C_1  and  C_2
REMARK    2  A    between atoms: C_4  and  C_5
REMARK    3  A    between atoms: C_7  and  C_8
REMARK    4  A    between atoms: N_10  and  C_11
REMARK    5  A    between atoms: C_11  and  C_12
REMARK    6  A    between atoms: C_14  and  C_15
REMARK    7  A    between atoms: C_15  and  C_16
REMARK    8  A    between atoms: C_16  and  C_17
REMARK    9  A    between atoms: C_16  and  C_18
REMARK                            x       y       z     vdW  Elec       q    Type
REMARK                         _______ _______ _______ _____ _____    ______ ____
ROOT
ATOM      1  C   UNL     1       4.403   4.372  18.742  0.00  0.00    +0.000 C 
ATOM      2  O   UNL     1       4.175   3.216  18.405  0.00  0.00    +0.000 OA
ATOM      3  N   UNL     1       5.658   4.932  18.578  0.00  0.00    +0.000 N 
ATOM      4  H   UNL     1       5.796   5.860  18.969  0.00  0.00    +0.000 HD
ENDROOT
BRANCH   1  11
ATOM      5  C   UNL     1       0.952  10.230  18.721  0.00  0.00    +0.000 C 
ATOM      6  C   UNL     1       1.686   8.913  18.822  0.00  0.00    +0.000 A 
ATOM      7  C   UNL     1       2.653   8.589  17.735  0.00  0.00    +0.000 A 
ATOM      8  C   UNL     1       3.296   7.407  17.809  0.00  0.00    +0.000 A 
ATOM      9  C   UNL     1       4.258   7.037  16.726  0.00  0.00    +0.000 C 
ATOM     10  N   UNL     1       3.015   6.557  18.900  0.00  0.00    +0.000 N 
ATOM     11  C   UNL     1       3.444   5.300  19.315  0.00  0.00    +0.000 A 
ATOM     12  N   UNL     1       2.818   4.979  20.438  0.00  0.00    +0.000 NA
ATOM     13  N   UNL     1       1.993   6.004  20.791  0.00  0.00    +0.000 NA
ATOM     14  C   UNL     1       2.093   6.950  19.885  0.00  0.00    +0.000 A 
ATOM     15  N   UNL     1       1.430   8.142  19.833  0.00  0.00    +0.000 NA
ENDBRANCH   1  11
BRANCH   3  16
ATOM     16  C   UNL     1       6.795   4.233  18.014  0.00  0.00    +0.000 C 
BRANCH  16  17
ATOM     17  C   UNL     1       6.775   4.402  16.542  0.00  0.00    +0.000 A 
ATOM     18  C   UNL     1       5.983   3.910  15.532  0.00  0.00    +0.000 A 
ATOM     19  C   UNL     1       6.401   4.613  14.379  0.00  0.00    +0.000 A 
ATOM     20  N   UNL     1       7.462   5.386  14.645  0.00  0.00    +0.000 NA
ATOM     21  O   UNL     1       7.694   5.252  16.005  0.00  0.00    +0.000 OA
BRANCH  19  22
ATOM     22  C   UNL     1       5.753   4.629  13.031  0.00  0.00    +0.000 C 
BRANCH  22  23
ATOM     23  C   UNL     1       5.619   3.211  12.429  0.00  0.00    +0.000 C 
ATOM     24  C   UNL     1       4.420   3.098  11.481  0.00  0.00    +0.000 C 
ATOM     25  C   UNL     1       6.894   2.805  11.689  0.00  0.00    +0.000 C 
ENDBRANCH  22  23
ENDBRANCH  19  22
ENDBRANCH  16  17
ENDBRANCH   3  16
TORSDOF 5
ENDMDL
MODEL 4
REMARK VINA RESULT:      -7.2      2.518      3.862
REMARK  Name = 
REMARK  9 active torsions:
REMARK  status: ('A' for Active; 'I' for Inactive)
REMARK    1  A    between atoms: C_1  and  C_2
REMARK    2  A    between atoms: C_4  and  C_5
REMARK    3  A    between atoms: C_7  and  C_8
REMARK    4  A    between atoms: N_10  and  C_11
REMARK    5  A    between atoms: C_11  and  C_12
REMARK    6  A    between atoms: C_14  and  C_15
REMARK    7  A    between atoms: C_15  and  C_16
REMARK    8  A    between atoms: C_16  and  C_17
REMARK    9  A    between atoms: C_16  and  C_18
REMARK                            x       y       z     vdW  Elec       q    Type
REMARK                         _______ _______ _______ _____ _____    ______ ____
ROOT
ATOM      1  C   UNL     1       5.423   5.079  18.401  0.00  0.00    +0.000 C 
ATOM      2  O   UNL     1       6.328   5.854  18.687  0.00  0.00    +0.000 OA
ATOM      3  N   UNL     1       4.786   5.142  17.174  0.00  0.00    +0.000 N 
ATOM      4  H   UNL     1       3.983   4.532  17.048  0.00  0.00    +0.000 HD
ENDROOT
BRANCH   1  11
ATOM      5  C   UNL     1       0.733   2.416  22.541  0.00  0.00    +0.000 C 
ATOM      6  C   UNL     1       1.837   2.931  21.648  0.00  0.00    +0.000 A 
ATOM      7  C   UNL     1       1.660   4.289  21.060  0.00  0.00    +0.000 A 
ATOM      8  C   UNL     1       2.633   4.745  20.247  0.00  0.00    +0.000 A 
ATOM      9  C   UNL     1       2.480   6.095  19.622  0.00  0.00    +0.000 C 
ATOM     10  N   UNL     1       3.748   3.915  20.004  0.00  0.00    +0.000 N 
ATOM     11  C   UNL     1       4.912   4.014  19.246  0.00  0.00    +0.000 A 
ATOM     12  N   UNL     1       5.613   2.899  19.386  0.00  0.00    +0.000 NA
ATOM     13  N   UNL     1       4.950   2.065  20.235  0.00  0.00    +0.000 NA
ATOM     14  C   UNL     1       3.835   2.651  20.609  0.00  0.00    +0.000 A 
ATOM     15  N   UNL     1       2.864   2.167  21.437  0.00  0.00    +0.000 NA
ENDBRANCH   1  11
BRANCH   3  16
ATOM     16  C   UNL     1       5.111   6.099  16.136  0.00  0.00    +0.000 C 
BRANCH  16  17
ATOM     17  C   UNL     1       5.868   5.405  15.068  0.00  0.00    +0.000 A 
ATOM     18  C   UNL     1       5.542   4.463  14.121  0.00  0.00    +0.000 A 
ATOM     19  C   UNL     1       6.694   4.368  13.305  0.00  0.00    +0.000 A 
ATOM     20  N   UNL     1       7.696   5.107  13.800  0.00  0.00    +0.000 NA
ATOM     21  O   UNL     1       7.173   5.758  14.907  0.00  0.00    +0.000 OA
BRANCH  19  22
ATOM     22  C   UNL     1       6.836   3.647  12.004  0.00  0.00    +0.000 C 
BRANCH  22  23
ATOM     23  C   UNL     1       5.807   2.503  11.853  0.00  0.00    +0.000 C 
ATOM     24  C   UNL     1       4.512   2.977  11.183  0.00  0.00    +0.000 C 
ATOM     25  C   UNL     1       6.393   1.336  11.059  0.00  0.00    +0.000 C 
ENDBRANCH  22  23
ENDBRANCH  19  22
ENDBRANCH  16  17
ENDBRANCH   3  16
TORSDOF 5
ENDMDL
MODEL 5
REMARK VINA RESULT:      -7.1      1.473      2.420
REMARK  Name = 
REMARK  9 active torsions:
REMARK  status: ('A' for Active; 'I' for Inactive)
REMARK    1  A    between atoms: C_1  and  C_2
REMARK    2  A    between atoms: C_4  and  C_5
REMARK    3  A    between atoms: C_7  and  C_8
REMARK    4  A    between atoms: N_10  and  C_11
REMARK    5  A    between atoms: C_11  and  C_12
REMARK    6  A    between atoms: C_14  and  C_15
REMARK    7  A    between atoms: C_15  and  C_16
REMARK    8  A    between atoms: C_16  and  C_17
REMARK    9  A    between atoms: C_16  and  C_18
REMARK                            x       y       z     vdW  Elec       q    Type
REMARK                         _______ _______ _______ _____ _____    ______ ____
ROOT
ATOM      1  C   UNL     1       3.302   5.089  19.158  0.00  0.00    +0.000 C 
ATOM      2  O   UNL     1       2.874   4.042  18.685  0.00  0.00    +0.000 OA
ATOM      3  N   UNL     1       4.661   5.348  19.213  0.00  0.00    +0.000 N 
ATOM      4  H   UNL     1       4.942   6.191  19.706  0.00  0.00    +0.000 HD
ENDROOT
BRANCH   1  11
ATOM      5  C   UNL     1       0.720  11.370  18.828  0.00  0.00    +0.000 C 
ATOM      6  C   UNL     1       1.261   9.969  18.999  0.00  0.00    +0.000 A 
ATOM      7  C   UNL     1       2.144   9.445  17.918  0.00  0.00    +0.000 A 
ATOM      8  C   UNL     1       2.614   8.190  18.055  0.00  0.00    +0.000 A 
ATOM      9  C   UNL     1       3.485   7.621  16.981  0.00  0.00    +0.000 C 
ATOM     10  N   UNL     1       2.243   7.456  19.202  0.00  0.00    +0.000 N 
ATOM     11  C   UNL     1       2.500   6.177  19.688  0.00  0.00    +0.000 A 
ATOM     12  N   UNL     1       1.864   6.017  20.840  0.00  0.00    +0.000 NA
ATOM     13  N   UNL     1       1.202   7.169  21.141  0.00  0.00    +0.000 NA
ATOM     14  C   UNL     1       1.413   8.035  20.176  0.00  0.00    +0.000 A 
ATOM     15  N   UNL     1       0.925   9.305  20.060  0.00  0.00    +0.000 NA
ENDBRANCH   1  11
BRANCH   3  16
ATOM     16  C   UNL     1       5.684   4.438  18.737  0.00  0.00    +0.000 C 
BRANCH  16  17
ATOM     17  C   UNL     1       5.806   4.587  17.268  0.00  0.00    +0.000 A 
ATOM     18  C   UNL     1       5.399   3.834  16.192  0.00  0.00    +0.000 A 
ATOM     19  C   UNL     1       5.683   4.641  15.067  0.00  0.00    +0.000 A 
ATOM     20  N   UNL     1       6.336   5.755  15.426  0.00  0.00    +0.000 NA
ATOM     21  O   UNL     1       6.410   5.718  16.809  0.00  0.00    +0.000 OA
BRANCH  19  22
ATOM     22  C   UNL     1       5.267   4.413  13.649  0.00  0.00    +0.000 C 
BRANCH  22  23
ATOM     23  C   UNL     1       6.302   3.576  12.863  0.00  0.00    +0.000 C 
ATOM     24  C   UNL     1       5.636   2.622  11.866  0.00  0.00    +0.000 C 
ATOM     25  C   UNL     1       7.290   4.477  12.122  0.00  0.00    +0.000 C 
ENDBRANCH  22  23
ENDBRANCH  19  22
ENDBRANCH  16  17
ENDBRANCH   3  16
TORSDOF 5
ENDMDL
MODEL 6
REMARK VINA RESULT:      -7.1      2.396      8.284
REMARK  Name = 
REMARK  9 active torsions:
REMARK  status: ('A' for Active; 'I' for Inactive)
REMARK    1  A    between atoms: C_1  and  C_2
REMARK    2  A    between atoms: C_4  and  C_5
REMARK    3  A    between atoms: C_7  and  C_8
REMARK    4  A    between atoms: N_10  and  C_11
REMARK    5  A    between atoms: C_11  and  C_12
REMARK    6  A    between atoms: C_14  and  C_15
REMARK    7  A    between atoms: C_15  and  C_16
REMARK    8  A    between atoms: C_16  and  C_17
REMARK    9  A    between atoms: C_16  and  C_18
REMARK                            x       y       z     vdW  Elec       q    Type
REMARK                         _______ _______ _______ _____ _____    ______ ____
ROOT
ATOM      1  C   UNL     1       4.345   4.299  19.667  0.00  0.00    +0.000 C 
ATOM      2  O   UNL     1       4.016   3.240  20.187  0.00  0.00    +0.000 OA
ATOM      3  N   UNL     1       3.596   5.450  19.848  0.00  0.00    +0.000 N 
ATOM      4  H   UNL     1       3.877   6.263  19.308  0.00  0.00    +0.000 HD
ENDROOT
BRANCH   1  11
ATOM      5  C   UNL     1       7.450   4.730  13.634  0.00  0.00    +0.000 C 
ATOM      6  C   UNL     1       6.853   4.636  15.019  0.00  0.00    +0.000 A 
ATOM      7  C   UNL     1       5.397   4.333  15.112  0.00  0.00    +0.000 A 
ATOM      8  C   UNL     1       4.854   4.267  16.344  0.00  0.00    +0.000 A 
ATOM      9  C   UNL     1       3.391   3.987  16.477  0.00  0.00    +0.000 C 
ATOM     10  N   UNL     1       5.691   4.488  17.458  0.00  0.00    +0.000 N 
ATOM     11  C   UNL     1       5.518   4.517  18.839  0.00  0.00    +0.000 A 
ATOM     12  N   UNL     1       6.680   4.793  19.414  0.00  0.00    +0.000 NA
ATOM     13  N   UNL     1       7.628   4.932  18.446  0.00  0.00    +0.000 NA
ATOM     14  C   UNL     1       7.057   4.759  17.275  0.00  0.00    +0.000 A 
ATOM     15  N   UNL     1       7.630   4.830  16.038  0.00  0.00    +0.000 NA
ENDBRANCH   1  11
BRANCH   3  16
ATOM     16  C   UNL     1       2.386   5.517  20.642  0.00  0.00    +0.000 C 
BRANCH  16  17
ATOM     17  C   UNL     1       1.803   6.874  20.506  0.00  0.00    +0.000 A 
ATOM     18  C   UNL     1       1.036   7.671  21.322  0.00  0.00    +0.000 A 
ATOM     19  C   UNL     1       0.981   8.914  20.650  0.00  0.00    +0.000 A 
ATOM     20  N   UNL     1       1.566   8.838  19.448  0.00  0.00    +0.000 NA
ATOM     21  O   UNL     1       2.083   7.554  19.361  0.00  0.00    +0.000 OA
BRANCH  19  22
ATOM     22  C   UNL     1       0.450  10.212  21.170  0.00  0.00    +0.000 C 
BRANCH  22  23
ATOM     23  C   UNL     1       0.266  11.260  20.048  0.00  0.00    +0.000 C 
ATOM     24  C   UNL     1      -1.211  11.573  19.787  0.00  0.00    +0.000 C 
ATOM     25  C   UNL     1       1.011  12.554  20.377  0.00  0.00    +0.000 C 
ENDBRANCH  22  23
ENDBRANCH  19  22
ENDBRANCH  16  17
ENDBRANCH   3  16
TORSDOF 5
ENDMDL
MODEL 7
REMARK VINA RESULT:      -7.0      4.559      7.125
REMARK  Name = 
REMARK  9 active torsions:
REMARK  status: ('A' for Active; 'I' for Inactive)
REMARK    1  A    between atoms: C_1  and  C_2
REMARK    2  A    between atoms: C_4  and  C_5
REMARK    3  A    between atoms: C_7  and  C_8
REMARK    4  A    between atoms: N_10  and  C_11
REMARK    5  A    between atoms: C_11  and  C_12
REMARK    6  A    between atoms: C_14  and  C_15
REMARK    7  A    between atoms: C_15  and  C_16
REMARK    8  A    between atoms: C_16  and  C_17
REMARK    9  A    between atoms: C_16  and  C_18
REMARK                            x       y       z     vdW  Elec       q    Type
REMARK                         _______ _______ _______ _____ _____    ______ ____
ROOT
ATOM      1  C   UNL     1       0.867  10.910  20.034  0.00  0.00    +0.000 C 
ATOM      2  O   UNL     1       1.617  11.774  19.596  0.00  0.00    +0.000 OA
ATOM      3  N   UNL     1       0.773   9.668  19.430  0.00  0.00    +0.000 N 
ATOM      4  H   UNL     1       0.059   9.041  19.792  0.00  0.00    +0.000 HD
ENDROOT
BRANCH   1  11
ATOM      5  C   UNL     1      -4.765  13.061  23.178  0.00  0.00    +0.000 C 
ATOM      6  C   UNL     1      -3.476  12.558  22.572  0.00  0.00    +0.000 A 
ATOM      7  C   UNL     1      -3.243  12.850  21.129  0.00  0.00    +0.000 A 
ATOM      8  C   UNL     1      -2.104  12.387  20.577  0.00  0.00    +0.000 A 
ATOM      9  C   UNL     1      -1.846  12.643  19.127  0.00  0.00    +0.000 C 
ATOM     10  N   UNL     1      -1.211  11.660  21.393  0.00  0.00    +0.000 N 
ATOM     11  C   UNL     1       0.017  11.031  21.205  0.00  0.00    +0.000 A 
ATOM     12  N   UNL     1       0.398  10.480  22.348  0.00  0.00    +0.000 NA
ATOM     13  N   UNL     1      -0.541  10.743  23.299  0.00  0.00    +0.000 NA
ATOM     14  C   UNL     1      -1.509  11.440  22.748  0.00  0.00    +0.000 A 
ATOM     15  N   UNL     1      -2.655  11.900  23.330  0.00  0.00    +0.000 NA
ENDBRANCH   1  11
BRANCH   3  16
ATOM     16  C   UNL     1       1.523   9.275  18.255  0.00  0.00    +0.000 C 
BRANCH  16  17
ATOM     17  C   UNL     1       2.245   8.015  18.551  0.00  0.00    +0.000 A 
ATOM     18  C   UNL     1       2.210   7.113  19.588  0.00  0.00    +0.000 A 
ATOM     19  C   UNL     1       3.026   6.042  19.154  0.00  0.00    +0.000 A 
ATOM     20  N   UNL     1       3.618   6.332  17.988  0.00  0.00    +0.000 NA
ATOM     21  O   UNL     1       3.124   7.571  17.611  0.00  0.00    +0.000 OA
BRANCH  19  22
ATOM     22  C   UNL     1       3.190   4.700  19.791  0.00  0.00    +0.000 C 
BRANCH  22  23
ATOM     23  C   UNL     1       1.897   4.223  20.492  0.00  0.00    +0.000 C 
ATOM     24  C   UNL     1       1.007   3.394  19.559  0.00  0.00    +0.000 C 
ATOM     25  C   UNL     1       2.218   3.409  21.746  0.00  0.00    +0.000 C 
ENDBRANCH  22  23
ENDBRANCH  19  22
ENDBRANCH  16  17
ENDBRANCH   3  16
TORSDOF 5
ENDMDL
MODEL 8
REMARK VINA RESULT:      -7.0      1.964      8.515
REMARK  Name = 
REMARK  9 active torsions:
REMARK  status: ('A' for Active; 'I' for Inactive)
REMARK    1  A    between atoms: C_1  and  C_2
REMARK    2  A    between atoms: C_4  and  C_5
REMARK    3  A    between atoms: C_7  and  C_8
REMARK    4  A    between atoms: N_10  and  C_11
REMARK    5  A    between atoms: C_11  and  C_12
REMARK    6  A    between atoms: C_14  and  C_15
REMARK    7  A    between atoms: C_15  and  C_16
REMARK    8  A    between atoms: C_16  and  C_17
REMARK    9  A    between atoms: C_16  and  C_18
REMARK                            x       y       z     vdW  Elec       q    Type
REMARK                         _______ _______ _______ _____ _____    ______ ____
ROOT
ATOM      1  C   UNL     1       5.082   5.529  18.941  0.00  0.00    +0.000 C 
ATOM      2  O   UNL     1       5.411   4.975  19.984  0.00  0.00    +0.000 OA
ATOM      3  N   UNL     1       3.801   6.023  18.765  0.00  0.00    +0.000 N 
ATOM      4  H   UNL     1       3.576   6.381  17.840  0.00  0.00    +0.000 HD
ENDROOT
BRANCH   1  11
ATOM      5  C   UNL     1       7.107   4.223  12.584  0.00  0.00    +0.000 C 
ATOM      6  C   UNL     1       6.741   4.571  14.008  0.00  0.00    +0.000 A 
ATOM      7  C   UNL     1       5.619   3.811  14.627  0.00  0.00    +0.000 A 
ATOM      8  C   UNL     1       5.275   4.131  15.890  0.00  0.00    +0.000 A 
ATOM      9  C   UNL     1       4.139   3.405  16.537  0.00  0.00    +0.000 C 
ATOM     10  N   UNL     1       5.992   5.157  16.541  0.00  0.00    +0.000 N 
ATOM     11  C   UNL     1       5.939   5.765  17.793  0.00  0.00    +0.000 A 
ATOM     12  N   UNL     1       6.870   6.705  17.855  0.00  0.00    +0.000 NA
ATOM     13  N   UNL     1       7.555   6.726  16.678  0.00  0.00    +0.000 NA
ATOM     14  C   UNL     1       7.044   5.814  15.882  0.00  0.00    +0.000 A 
ATOM     15  N   UNL     1       7.412   5.508  14.603  0.00  0.00    +0.000 NA
ENDBRANCH   1  11
BRANCH   3  16
ATOM     16  C   UNL     1       2.751   5.937  19.759  0.00  0.00    +0.000 C 
BRANCH  16  17
ATOM     17  C   UNL     1       2.084   7.256  19.862  0.00  0.00    +0.000 A 
ATOM     18  C   UNL     1       1.498   7.954  20.892  0.00  0.00    +0.000 A 
ATOM     19  C   UNL     1       1.216   9.226  20.341  0.00  0.00    +0.000 A 
ATOM     20  N   UNL     1       1.495   9.256  19.031  0.00  0.00    +0.000 NA
ATOM     21  O   UNL     1       2.041   8.016  18.734  0.00  0.00    +0.000 OA
BRANCH  19  22
ATOM     22  C   UNL     1       0.761  10.454  21.062  0.00  0.00    +0.000 C 
BRANCH  22  23
ATOM     23  C   UNL     1      -0.456  10.180  21.975  0.00  0.00    +0.000 C 
ATOM     24  C   UNL     1      -0.042   9.570  23.319  0.00  0.00    +0.000 C 
ATOM     25  C   UNL     1      -1.259  11.457  22.221  0.00  0.00    +0.000 C 
ENDBRANCH  22  23
ENDBRANCH  19  22
ENDBRANCH  16  17
ENDBRANCH   3  16
TORSDOF 5
ENDMDL
MODEL 9
REMARK VINA RESULT:      -6.9      1.969      8.262
REMARK  Name = 
REMARK  9 active torsions:
REMARK  status: ('A' for Active; 'I' for Inactive)
REMARK    1  A    between atoms: C_1  and  C_2
REMARK    2  A    between atoms: C_4  and  C_5
REMARK    3  A    between atoms: C_7  and  C_8
REMARK    4  A    between atoms: N_10  and  C_11
REMARK    5  A    between atoms: C_11  and  C_12
REMARK    6  A    between atoms: C_14  and  C_15
REMARK    7  A    between atoms: C_15  and  C_16
REMARK    8  A    between atoms: C_16  and  C_17
REMARK    9  A    between atoms: C_16  and  C_18
REMARK                            x       y       z     vdW  Elec       q    Type
REMARK                         _______ _______ _______ _____ _____    ______ ____
ROOT
ATOM      1  C   UNL     1       5.293   5.373  18.971  0.00  0.00    +0.000 C 
ATOM      2  O   UNL     1       5.662   4.772  19.973  0.00  0.00    +0.000 OA
ATOM      3  N   UNL     1       4.018   5.905  18.883  0.00  0.00    +0.000 N 
ATOM      4  H   UNL     1       3.754   6.303  17.986  0.00  0.00    +0.000 HD
ENDROOT
BRANCH   1  11
ATOM      5  C   UNL     1       6.995   4.191  12.495  0.00  0.00    +0.000 C 
ATOM      6  C   UNL     1       6.701   4.511  13.943  0.00  0.00    +0.000 A 
ATOM      7  C   UNL     1       5.608   3.741  14.601  0.00  0.00    +0.000 A 
ATOM      8  C   UNL     1       5.328   4.036  15.886  0.00  0.00    +0.000 A 
ATOM      9  C   UNL     1       4.224   3.301  16.574  0.00  0.00    +0.000 C 
ATOM     10  N   UNL     1       6.081   5.047  16.521  0.00  0.00    +0.000 N 
ATOM     11  C   UNL     1       6.092   5.630  17.786  0.00  0.00    +0.000 A 
ATOM     12  N   UNL     1       7.029   6.566  17.821  0.00  0.00    +0.000 NA
ATOM     13  N   UNL     1       7.655   6.608  16.612  0.00  0.00    +0.000 NA
ATOM     14  C   UNL     1       7.101   5.714  15.824  0.00  0.00    +0.000 A 
ATOM     15  N   UNL     1       7.404   5.433  14.523  0.00  0.00    +0.000 NA
ENDBRANCH   1  11
BRANCH   3  16
ATOM     16  C   UNL     1       3.021   5.808  19.930  0.00  0.00    +0.000 C 
BRANCH  16  17
ATOM     17  C   UNL     1       2.222   7.057  19.943  0.00  0.00    +0.000 A 
ATOM     18  C   UNL     1       1.482   7.709  20.900  0.00  0.00    +0.000 A 
ATOM     19  C   UNL     1       1.128   8.938  20.297  0.00  0.00    +0.000 A 
ATOM     20  N   UNL     1       1.518   8.975  19.016  0.00  0.00    +0.000 NA
ATOM     21  O   UNL     1       2.207   7.792  18.797  0.00  0.00    +0.000 OA
BRANCH  19  22
ATOM     22  C   UNL     1       0.493  10.126  20.946  0.00  0.00    +0.000 C 
BRANCH  22  23
ATOM     23  C   UNL     1       0.188  11.253  19.933  0.00  0.00    +0.000 C 
ATOM     24  C   UNL     1      -1.312  11.557  19.842  0.00  0.00    +0.000 C 
ATOM     25  C   UNL     1       0.946  12.532  20.287  0.00  0.00    +0.000 C 
ENDBRANCH  22  23
ENDBRANCH  19  22
ENDBRANCH  16  17
ENDBRANCH   3  16
TORSDOF 5
ENDMDL
