MODEL 1
REMARK VINA RESULT:      -8.4      0.000      0.000
REMARK  Name = 
REMARK  7 active torsions:
REMARK  status: ('A' for Active; 'I' for Inactive)
REMARK    1  A    between atoms: C_2  and  C_3
REMARK    2  A    between atoms: C_6  and  C_7
REMARK    3  A    between atoms: C_7  and  N_8
REMARK    4  A    between atoms: C_14  and  O_15
REMARK    5  A    between atoms: O_15  and  C_16
REMARK    6  A    between atoms: C_20  and  O_21
REMARK    7  A    between atoms: O_21  and  C_22
REMARK                            x       y       z     vdW  Elec       q    Type
REMARK                         _______ _______ _______ _____ _____    ______ ____
ROOT
ATOM      1  C   UNL     1       2.058   6.233  20.054  0.00  0.00    +0.000 A 
ATOM      2  C   UNL     1       1.402   7.284  20.714  0.00  0.00    +0.000 A 
ATOM      3  C   UNL     1       1.289   8.543  20.124  0.00  0.00    +0.000 A 
ATOM      4  C   UNL     1       1.830   8.781  18.857  0.00  0.00    +0.000 A 
ATOM      5  C   UNL     1       2.425   7.711  18.167  0.00  0.00    +0.000 A 
ATOM      6  C   UNL     1       2.524   6.432  18.746  0.00  0.00    +0.000 A 
ENDROOT
BRANCH   1   8
ATOM      7  N   UNL     1       2.388   4.077  21.463  0.00  0.00    +0.000 NA
ATOM      8  C   UNL     1       2.240   5.018  20.801  0.00  0.00    +0.000 C 
ENDBRANCH   1   8
BRANCH   4   9
ATOM      9  C   UNL     1       1.789  10.170  18.267  0.00  0.00    +0.000 C 
BRANCH   9  10
ATOM     10  N   UNL     1       0.556  10.862  18.592  0.00  0.00    +0.000 N 
ATOM     11  C   UNL     1      -0.707  10.498  18.212  0.00  0.00    +0.000 A 
ATOM     12  C   UNL     1      -1.533  11.426  18.801  0.00  0.00    +0.000 A 
ATOM     13  N   UNL     1      -0.809  12.318  19.550  0.00  0.00    +0.000 NA
ATOM     14  C   UNL     1       0.444  11.947  19.414  0.00  0.00    +0.000 A 
ENDBRANCH   9  10
ENDBRANCH   4   9
BRANCH   6  15
ATOM     15  O   UNL     1       3.203   5.524  17.960  0.00  0.00    +0.000 OA
BRANCH  15  16
ATOM     16  C   UNL     1       4.573   5.563  17.836  0.00  0.00    +0.000 A 
ATOM     17  C   UNL     1       5.288   5.392  19.025  0.00  0.00    +0.000 A 
ATOM     18  C   UNL     1       6.682   5.337  19.005  0.00  0.00    +0.000 A 
ATOM     19  C   UNL     1       7.364   5.462  17.796  0.00  0.00    +0.000 A 
ATOM     20  C   UNL     1       6.659   5.707  16.618  0.00  0.00    +0.000 A 
ATOM     21  C   UNL     1       5.261   5.776  16.642  0.00  0.00    +0.000 A 
BRANCH  20  22
ATOM     22  O   UNL     1       7.416   5.785  15.468  0.00  0.00    +0.000 OA
BRANCH  22  23
ATOM     23  C   UNL     1       7.052   5.035  14.371  0.00  0.00    +0.000 A 
ATOM     24  C   UNL     1       6.000   4.118  14.393  0.00  0.00    +0.000 A 
ATOM     25  C   UNL     1       5.699   3.380  13.253  0.00  0.00    +0.000 A 
ATOM     26  C   UNL     1       6.408   3.599  12.071  0.00  0.00    +0.000 A 
ATOM     27  C   UNL     1       7.421   4.558  12.033  0.00  0.00    +0.000 A 
ATOM     28  C   UNL     1       7.749   5.273  13.185  0.00  0.00    +0.000 A 
ENDBRANCH  22  23
ENDBRANCH  20  22
ENDBRANCH  15  16
ENDBRANCH   6  15
TORSDOF 7
ENDMDL
MODEL 2
REMARK VINA RESULT:      -8.2      0.354      1.167
REMARK  Name = 
REMARK  7 active torsions:
REMARK  status: ('A' for Active; 'I' for Inactive)
REMARK    1  A    between atoms: C_2  and  C_3
REMARK    2  A    between atoms: C_6  and  C_7
REMARK    3  A    between atoms: C_7  and  N_8
REMARK    4  A    between atoms: C_14  and  O_15
REMARK    5  A    between atoms: O_15  and  C_16
REMARK    6  A    between atoms: C_20  and  O_21
REMARK    7  A    between atoms: O_21  and  C_22
REMARK                            x       y       z     vdW  Elec       q    Type
REMARK                         _______ _______ _______ _____ _____    ______ ____
ROOT
ATOM      1  C   UNL     1       2.091   6.128  20.075  0.00  0.00    +0.000 A 
ATOM      2  C   UNL     1       1.422   7.199  20.688  0.00  0.00    +0.000 A 
ATOM      3  C   UNL     1       1.323   8.439  20.059  0.00  0.00    +0.000 A 
ATOM      4  C   UNL     1       1.892   8.639  18.798  0.00  0.00    +0.000 A 
ATOM      5  C   UNL     1       2.500   7.549  18.153  0.00  0.00    +0.000 A 
ATOM      6  C   UNL     1       2.585   6.287  18.772  0.00  0.00    +0.000 A 
ENDROOT
BRANCH   1   8
ATOM      7  N   UNL     1       2.349   3.939  21.448  0.00  0.00    +0.000 NA
ATOM      8  C   UNL     1       2.255   4.936  20.861  0.00  0.00    +0.000 C 
ENDBRANCH   1   8
BRANCH   4   9
ATOM      9  C   UNL     1       1.865  10.010  18.166  0.00  0.00    +0.000 C 
BRANCH   9  10
ATOM     10  N   UNL     1       0.818  10.845  18.724  0.00  0.00    +0.000 N 
ATOM     11  C   UNL     1       0.988  11.914  19.559  0.00  0.00    +0.000 A 
ATOM     12  C   UNL     1      -0.280  12.403  19.767  0.00  0.00    +0.000 A 
ATOM     13  N   UNL     1      -1.204  11.680  19.057  0.00  0.00    +0.000 NA
ATOM     14  C   UNL     1      -0.513  10.756  18.430  0.00  0.00    +0.000 A 
ENDBRANCH   9  10
ENDBRANCH   4   9
BRANCH   6  15
ATOM     15  O   UNL     1       3.281   5.356  18.028  0.00  0.00    +0.000 OA
BRANCH  15  16
ATOM     16  C   UNL     1       4.646   5.428  17.880  0.00  0.00    +0.000 A 
ATOM     17  C   UNL     1       5.389   5.214  19.044  0.00  0.00    +0.000 A 
ATOM     18  C   UNL     1       6.783   5.187  18.995  0.00  0.00    +0.000 A 
ATOM     19  C   UNL     1       7.438   5.386  17.781  0.00  0.00    +0.000 A 
ATOM     20  C   UNL     1       6.704   5.674  16.629  0.00  0.00    +0.000 A 
ATOM     21  C   UNL     1       5.306   5.713  16.684  0.00  0.00    +0.000 A 
BRANCH  20  22
ATOM     22  O   UNL     1       7.436   5.824  15.470  0.00  0.00    +0.000 OA
BRANCH  22  23
ATOM     23  C   UNL     1       7.099   5.079  14.362  0.00  0.00    +0.000 A 
ATOM     24  C   UNL     1       7.727   5.231  13.124  0.00  0.00    +0.000 A 
ATOM     25  C   UNL     1       7.322   4.457  12.041  0.00  0.00    +0.000 A 
ATOM     26  C   UNL     1       6.331   3.488  12.206  0.00  0.00    +0.000 A 
ATOM     27  C   UNL     1       5.745   3.295  13.458  0.00  0.00    +0.000 A 
ATOM     28  C   UNL     1       6.123   4.095  14.536  0.00  0.00    +0.000 A 
ENDBRANCH  22  23
ENDBRANCH  20  22
ENDBRANCH  15  16
ENDBRANCH   6  15
TORSDOF 7
ENDMDL
MODEL 3
REMARK VINA RESULT:      -8.2      3.308      8.196
REMARK  Name = 
REMARK  7 active torsions:
REMARK  status: ('A' for Active; 'I' for Inactive)
REMARK    1  A    between atoms: C_2  and  C_3
REMARK    2  A    between atoms: C_6  and  C_7
REMARK    3  A    between atoms: C_7  and  N_8
REMARK    4  A    between atoms: C_14  and  O_15
REMARK    5  A    between atoms: O_15  and  C_16
REMARK    6  A    between atoms: C_20  and  O_21
REMARK    7  A    between atoms: O_21  and  C_22
REMARK                            x       y       z     vdW  Elec       q    Type
REMARK                         _______ _______ _______ _____ _____    ______ ____
ROOT
ATOM      1  C   UNL     1       4.948   5.404  16.811  0.00  0.00    +0.000 A 
ATOM      2  C   UNL     1       4.839   4.009  16.694  0.00  0.00    +0.000 A 
ATOM      3  C   UNL     1       3.710   3.335  17.160  0.00  0.00    +0.000 A 
ATOM      4  C   UNL     1       2.661   4.042  17.754  0.00  0.00    +0.000 A 
ATOM      5  C   UNL     1       2.737   5.443  17.808  0.00  0.00    +0.000 A 
ATOM      6  C   UNL     1       3.863   6.134  17.320  0.00  0.00    +0.000 A 
ENDROOT
BRANCH   1   8
ATOM      7  N   UNL     1       7.244   6.438  16.179  0.00  0.00    +0.000 NA
ATOM      8  C   UNL     1       6.204   5.987  16.426  0.00  0.00    +0.000 C 
ENDBRANCH   1   8
BRANCH   4   9
ATOM      9  C   UNL     1       1.487   3.296  18.343  0.00  0.00    +0.000 C 
BRANCH   9  10
ATOM     10  N   UNL     1       1.694   2.974  19.742  0.00  0.00    +0.000 N 
ATOM     11  C   UNL     1       2.827   2.446  20.298  0.00  0.00    +0.000 A 
ATOM     12  C   UNL     1       2.558   2.372  21.644  0.00  0.00    +0.000 A 
ATOM     13  N   UNL     1       1.309   2.868  21.919  0.00  0.00    +0.000 NA
ATOM     14  C   UNL     1       0.818   3.234  20.757  0.00  0.00    +0.000 A 
ENDBRANCH   9  10
ENDBRANCH   4   9
BRANCH   6  15
ATOM     15  O   UNL     1       3.802   7.497  17.522  0.00  0.00    +0.000 OA
BRANCH  15  16
ATOM     16  C   UNL     1       2.783   8.072  18.246  0.00  0.00    +0.000 A 
ATOM     17  C   UNL     1       2.498   7.461  19.470  0.00  0.00    +0.000 A 
ATOM     18  C   UNL     1       1.536   8.007  20.322  0.00  0.00    +0.000 A 
ATOM     19  C   UNL     1       0.851   9.160  19.945  0.00  0.00    +0.000 A 
ATOM     20  C   UNL     1       1.079   9.732  18.693  0.00  0.00    +0.000 A 
ATOM     21  C   UNL     1       2.035   9.174  17.835  0.00  0.00    +0.000 A 
BRANCH  20  22
ATOM     22  O   UNL     1       0.378  10.888  18.422  0.00  0.00    +0.000 OA
BRANCH  22  23
ATOM     23  C   UNL     1      -0.987  10.821  18.249  0.00  0.00    +0.000 A 
ATOM     24  C   UNL     1      -1.875  11.702  18.869  0.00  0.00    +0.000 A 
ATOM     25  C   UNL     1      -3.245  11.565  18.665  0.00  0.00    +0.000 A 
ATOM     26  C   UNL     1      -3.726  10.588  17.793  0.00  0.00    +0.000 A 
ATOM     27  C   UNL     1      -2.835   9.746  17.126  0.00  0.00    +0.000 A 
ATOM     28  C   UNL     1      -1.464   9.857  17.359  0.00  0.00    +0.000 A 
ENDBRANCH  22  23
ENDBRANCH  20  22
ENDBRANCH  15  16
ENDBRANCH   6  15
TORSDOF 7
ENDMDL
MODEL 4
REMARK VINA RESULT:      -8.0      3.529      8.176
REMARK  Name = 
REMARK  7 active torsions:
REMARK  status: ('A' for Active; 'I' for Inactive)
REMARK    1  A    between atoms: C_2  and  C_3
REMARK    2  A    between atoms: C_6  and  C_7
REMARK    3  A    between atoms: C_7  and  N_8
REMARK    4  A    between atoms: C_14  and  O_15
REMARK    5  A    between atoms: O_15  and  C_16
REMARK    6  A    between atoms: C_20  and  O_21
REMARK    7  A    between atoms: O_21  and  C_22
REMARK                            x       y       z     vdW  Elec       q    Type
REMARK                         _______ _______ _______ _____ _____    ______ ____
ROOT
ATOM      1  C   UNL     1       5.520   5.999  17.424  0.00  0.00    +0.000 A 
ATOM      2  C   UNL     1       5.997   4.706  17.690  0.00  0.00    +0.000 A 
ATOM      3  C   UNL     1       5.117   3.653  17.943  0.00  0.00    +0.000 A 
ATOM      4  C   UNL     1       3.736   3.870  17.936  0.00  0.00    +0.000 A 
ATOM      5  C   UNL     1       3.256   5.147  17.601  0.00  0.00    +0.000 A 
ATOM      6  C   UNL     1       4.137   6.210  17.322  0.00  0.00    +0.000 A 
ENDROOT
BRANCH   1   8
ATOM      7  N   UNL     1       7.352   7.828  17.218  0.00  0.00    +0.000 NA
ATOM      8  C   UNL     1       6.507   7.039  17.312  0.00  0.00    +0.000 C 
ENDBRANCH   1   8
BRANCH   4   9
ATOM      9  C   UNL     1       2.795   2.749  18.305  0.00  0.00    +0.000 C 
BRANCH   9  10
ATOM     10  N   UNL     1       2.421   2.794  19.706  0.00  0.00    +0.000 N 
ATOM     11  C   UNL     1       1.162   2.974  20.208  0.00  0.00    +0.000 A 
ATOM     12  C   UNL     1       1.310   2.889  21.573  0.00  0.00    +0.000 A 
ATOM     13  N   UNL     1       2.616   2.633  21.905  0.00  0.00    +0.000 NA
ATOM     14  C   UNL     1       3.259   2.569  20.762  0.00  0.00    +0.000 A 
ENDBRANCH   9  10
ENDBRANCH   4   9
BRANCH   6  15
ATOM     15  O   UNL     1       3.495   7.408  17.088  0.00  0.00    +0.000 OA
BRANCH  15  16
ATOM     16  C   UNL     1       2.674   7.981  18.032  0.00  0.00    +0.000 A 
ATOM     17  C   UNL     1       2.525   7.256  19.217  0.00  0.00    +0.000 A 
ATOM     18  C   UNL     1       1.779   7.780  20.273  0.00  0.00    +0.000 A 
ATOM     19  C   UNL     1       1.171   9.027  20.141  0.00  0.00    +0.000 A 
ATOM     20  C   UNL     1       1.254   9.721  18.934  0.00  0.00    +0.000 A 
ATOM     21  C   UNL     1       1.993   9.187  17.871  0.00  0.00    +0.000 A 
BRANCH  20  22
ATOM     22  O   UNL     1       0.648  10.960  18.907  0.00  0.00    +0.000 OA
BRANCH  22  23
ATOM     23  C   UNL     1       1.400  12.082  19.174  0.00  0.00    +0.000 A 
ATOM     24  C   UNL     1       2.252  12.667  18.235  0.00  0.00    +0.000 A 
ATOM     25  C   UNL     1       2.998  13.790  18.579  0.00  0.00    +0.000 A 
ATOM     26  C   UNL     1       2.849  14.368  19.841  0.00  0.00    +0.000 A 
ATOM     27  C   UNL     1       1.954  13.818  20.760  0.00  0.00    +0.000 A 
ATOM     28  C   UNL     1       1.233  12.670  20.430  0.00  0.00    +0.000 A 
ENDBRANCH  22  23
ENDBRANCH  20  22
ENDBRANCH  15  16
ENDBRANCH   6  15
TORSDOF 7
ENDMDL
MODEL 5
REMARK VINA RESULT:      -7.9      1.519      4.840
REMARK  Name = 
REMARK  7 active torsions:
REMARK  status: ('A' for Active; 'I' for Inactive)
REMARK    1  A    between atoms: C_2  and  C_3
REMARK    2  A    between atoms: C_6  and  C_7
REMARK    3  A    between atoms: C_7  and  N_8
REMARK    4  A    between atoms: C_14  and  O_15
REMARK    5  A    between atoms: O_15  and  C_16
REMARK    6  A    between atoms: C_20  and  O_21
REMARK    7  A    between atoms: O_21  and  C_22
REMARK                            x       y       z     vdW  Elec       q    Type
REMARK                         _______ _______ _______ _____ _____    ______ ____
ROOT
ATOM      1  C   UNL     1       2.062   7.903  19.251  0.00  0.00    +0.000 A 
ATOM      2  C   UNL     1       1.349   7.671  20.437  0.00  0.00    +0.000 A 
ATOM      3  C   UNL     1       1.304   6.401  21.012  0.00  0.00    +0.000 A 
ATOM      4  C   UNL     1       1.974   5.330  20.412  0.00  0.00    +0.000 A 
ATOM      5  C   UNL     1       2.746   5.576  19.264  0.00  0.00    +0.000 A 
ATOM      6  C   UNL     1       2.814   6.860  18.690  0.00  0.00    +0.000 A 
ENDROOT
BRANCH   1   8
ATOM      7  N   UNL     1       1.760  10.257  18.196  0.00  0.00    +0.000 NA
ATOM      8  C   UNL     1       1.934   9.211  18.667  0.00  0.00    +0.000 C 
ENDBRANCH   1   8
BRANCH   4   9
ATOM      9  C   UNL     1       1.842   3.940  20.986  0.00  0.00    +0.000 C 
BRANCH   9  10
ATOM     10  N   UNL     1       2.581   2.961  20.213  0.00  0.00    +0.000 N 
ATOM     11  C   UNL     1       2.126   2.270  19.124  0.00  0.00    +0.000 A 
ATOM     12  C   UNL     1       3.197   1.511  18.715  0.00  0.00    +0.000 A 
ATOM     13  N   UNL     1       4.292   1.747  19.505  0.00  0.00    +0.000 NA
ATOM     14  C   UNL     1       3.895   2.633  20.391  0.00  0.00    +0.000 A 
ENDBRANCH   9  10
ENDBRANCH   4   9
BRANCH   6  15
ATOM     15  O   UNL     1       3.554   6.903  17.526  0.00  0.00    +0.000 OA
BRANCH  15  16
ATOM     16  C   UNL     1       4.827   6.385  17.463  0.00  0.00    +0.000 A 
ATOM     17  C   UNL     1       5.327   5.875  18.664  0.00  0.00    +0.000 A 
ATOM     18  C   UNL     1       6.577   5.256  18.699  0.00  0.00    +0.000 A 
ATOM     19  C   UNL     1       7.334   5.154  17.533  0.00  0.00    +0.000 A 
ATOM     20  C   UNL     1       6.871   5.727  16.347  0.00  0.00    +0.000 A 
ATOM     21  C   UNL     1       5.622   6.360  16.318  0.00  0.00    +0.000 A 
BRANCH  20  22
ATOM     22  O   UNL     1       7.673   5.549  15.239  0.00  0.00    +0.000 OA
BRANCH  22  23
ATOM     23  C   UNL     1       7.176   4.862  14.154  0.00  0.00    +0.000 A 
ATOM     24  C   UNL     1       6.080   4.001  14.236  0.00  0.00    +0.000 A 
ATOM     25  C   UNL     1       5.642   3.324  13.102  0.00  0.00    +0.000 A 
ATOM     26  C   UNL     1       6.258   3.553  11.871  0.00  0.00    +0.000 A 
ATOM     27  C   UNL     1       7.315   4.459  11.777  0.00  0.00    +0.000 A 
ATOM     28  C   UNL     1       7.780   5.110  12.920  0.00  0.00    +0.000 A 
ENDBRANCH  22  23
ENDBRANCH  20  22
ENDBRANCH  15  16
ENDBRANCH   6  15
TORSDOF 7
ENDMDL
MODEL 6
REMARK VINA RESULT:      -7.9      3.348      8.101
REMARK  Name = 
REMARK  7 active torsions:
REMARK  status: ('A' for Active; 'I' for Inactive)
REMARK    1  A    between atoms: C_2  and  C_3
REMARK    2  A    between atoms: C_6  and  C_7
REMARK    3  A    between atoms: C_7  and  N_8
REMARK    4  A    between atoms: C_14  and  O_15
REMARK    5  A    between atoms: O_15  and  C_16
REMARK    6  A    between atoms: C_20  and  O_21
REMARK    7  A    between atoms: O_21  and  C_22
REMARK                            x       y       z     vdW  Elec       q    Type
REMARK                         _______ _______ _______ _____ _____    ______ ____
ROOT
ATOM      1  C   UNL     1       5.767   6.109  17.187  0.00  0.00    +0.000 A 
ATOM      2  C   UNL     1       6.311   4.816  17.249  0.00  0.00    +0.000 A 
ATOM      3  C   UNL     1       5.489   3.696  17.373  0.00  0.00    +0.000 A 
ATOM      4  C   UNL     1       4.101   3.843  17.439  0.00  0.00    +0.000 A 
ATOM      5  C   UNL     1       3.552   5.129  17.307  0.00  0.00    +0.000 A 
ATOM      6  C   UNL     1       4.373   6.263  17.159  0.00  0.00    +0.000 A 
ENDROOT
BRANCH   1   8
ATOM      7  N   UNL     1       7.467   8.070  17.273  0.00  0.00    +0.000 NA
ATOM      8  C   UNL     1       6.701   7.202  17.197  0.00  0.00    +0.000 C 
ENDBRANCH   1   8
BRANCH   4   9
ATOM      9  C   UNL     1       3.224   2.635  17.672  0.00  0.00    +0.000 C 
BRANCH   9  10
ATOM     10  N   UNL     1       2.551   2.691  18.955  0.00  0.00    +0.000 N 
ATOM     11  C   UNL     1       3.141   2.624  20.188  0.00  0.00    +0.000 A 
ATOM     12  C   UNL     1       2.106   2.771  21.082  0.00  0.00    +0.000 A 
ATOM     13  N   UNL     1       0.917   2.956  20.424  0.00  0.00    +0.000 NA
ATOM     14  C   UNL     1       1.217   2.915  19.146  0.00  0.00    +0.000 A 
ENDBRANCH   9  10
ENDBRANCH   4   9
BRANCH   6  15
ATOM     15  O   UNL     1       3.670   7.450  17.120  0.00  0.00    +0.000 OA
BRANCH  15  16
ATOM     16  C   UNL     1       2.826   7.820  18.142  0.00  0.00    +0.000 A 
ATOM     17  C   UNL     1       2.796   6.954  19.238  0.00  0.00    +0.000 A 
ATOM     18  C   UNL     1       2.035   7.271  20.364  0.00  0.00    +0.000 A 
ATOM     19  C   UNL     1       1.294   8.451  20.391  0.00  0.00    +0.000 A 
ATOM     20  C   UNL     1       1.262   9.282  19.270  0.00  0.00    +0.000 A 
ATOM     21  C   UNL     1       2.016   8.955  18.137  0.00  0.00    +0.000 A 
BRANCH  20  22
ATOM     22  O   UNL     1       0.527  10.442  19.401  0.00  0.00    +0.000 OA
BRANCH  22  23
ATOM     23  C   UNL     1      -0.642  10.581  18.687  0.00  0.00    +0.000 A 
ATOM     24  C   UNL     1      -1.025   9.698  17.675  0.00  0.00    +0.000 A 
ATOM     25  C   UNL     1      -2.212   9.910  16.981  0.00  0.00    +0.000 A 
ATOM     26  C   UNL     1      -3.049  10.968  17.337  0.00  0.00    +0.000 A 
ATOM     27  C   UNL     1      -2.696  11.815  18.388  0.00  0.00    +0.000 A 
ATOM     28  C   UNL     1      -1.488  11.627  19.060  0.00  0.00    +0.000 A 
ENDBRANCH  22  23
ENDBRANCH  20  22
ENDBRANCH  15  16
ENDBRANCH   6  15
TORSDOF 7
ENDMDL
MODEL 7
REMARK VINA RESULT:      -7.8      3.485      8.312
REMARK  Name = 
REMARK  7 active torsions:
REMARK  status: ('A' for Active; 'I' for Inactive)
REMARK    1  A    between atoms: C_2  and  C_3
REMARK    2  A    between atoms: C_6  and  C_7
REMARK    3  A    between atoms: C_7  and  N_8
REMARK    4  A    between atoms: C_14  and  O_15
REMARK    5  A    between atoms: O_15  and  C_16
REMARK    6  A    between atoms: C_20  and  O_21
REMARK    7  A    between atoms: O_21  and  C_22
REMARK                            x       y       z     vdW  Elec       q    Type
REMARK                         _______ _______ _______ _____ _____    ______ ____
ROOT
ATOM      1  C   UNL     1       5.466   5.964  17.392  0.00  0.00    +0.000 A 
ATOM      2  C   UNL     1       5.892   4.640  17.581  0.00  0.00    +0.000 A 
ATOM      3  C   UNL     1       4.976   3.621  17.843  0.00  0.00    +0.000 A 
ATOM      4  C   UNL     1       3.609   3.903  17.922  0.00  0.00    +0.000 A 
ATOM      5  C   UNL     1       3.176   5.214  17.664  0.00  0.00    +0.000 A 
ATOM      6  C   UNL     1       4.092   6.244  17.376  0.00  0.00    +0.000 A 
ENDROOT
BRANCH   1   8
ATOM      7  N   UNL     1       7.302   7.792  17.221  0.00  0.00    +0.000 NA
ATOM      8  C   UNL     1       6.496   6.960  17.264  0.00  0.00    +0.000 C 
ENDBRANCH   1   8
BRANCH   4   9
ATOM      9  C   UNL     1       2.635   2.815  18.301  0.00  0.00    +0.000 C 
BRANCH   9  10
ATOM     10  N   UNL     1       2.325   2.832  19.718  0.00  0.00    +0.000 N 
ATOM     11  C   UNL     1       1.086   2.971  20.280  0.00  0.00    +0.000 A 
ATOM     12  C   UNL     1       1.300   2.874  21.635  0.00  0.00    +0.000 A 
ATOM     13  N   UNL     1       2.626   2.650  21.904  0.00  0.00    +0.000 NA
ATOM     14  C   UNL     1       3.217   2.618  20.731  0.00  0.00    +0.000 A 
ENDBRANCH   9  10
ENDBRANCH   4   9
BRANCH   6  15
ATOM     15  O   UNL     1       3.499   7.481  17.225  0.00  0.00    +0.000 OA
BRANCH  15  16
ATOM     16  C   UNL     1       2.625   7.980  18.164  0.00  0.00    +0.000 A 
ATOM     17  C   UNL     1       2.574   7.275  19.370  0.00  0.00    +0.000 A 
ATOM     18  C   UNL     1       1.781   7.737  20.421  0.00  0.00    +0.000 A 
ATOM     19  C   UNL     1       1.029   8.900  20.264  0.00  0.00    +0.000 A 
ATOM     20  C   UNL     1       1.019   9.565  19.037  0.00  0.00    +0.000 A 
ATOM     21  C   UNL     1       1.806   9.092  17.980  0.00  0.00    +0.000 A 
BRANCH  20  22
ATOM     22  O   UNL     1       0.271  10.723  18.986  0.00  0.00    +0.000 OA
BRANCH  22  23
ATOM     23  C   UNL     1       0.750  11.860  19.598  0.00  0.00    +0.000 A 
ATOM     24  C   UNL     1       0.187  12.392  20.760  0.00  0.00    +0.000 A 
ATOM     25  C   UNL     1       0.711  13.555  21.315  0.00  0.00    +0.000 A 
ATOM     26  C   UNL     1       1.835  14.156  20.746  0.00  0.00    +0.000 A 
ATOM     27  C   UNL     1       2.434  13.591  19.619  0.00  0.00    +0.000 A 
ATOM     28  C   UNL     1       1.888  12.445  19.040  0.00  0.00    +0.000 A 
ENDBRANCH  22  23
ENDBRANCH  20  22
ENDBRANCH  15  16
ENDBRANCH   6  15
TORSDOF 7
ENDMDL
MODEL 8
REMARK VINA RESULT:      -7.8      1.638      2.127
REMARK  Name = 
REMARK  7 active torsions:
REMARK  status: ('A' for Active; 'I' for Inactive)
REMARK    1  A    between atoms: C_2  and  C_3
REMARK    2  A    between atoms: C_6  and  C_7
REMARK    3  A    between atoms: C_7  and  N_8
REMARK    4  A    between atoms: C_14  and  O_15
REMARK    5  A    between atoms: O_15  and  C_16
REMARK    6  A    between atoms: C_20  and  O_21
REMARK    7  A    between atoms: O_21  and  C_22
REMARK                            x       y       z     vdW  Elec       q    Type
REMARK                         _______ _______ _______ _____ _____    ______ ____
ROOT
ATOM      1  C   UNL     1       2.202   5.068  19.740  0.00  0.00    +0.000 A 
ATOM      2  C   UNL     1       1.498   5.593  20.835  0.00  0.00    +0.000 A 
ATOM      3  C   UNL     1       1.237   6.959  20.934  0.00  0.00    +0.000 A 
ATOM      4  C   UNL     1       1.676   7.836  19.937  0.00  0.00    +0.000 A 
ATOM      5  C   UNL     1       2.318   7.304  18.807  0.00  0.00    +0.000 A 
ATOM      6  C   UNL     1       2.566   5.922  18.688  0.00  0.00    +0.000 A 
ENDROOT
BRANCH   1   8
ATOM      7  N   UNL     1       2.850   2.554  19.790  0.00  0.00    +0.000 NA
ATOM      8  C   UNL     1       2.537   3.671  19.799  0.00  0.00    +0.000 C 
ENDBRANCH   1   8
BRANCH   4   9
ATOM      9  C   UNL     1       1.475   9.323  20.098  0.00  0.00    +0.000 C 
BRANCH   9  10
ATOM     10  N   UNL     1       0.803   9.649  21.342  0.00  0.00    +0.000 N 
ATOM     11  C   UNL     1      -0.429  10.228  21.475  0.00  0.00    +0.000 A 
ATOM     12  C   UNL     1      -0.647  10.285  22.831  0.00  0.00    +0.000 A 
ATOM     13  N   UNL     1       0.403   9.730  23.517  0.00  0.00    +0.000 NA
ATOM     14  C   UNL     1       1.256   9.346  22.594  0.00  0.00    +0.000 A 
ENDBRANCH   9  10
ENDBRANCH   4   9
BRANCH   6  15
ATOM     15  O   UNL     1       3.273   5.586  17.552  0.00  0.00    +0.000 OA
BRANCH  15  16
ATOM     16  C   UNL     1       4.648   5.620  17.524  0.00  0.00    +0.000 A 
ATOM     17  C   UNL     1       5.276   5.516  18.768  0.00  0.00    +0.000 A 
ATOM     18  C   UNL     1       6.668   5.461  18.850  0.00  0.00    +0.000 A 
ATOM     19  C   UNL     1       7.435   5.521  17.687  0.00  0.00    +0.000 A 
ATOM     20  C   UNL     1       6.815   5.701  16.450  0.00  0.00    +0.000 A 
ATOM     21  C   UNL     1       5.419   5.768  16.372  0.00  0.00    +0.000 A 
BRANCH  20  22
ATOM     22  O   UNL     1       7.652   5.717  15.354  0.00  0.00    +0.000 OA
BRANCH  22  23
ATOM     23  C   UNL     1       7.277   5.044  14.212  0.00  0.00    +0.000 A 
ATOM     24  C   UNL     1       7.837   5.301  12.959  0.00  0.00    +0.000 A 
ATOM     25  C   UNL     1       7.397   4.595  11.844  0.00  0.00    +0.000 A 
ATOM     26  C   UNL     1       6.441   3.589  11.987  0.00  0.00    +0.000 A 
ATOM     27  C   UNL     1       5.924   3.291  13.249  0.00  0.00    +0.000 A 
ATOM     28  C   UNL     1       6.337   4.023  14.362  0.00  0.00    +0.000 A 
ENDBRANCH  22  23
ENDBRANCH  20  22
ENDBRANCH  15  16
ENDBRANCH   6  15
TORSDOF 7
ENDMDL
MODEL 9
REMARK VINA RESULT:      -7.8      1.537      4.717
REMARK  Name = 
REMARK  7 active torsions:
REMARK  status: ('A' for Active; 'I' for Inactive)
REMARK    1  A    between atoms: C_2  and  C_3
REMARK    2  A    between atoms: C_6  and  C_7
REMARK    3  A    between atoms: C_7  and  N_8
REMARK    4  A    between atoms: C_14  and  O_15
REMARK    5  A    between atoms: O_15  and  C_16
REMARK    6  A    between atoms: C_20  and  O_21
REMARK    7  A    between atoms: O_21  and  C_22
REMARK                            x       y       z     vdW  Elec       q    Type
REMARK                         _______ _______ _______ _____ _____    ______ ____
ROOT
ATOM      1  C   UNL     1       2.152   8.208  18.989  0.00  0.00    +0.000 A 
ATOM      2  C   UNL     1       1.451   8.131  20.202  0.00  0.00    +0.000 A 
ATOM      3  C   UNL     1       1.347   6.926  20.896  0.00  0.00    +0.000 A 
ATOM      4  C   UNL     1       1.943   5.766  20.392  0.00  0.00    +0.000 A 
ATOM      5  C   UNL     1       2.704   5.857  19.215  0.00  0.00    +0.000 A 
ATOM      6  C   UNL     1       2.833   7.075  18.519  0.00  0.00    +0.000 A 
ENDROOT
BRANCH   1   8
ATOM      7  N   UNL     1       1.963  10.462  17.712  0.00  0.00    +0.000 NA
ATOM      8  C   UNL     1       2.086   9.460  18.285  0.00  0.00    +0.000 C 
ENDBRANCH   1   8
BRANCH   4   9
ATOM      9  C   UNL     1       1.744   4.447  21.098  0.00  0.00    +0.000 C 
BRANCH   9  10
ATOM     10  N   UNL     1       1.865   3.322  20.190  0.00  0.00    +0.000 N 
ATOM     11  C   UNL     1       0.891   2.834  19.363  0.00  0.00    +0.000 A 
ATOM     12  C   UNL     1       1.495   1.809  18.673  0.00  0.00    +0.000 A 
ATOM     13  N   UNL     1       2.811   1.685  19.038  0.00  0.00    +0.000 NA
ATOM     14  C   UNL     1       3.008   2.616  19.945  0.00  0.00    +0.000 A 
ENDBRANCH   9  10
ENDBRANCH   4   9
BRANCH   6  15
ATOM     15  O   UNL     1       3.551   6.964  17.346  0.00  0.00    +0.000 OA
BRANCH  15  16
ATOM     16  C   UNL     1       4.810   6.411  17.322  0.00  0.00    +0.000 A 
ATOM     17  C   UNL     1       5.248   5.862  18.531  0.00  0.00    +0.000 A 
ATOM     18  C   UNL     1       6.477   5.206  18.602  0.00  0.00    +0.000 A 
ATOM     19  C   UNL     1       7.276   5.106  17.464  0.00  0.00    +0.000 A 
ATOM     20  C   UNL     1       6.878   5.716  16.274  0.00  0.00    +0.000 A 
ATOM     21  C   UNL     1       5.650   6.386  16.210  0.00  0.00    +0.000 A 
BRANCH  20  22
ATOM     22  O   UNL     1       7.718   5.537  15.195  0.00  0.00    +0.000 OA
BRANCH  22  23
ATOM     23  C   UNL     1       7.241   4.901  14.071  0.00  0.00    +0.000 A 
ATOM     24  C   UNL     1       7.798   5.078  12.803  0.00  0.00    +0.000 A 
ATOM     25  C   UNL     1       7.253   4.418  11.707  0.00  0.00    +0.000 A 
ATOM     26  C   UNL     1       6.188   3.533  11.883  0.00  0.00    +0.000 A 
ATOM     27  C   UNL     1       5.669   3.310  13.159  0.00  0.00    +0.000 A 
ATOM     28  C   UNL     1       6.190   4.000  14.254  0.00  0.00    +0.000 A 
ENDBRANCH  22  23
ENDBRANCH  20  22
ENDBRANCH  15  16
ENDBRANCH   6  15
TORSDOF 7
ENDMDL
