MODEL 1
REMARK VINA RESULT:      -7.6      0.000      0.000
REMARK  Name = 
REMARK  6 active torsions:
REMARK  status: ('A' for Active; 'I' for Inactive)
REMARK    1  A    between atoms: C_1  and  O_2
REMARK    2  A    between atoms: O_2  and  C_3
REMARK    3  A    between atoms: C_6  and  C_7
REMARK    4  A    between atoms: C_7  and  C_8
REMARK    5  A    between atoms: C_11  and  O_12
REMARK    6  A    between atoms: O_12  and  C_13
REMARK                            x       y       z     vdW  Elec       q    Type
REMARK                         _______ _______ _______ _____ _____    ______ ____
ROOT
ATOM      1  C   UNL     1       0.469  11.301  19.456  0.00  0.00    +0.000 C 
ATOM      2  C   UNL     1      -0.607  11.189  20.646  0.00  0.00    +0.000 C 
ATOM      3  C   UNL     1      -1.898  12.001  20.394  0.00  0.00    +0.000 C 
ATOM      4  C   UNL     1      -1.461  13.391  20.065  0.00  0.00    +0.000 A 
ATOM      5  C   UNL     1      -1.682  14.504  20.859  0.00  0.00    +0.000 A 
ATOM      6  C   UNL     1      -1.189  15.719  20.412  0.00  0.00    +0.000 A 
ATOM      7  C   UNL     1      -0.536  15.804  19.169  0.00  0.00    +0.000 A 
ATOM      8  C   UNL     1      -0.307  14.672  18.369  0.00  0.00    +0.000 A 
ATOM      9  C   UNL     1      -0.736  13.438  18.843  0.00  0.00    +0.000 A 
ATOM     10  C   UNL     1      -0.363  11.999  18.277  0.00  0.00    +0.000 C 
ATOM     11  C   UNL     1      -1.717  11.349  18.063  0.00  0.00    +0.000 A 
ATOM     12  C   UNL     1      -2.218  11.104  16.786  0.00  0.00    +0.000 A 
ATOM     13  C   UNL     1      -3.574  11.294  16.557  0.00  0.00    +0.000 A 
ATOM     14  C   UNL     1      -4.394  11.700  17.604  0.00  0.00    +0.000 A 
ATOM     15  C   UNL     1      -3.875  11.784  18.895  0.00  0.00    +0.000 A 
ATOM     16  N   UNL     1      -2.560  11.544  19.116  0.00  0.00    +0.000 N 
ENDROOT
BRANCH   1  20
ATOM     17  C   UNL     1       2.152   7.254  19.463  0.00  0.00    +0.000 A 
ATOM     18  C   UNL     1       1.623   7.829  20.607  0.00  0.00    +0.000 A 
ATOM     19  C   UNL     1       1.111   9.124  20.569  0.00  0.00    +0.000 A 
ATOM     20  C   UNL     1       1.070   9.880  19.373  0.00  0.00    +0.000 A 
ATOM     21  C   UNL     1       1.655   9.311  18.238  0.00  0.00    +0.000 A 
ATOM     22  C   UNL     1       2.203   8.010  18.291  0.00  0.00    +0.000 A 
BRANCH  17  24
ATOM     23  C   UNL     1       1.982   5.179  20.579  0.00  0.00    +0.000 C 
ATOM     24  O   UNL     1       2.649   5.990  19.619  0.00  0.00    +0.000 OA
ENDBRANCH  17  24
ENDBRANCH   1  20
BRANCH   1  25
ATOM     25  C   UNL     1       1.701  12.279  19.560  0.00  0.00    +0.000 A 
ATOM     26  C   UNL     1       2.382  12.609  18.360  0.00  0.00    +0.000 A 
ATOM     27  C   UNL     1       3.117  13.789  18.245  0.00  0.00    +0.000 A 
ATOM     28  C   UNL     1       3.218  14.649  19.331  0.00  0.00    +0.000 A 
ATOM     29  C   UNL     1       2.710  14.248  20.567  0.00  0.00    +0.000 A 
ATOM     30  C   UNL     1       1.972  13.058  20.693  0.00  0.00    +0.000 A 
BRANCH  28  31
ATOM     31  O   UNL     1       3.828  15.846  19.079  0.00  0.00    +0.000 OA
ATOM     32  C   UNL     1       3.452  16.474  17.856  0.00  0.00    +0.000 C 
ENDBRANCH  28  31
ENDBRANCH   1  25
TORSDOF 4
ENDMDL
MODEL 2
REMARK VINA RESULT:      -6.8      3.630      6.436
REMARK  Name = 
REMARK  6 active torsions:
REMARK  status: ('A' for Active; 'I' for Inactive)
REMARK    1  A    between atoms: C_1  and  O_2
REMARK    2  A    between atoms: O_2  and  C_3
REMARK    3  A    between atoms: C_6  and  C_7
REMARK    4  A    between atoms: C_7  and  C_8
REMARK    5  A    between atoms: C_11  and  O_12
REMARK    6  A    between atoms: O_12  and  C_13
REMARK                            x       y       z     vdW  Elec       q    Type
REMARK                         _______ _______ _______ _____ _____    ______ ____
ROOT
ATOM      1  C   UNL     1      -2.120  13.191  21.749  0.00  0.00    +0.000 C 
ATOM      2  C   UNL     1      -2.427  12.545  20.309  0.00  0.00    +0.000 C 
ATOM      3  C   UNL     1      -1.223  11.790  19.698  0.00  0.00    +0.000 C 
ATOM      4  C   UNL     1      -0.071  12.740  19.732  0.00  0.00    +0.000 A 
ATOM      5  C   UNL     1       0.535  13.297  18.620  0.00  0.00    +0.000 A 
ATOM      6  C   UNL     1       1.582  14.179  18.833  0.00  0.00    +0.000 A 
ATOM      7  C   UNL     1       2.029  14.444  20.140  0.00  0.00    +0.000 A 
ATOM      8  C   UNL     1       1.408  13.883  21.268  0.00  0.00    +0.000 A 
ATOM      9  C   UNL     1       0.312  13.052  21.066  0.00  0.00    +0.000 A 
ATOM     10  C   UNL     1      -0.720  12.525  22.156  0.00  0.00    +0.000 C 
ATOM     11  C   UNL     1      -0.712  11.023  21.943  0.00  0.00    +0.000 A 
ATOM     12  C   UNL     1      -0.145  10.154  22.873  0.00  0.00    +0.000 A 
ATOM     13  C   UNL     1       0.559   9.050  22.409  0.00  0.00    +0.000 A 
ATOM     14  C   UNL     1       0.661   8.832  21.039  0.00  0.00    +0.000 A 
ATOM     15  C   UNL     1      -0.051   9.642  20.156  0.00  0.00    +0.000 A 
ATOM     16  N   UNL     1      -0.777  10.684  20.625  0.00  0.00    +0.000 N 
ENDROOT
BRANCH   1  20
ATOM     17  C   UNL     1      -5.979  12.718  23.771  0.00  0.00    +0.000 A 
ATOM     18  C   UNL     1      -5.889  13.160  22.461  0.00  0.00    +0.000 A 
ATOM     19  C   UNL     1      -4.642  13.313  21.858  0.00  0.00    +0.000 A 
ATOM     20  C   UNL     1      -3.438  12.989  22.528  0.00  0.00    +0.000 A 
ATOM     21  C   UNL     1      -3.539  12.594  23.865  0.00  0.00    +0.000 A 
ATOM     22  C   UNL     1      -4.804  12.474  24.482  0.00  0.00    +0.000 A 
BRANCH  17  24
ATOM     23  C   UNL     1      -7.916  13.867  24.484  0.00  0.00    +0.000 C 
ATOM     24  O   UNL     1      -7.248  12.628  24.272  0.00  0.00    +0.000 OA
ENDBRANCH  17  24
ENDBRANCH   1  20
BRANCH   1  25
ATOM     25  C   UNL     1      -1.768  14.720  21.899  0.00  0.00    +0.000 A 
ATOM     26  C   UNL     1      -1.165  15.141  23.113  0.00  0.00    +0.000 A 
ATOM     27  C   UNL     1      -0.382  16.294  23.171  0.00  0.00    +0.000 A 
ATOM     28  C   UNL     1      -0.208  17.070  22.033  0.00  0.00    +0.000 A 
ATOM     29  C   UNL     1      -0.943  16.770  20.886  0.00  0.00    +0.000 A 
ATOM     30  C   UNL     1      -1.738  15.613  20.819  0.00  0.00    +0.000 A 
BRANCH  28  31
ATOM     31  O   UNL     1       0.693  18.091  22.148  0.00  0.00    +0.000 OA
ATOM     32  C   UNL     1       2.006  17.700  22.541  0.00  0.00    +0.000 C 
ENDBRANCH  28  31
ENDBRANCH   1  25
TORSDOF 4
ENDMDL
MODEL 3
REMARK VINA RESULT:      -6.6      2.710      5.804
REMARK  Name = 
REMARK  6 active torsions:
REMARK  status: ('A' for Active; 'I' for Inactive)
REMARK    1  A    between atoms: C_1  and  O_2
REMARK    2  A    between atoms: O_2  and  C_3
REMARK    3  A    between atoms: C_6  and  C_7
REMARK    4  A    between atoms: C_7  and  C_8
REMARK    5  A    between atoms: C_11  and  O_12
REMARK    6  A    between atoms: O_12  and  C_13
REMARK                            x       y       z     vdW  Elec       q    Type
REMARK                         _______ _______ _______ _____ _____    ______ ____
ROOT
ATOM      1  C   UNL     1      -1.456  12.774  20.053  0.00  0.00    +0.000 C 
ATOM      2  C   UNL     1      -1.168  11.854  18.765  0.00  0.00    +0.000 C 
ATOM      3  C   UNL     1       0.172  11.086  18.838  0.00  0.00    +0.000 C 
ATOM      4  C   UNL     1       1.223  12.104  19.135  0.00  0.00    +0.000 A 
ATOM      5  C   UNL     1       2.228  12.488  18.265  0.00  0.00    +0.000 A 
ATOM      6  C   UNL     1       3.111  13.466  18.694  0.00  0.00    +0.000 A 
ATOM      7  C   UNL     1       3.002  13.997  19.991  0.00  0.00    +0.000 A 
ATOM      8  C   UNL     1       1.976  13.611  20.871  0.00  0.00    +0.000 A 
ATOM      9  C   UNL     1       1.045  12.683  20.422  0.00  0.00    +0.000 A 
ATOM     10  C   UNL     1      -0.341  12.295  21.099  0.00  0.00    +0.000 C 
ATOM     11  C   UNL     1      -0.262  10.783  21.206  0.00  0.00    +0.000 A 
ATOM     12  C   UNL     1      -0.122  10.142  22.436  0.00  0.00    +0.000 A 
ATOM     13  C   UNL     1       0.698   9.024  22.513  0.00  0.00    +0.000 A 
ATOM     14  C   UNL     1       1.336   8.565  21.366  0.00  0.00    +0.000 A 
ATOM     15  C   UNL     1       1.044   9.147  20.133  0.00  0.00    +0.000 A 
ATOM     16  N   UNL     1       0.200  10.204  20.063  0.00  0.00    +0.000 N 
ENDROOT
BRANCH   1  20
ATOM     17  C   UNL     1      -5.798  12.323  20.439  0.00  0.00    +0.000 A 
ATOM     18  C   UNL     1      -5.144  12.109  19.236  0.00  0.00    +0.000 A 
ATOM     19  C   UNL     1      -3.764  12.278  19.149  0.00  0.00    +0.000 A 
ATOM     20  C   UNL     1      -2.978  12.626  20.273  0.00  0.00    +0.000 A 
ATOM     21  C   UNL     1      -3.654  12.891  21.468  0.00  0.00    +0.000 A 
ATOM     22  C   UNL     1      -5.058  12.751  21.541  0.00  0.00    +0.000 A 
BRANCH  17  24
ATOM     23  C   UNL     1      -7.625  10.868  20.796  0.00  0.00    +0.000 C 
ATOM     24  O   UNL     1      -7.155  12.154  20.406  0.00  0.00    +0.000 OA
ENDBRANCH  17  24
ENDBRANCH   1  20
BRANCH   1  25
ATOM     25  C   UNL     1      -1.179  14.326  20.024  0.00  0.00    +0.000 A 
ATOM     26  C   UNL     1      -1.156  15.012  21.266  0.00  0.00    +0.000 A 
ATOM     27  C   UNL     1      -0.457  16.210  21.418  0.00  0.00    +0.000 A 
ATOM     28  C   UNL     1       0.206  16.767  20.332  0.00  0.00    +0.000 A 
ATOM     29  C   UNL     1       0.037  16.201  19.068  0.00  0.00    +0.000 A 
ATOM     30  C   UNL     1      -0.669  14.996  18.905  0.00  0.00    +0.000 A 
BRANCH  28  31
ATOM     31  O   UNL     1       0.985  17.855  20.612  0.00  0.00    +0.000 OA
ATOM     32  C   UNL     1       2.377  17.685  20.362  0.00  0.00    +0.000 C 
ENDBRANCH  28  31
ENDBRANCH   1  25
TORSDOF 4
ENDMDL
MODEL 4
REMARK VINA RESULT:      -6.6      2.881      5.894
REMARK  Name = 
REMARK  6 active torsions:
REMARK  status: ('A' for Active; 'I' for Inactive)
REMARK    1  A    between atoms: C_1  and  O_2
REMARK    2  A    between atoms: O_2  and  C_3
REMARK    3  A    between atoms: C_6  and  C_7
REMARK    4  A    between atoms: C_7  and  C_8
REMARK    5  A    between atoms: C_11  and  O_12
REMARK    6  A    between atoms: O_12  and  C_13
REMARK                            x       y       z     vdW  Elec       q    Type
REMARK                         _______ _______ _______ _____ _____    ______ ____
ROOT
ATOM      1  C   UNL     1      -1.560  12.918  20.286  0.00  0.00    +0.000 C 
ATOM      2  C   UNL     1      -1.400  11.937  19.021  0.00  0.00    +0.000 C 
ATOM      3  C   UNL     1      -0.086  11.123  19.031  0.00  0.00    +0.000 C 
ATOM      4  C   UNL     1       1.019  12.111  19.208  0.00  0.00    +0.000 A 
ATOM      5  C   UNL     1       1.971  12.422  18.252  0.00  0.00    +0.000 A 
ATOM      6  C   UNL     1       2.917  13.382  18.576  0.00  0.00    +0.000 A 
ATOM      7  C   UNL     1       2.921  13.969  19.853  0.00  0.00    +0.000 A 
ATOM      8  C   UNL     1       1.950  13.657  20.820  0.00  0.00    +0.000 A 
ATOM      9  C   UNL     1       0.956  12.748  20.478  0.00  0.00    +0.000 A 
ATOM     10  C   UNL     1      -0.389  12.439  21.269  0.00  0.00    +0.000 C 
ATOM     11  C   UNL     1      -0.356  10.931  21.435  0.00  0.00    +0.000 A 
ATOM     12  C   UNL     1      -0.149  10.335  22.678  0.00  0.00    +0.000 A 
ATOM     13  C   UNL     1       0.636   9.191  22.743  0.00  0.00    +0.000 A 
ATOM     14  C   UNL     1       1.172   8.662  21.574  0.00  0.00    +0.000 A 
ATOM     15  C   UNL     1       0.811   9.205  20.341  0.00  0.00    +0.000 A 
ATOM     16  N   UNL     1       0.002  10.290  20.287  0.00  0.00    +0.000 N 
ENDROOT
BRANCH   1  20
ATOM     17  C   UNL     1      -5.772  12.682  21.473  0.00  0.00    +0.000 A 
ATOM     18  C   UNL     1      -4.757  12.833  22.404  0.00  0.00    +0.000 A 
ATOM     19  C   UNL     1      -3.428  12.888  21.988  0.00  0.00    +0.000 A 
ATOM     20  C   UNL     1      -3.066  12.837  20.621  0.00  0.00    +0.000 A 
ATOM     21  C   UNL     1      -4.094  12.631  19.696  0.00  0.00    +0.000 A 
ATOM     22  C   UNL     1      -5.436  12.541  20.126  0.00  0.00    +0.000 A 
BRANCH  17  24
ATOM     23  C   UNL     1      -7.122  12.631  23.412  0.00  0.00    +0.000 C 
ATOM     24  O   UNL     1      -7.036  12.614  21.991  0.00  0.00    +0.000 OA
ENDBRANCH  17  24
ENDBRANCH   1  20
BRANCH   1  25
ATOM     25  C   UNL     1      -1.232  14.456  20.172  0.00  0.00    +0.000 A 
ATOM     26  C   UNL     1      -1.093  15.190  21.378  0.00  0.00    +0.000 A 
ATOM     27  C   UNL     1      -0.343  16.365  21.428  0.00  0.00    +0.000 A 
ATOM     28  C   UNL     1       0.256  16.853  20.273  0.00  0.00    +0.000 A 
ATOM     29  C   UNL     1      -0.027  16.244  19.050  0.00  0.00    +0.000 A 
ATOM     30  C   UNL     1      -0.785  15.062  18.990  0.00  0.00    +0.000 A 
BRANCH  28  31
ATOM     31  O   UNL     1       1.091  17.921  20.449  0.00  0.00    +0.000 OA
ATOM     32  C   UNL     1       2.482  17.624  20.366  0.00  0.00    +0.000 C 
ENDBRANCH  28  31
ENDBRANCH   1  25
TORSDOF 4
ENDMDL
MODEL 5
REMARK VINA RESULT:      -6.5      3.240      5.003
REMARK  Name = 
REMARK  6 active torsions:
REMARK  status: ('A' for Active; 'I' for Inactive)
REMARK    1  A    between atoms: C_1  and  O_2
REMARK    2  A    between atoms: O_2  and  C_3
REMARK    3  A    between atoms: C_6  and  C_7
REMARK    4  A    between atoms: C_7  and  C_8
REMARK    5  A    between atoms: C_11  and  O_12
REMARK    6  A    between atoms: O_12  and  C_13
REMARK                            x       y       z     vdW  Elec       q    Type
REMARK                         _______ _______ _______ _____ _____    ______ ____
ROOT
ATOM      1  C   UNL     1      -2.366  13.292  21.543  0.00  0.00    +0.000 C 
ATOM      2  C   UNL     1      -2.423  12.369  22.860  0.00  0.00    +0.000 C 
ATOM      3  C   UNL     1      -3.492  12.814  23.884  0.00  0.00    +0.000 C 
ATOM      4  C   UNL     1      -3.251  14.266  24.139  0.00  0.00    +0.000 A 
ATOM      5  C   UNL     1      -2.807  14.801  25.336  0.00  0.00    +0.000 A 
ATOM      6  C   UNL     1      -2.615  16.172  25.394  0.00  0.00    +0.000 A 
ATOM      7  C   UNL     1      -2.915  16.977  24.281  0.00  0.00    +0.000 A 
ATOM      8  C   UNL     1      -3.360  16.431  23.065  0.00  0.00    +0.000 A 
ATOM      9  C   UNL     1      -3.487  15.050  22.976  0.00  0.00    +0.000 A 
ATOM     10  C   UNL     1      -3.697  14.178  21.662  0.00  0.00    +0.000 C 
ATOM     11  C   UNL     1      -4.919  13.341  21.993  0.00  0.00    +0.000 A 
ATOM     12  C   UNL     1      -6.146  13.558  21.369  0.00  0.00    +0.000 A 
ATOM     13  C   UNL     1      -7.305  13.444  22.124  0.00  0.00    +0.000 A 
ATOM     14  C   UNL     1      -7.214  13.098  23.469  0.00  0.00    +0.000 A 
ATOM     15  C   UNL     1      -5.978  12.742  24.007  0.00  0.00    +0.000 A 
ATOM     16  N   UNL     1      -4.860  12.807  23.245  0.00  0.00    +0.000 N 
ENDROOT
BRANCH   1  20
ATOM     17  C   UNL     1      -1.800  10.494  18.218  0.00  0.00    +0.000 A 
ATOM     18  C   UNL     1      -2.879  11.361  18.269  0.00  0.00    +0.000 A 
ATOM     19  C   UNL     1      -3.033  12.225  19.351  0.00  0.00    +0.000 A 
ATOM     20  C   UNL     1      -2.090  12.285  20.405  0.00  0.00    +0.000 A 
ATOM     21  C   UNL     1      -1.034  11.369  20.369  0.00  0.00    +0.000 A 
ATOM     22  C   UNL     1      -0.902  10.472  19.286  0.00  0.00    +0.000 A 
BRANCH  17  24
ATOM     23  C   UNL     1      -2.684   9.981  16.089  0.00  0.00    +0.000 C 
ATOM     24  O   UNL     1      -1.759   9.673  17.125  0.00  0.00    +0.000 OA
ENDBRANCH  17  24
ENDBRANCH   1  20
BRANCH   1  25
ATOM     25  C   UNL     1      -1.279  14.422  21.385  0.00  0.00    +0.000 A 
ATOM     26  C   UNL     1      -0.161  14.386  22.258  0.00  0.00    +0.000 A 
ATOM     27  C   UNL     1       1.050  14.983  21.908  0.00  0.00    +0.000 A 
ATOM     28  C   UNL     1       1.166  15.657  20.699  0.00  0.00    +0.000 A 
ATOM     29  C   UNL     1       0.025  15.859  19.921  0.00  0.00    +0.000 A 
ATOM     30  C   UNL     1      -1.201  15.264  20.268  0.00  0.00    +0.000 A 
BRANCH  28  31
ATOM     31  O   UNL     1       2.426  16.077  20.377  0.00  0.00    +0.000 OA
ATOM     32  C   UNL     1       2.561  16.651  19.080  0.00  0.00    +0.000 C 
ENDBRANCH  28  31
ENDBRANCH   1  25
TORSDOF 4
ENDMDL
MODEL 6
REMARK VINA RESULT:      -6.5      2.751      4.496
REMARK  Name = 
REMARK  6 active torsions:
REMARK  status: ('A' for Active; 'I' for Inactive)
REMARK    1  A    between atoms: C_1  and  O_2
REMARK    2  A    between atoms: O_2  and  C_3
REMARK    3  A    between atoms: C_6  and  C_7
REMARK    4  A    between atoms: C_7  and  C_8
REMARK    5  A    between atoms: C_11  and  O_12
REMARK    6  A    between atoms: O_12  and  C_13
REMARK                            x       y       z     vdW  Elec       q    Type
REMARK                         _______ _______ _______ _____ _____    ______ ____
ROOT
ATOM      1  C   UNL     1      -1.929  12.908  20.521  0.00  0.00    +0.000 C 
ATOM      2  C   UNL     1      -2.099  11.945  21.798  0.00  0.00    +0.000 C 
ATOM      3  C   UNL     1      -2.940  12.568  22.936  0.00  0.00    +0.000 C 
ATOM      4  C   UNL     1      -2.333  13.901  23.226  0.00  0.00    +0.000 A 
ATOM      5  C   UNL     1      -1.674  14.240  24.396  0.00  0.00    +0.000 A 
ATOM      6  C   UNL     1      -1.150  15.518  24.491  0.00  0.00    +0.000 A 
ATOM      7  C   UNL     1      -1.337  16.439  23.445  0.00  0.00    +0.000 A 
ATOM      8  C   UNL     1      -1.999  16.092  22.255  0.00  0.00    +0.000 A 
ATOM      9  C   UNL     1      -2.466  14.790  22.123  0.00  0.00    +0.000 A 
ATOM     10  C   UNL     1      -2.989  14.076  20.801  0.00  0.00    +0.000 C 
ATOM     11  C   UNL     1      -4.347  13.537  21.213  0.00  0.00    +0.000 A 
ATOM     12  C   UNL     1      -5.531  14.079  20.717  0.00  0.00    +0.000 A 
ATOM     13  C   UNL     1      -6.617  14.198  21.574  0.00  0.00    +0.000 A 
ATOM     14  C   UNL     1      -6.502  13.757  22.889  0.00  0.00    +0.000 A 
ATOM     15  C   UNL     1      -5.350  13.084  23.292  0.00  0.00    +0.000 A 
ATOM     16  N   UNL     1      -4.317  12.927  22.430  0.00  0.00    +0.000 N 
ENDROOT
BRANCH   1  20
ATOM     17  C   UNL     1      -2.364  10.222  17.085  0.00  0.00    +0.000 A 
ATOM     18  C   UNL     1      -3.356  11.121  17.442  0.00  0.00    +0.000 A 
ATOM     19  C   UNL     1      -3.188  11.947  18.551  0.00  0.00    +0.000 A 
ATOM     20  C   UNL     1      -2.000  11.937  19.321  0.00  0.00    +0.000 A 
ATOM     21  C   UNL     1      -1.028  10.990  18.983  0.00  0.00    +0.000 A 
ATOM     22  C   UNL     1      -1.220  10.132  17.878  0.00  0.00    +0.000 A 
BRANCH  17  24
ATOM     23  C   UNL     1      -2.996  10.145  14.809  0.00  0.00    +0.000 C 
ATOM     24  O   UNL     1      -2.643   9.443  15.996  0.00  0.00    +0.000 OA
ENDBRANCH  17  24
ENDBRANCH   1  20
BRANCH   1  25
ATOM     25  C   UNL     1      -0.616  13.753  20.306  0.00  0.00    +0.000 A 
ATOM     26  C   UNL     1       0.514  13.427  21.099  0.00  0.00    +0.000 A 
ATOM     27  C   UNL     1       1.808  13.731  20.676  0.00  0.00    +0.000 A 
ATOM     28  C   UNL     1       2.004  14.397  19.473  0.00  0.00    +0.000 A 
ATOM     29  C   UNL     1       0.898  14.886  18.778  0.00  0.00    +0.000 A 
ATOM     30  C   UNL     1      -0.410  14.587  19.199  0.00  0.00    +0.000 A 
BRANCH  28  31
ATOM     31  O   UNL     1       3.305  14.517  19.072  0.00  0.00    +0.000 OA
ATOM     32  C   UNL     1       3.499  15.204  17.839  0.00  0.00    +0.000 C 
ENDBRANCH  28  31
ENDBRANCH   1  25
TORSDOF 4
ENDMDL
MODEL 7
REMARK VINA RESULT:      -6.5      3.381      4.957
REMARK  Name = 
REMARK  6 active torsions:
REMARK  status: ('A' for Active; 'I' for Inactive)
REMARK    1  A    between atoms: C_1  and  O_2
REMARK    2  A    between atoms: O_2  and  C_3
REMARK    3  A    between atoms: C_6  and  C_7
REMARK    4  A    between atoms: C_7  and  C_8
REMARK    5  A    between atoms: C_11  and  O_12
REMARK    6  A    between atoms: O_12  and  C_13
REMARK                            x       y       z     vdW  Elec       q    Type
REMARK                         _______ _______ _______ _____ _____    ______ ____
ROOT
ATOM      1  C   UNL     1      -2.905  13.129  22.180  0.00  0.00    +0.000 C 
ATOM      2  C   UNL     1      -3.974  12.528  23.221  0.00  0.00    +0.000 C 
ATOM      3  C   UNL     1      -5.437  12.908  22.896  0.00  0.00    +0.000 C 
ATOM      4  C   UNL     1      -5.462  14.394  22.751  0.00  0.00    +0.000 A 
ATOM      5  C   UNL     1      -6.102  15.268  23.613  0.00  0.00    +0.000 A 
ATOM      6  C   UNL     1      -6.006  16.623  23.341  0.00  0.00    +0.000 A 
ATOM      7  C   UNL     1      -5.322  17.069  22.197  0.00  0.00    +0.000 A 
ATOM      8  C   UNL     1      -4.668  16.181  21.327  0.00  0.00    +0.000 A 
ATOM      9  C   UNL     1      -4.699  14.825  21.631  0.00  0.00    +0.000 A 
ATOM     10  C   UNL     1      -3.825  13.666  20.982  0.00  0.00    +0.000 C 
ATOM     11  C   UNL     1      -4.865  12.647  20.552  0.00  0.00    +0.000 A 
ATOM     12  C   UNL     1      -5.152  12.417  19.208  0.00  0.00    +0.000 A 
ATOM     13  C   UNL     1      -6.472  12.189  18.841  0.00  0.00    +0.000 A 
ATOM     14  C   UNL     1      -7.461  12.175  19.819  0.00  0.00    +0.000 A 
ATOM     15  C   UNL     1      -7.103  12.258  21.164  0.00  0.00    +0.000 A 
ATOM     16  N   UNL     1      -5.805  12.428  21.513  0.00  0.00    +0.000 N 
ENDROOT
BRANCH   1  20
ATOM     17  C   UNL     1       0.041   9.888  22.013  0.00  0.00    +0.000 A 
ATOM     18  C   UNL     1      -0.645  10.194  23.177  0.00  0.00    +0.000 A 
ATOM     19  C   UNL     1      -1.562  11.243  23.195  0.00  0.00    +0.000 A 
ATOM     20  C   UNL     1      -1.861  11.998  22.036  0.00  0.00    +0.000 A 
ATOM     21  C   UNL     1      -1.125  11.715  20.882  0.00  0.00    +0.000 A 
ATOM     22  C   UNL     1      -0.172  10.673  20.879  0.00  0.00    +0.000 A 
BRANCH  17  24
ATOM     23  C   UNL     1       1.319   8.252  20.884  0.00  0.00    +0.000 C 
ATOM     24  O   UNL     1       0.935   8.858  22.114  0.00  0.00    +0.000 OA
ENDBRANCH  17  24
ENDBRANCH   1  20
BRANCH   1  25
ATOM     25  C   UNL     1      -2.080  14.429  22.517  0.00  0.00    +0.000 A 
ATOM     26  C   UNL     1      -2.033  14.845  23.872  0.00  0.00    +0.000 A 
ATOM     27  C   UNL     1      -0.984  15.630  24.353  0.00  0.00    +0.000 A 
ATOM     28  C   UNL     1       0.021  16.046  23.489  0.00  0.00    +0.000 A 
ATOM     29  C   UNL     1      -0.112  15.800  22.123  0.00  0.00    +0.000 A 
ATOM     30  C   UNL     1      -1.167  15.013  21.629  0.00  0.00    +0.000 A 
BRANCH  28  31
ATOM     31  O   UNL     1       1.079  16.680  24.079  0.00  0.00    +0.000 OA
ATOM     32  C   UNL     1       0.743  17.543  25.161  0.00  0.00    +0.000 C 
ENDBRANCH  28  31
ENDBRANCH   1  25
TORSDOF 4
ENDMDL
MODEL 8
REMARK VINA RESULT:      -6.4      2.668      5.491
REMARK  Name = 
REMARK  6 active torsions:
REMARK  status: ('A' for Active; 'I' for Inactive)
REMARK    1  A    between atoms: C_1  and  O_2
REMARK    2  A    between atoms: O_2  and  C_3
REMARK    3  A    between atoms: C_6  and  C_7
REMARK    4  A    between atoms: C_7  and  C_8
REMARK    5  A    between atoms: C_11  and  O_12
REMARK    6  A    between atoms: O_12  and  C_13
REMARK                            x       y       z     vdW  Elec       q    Type
REMARK                         _______ _______ _______ _____ _____    ______ ____
ROOT
ATOM      1  C   UNL     1       0.297  12.702  20.554  0.00  0.00    +0.000 C 
ATOM      2  C   UNL     1       0.536  12.870  18.972  0.00  0.00    +0.000 C 
ATOM      3  C   UNL     1       1.249  14.186  18.588  0.00  0.00    +0.000 C 
ATOM      4  C   UNL     1       0.472  15.287  19.231  0.00  0.00    +0.000 A 
ATOM      5  C   UNL     1      -0.268  16.242  18.553  0.00  0.00    +0.000 A 
ATOM      6  C   UNL     1      -0.948  17.183  19.308  0.00  0.00    +0.000 A 
ATOM      7  C   UNL     1      -0.836  17.181  20.709  0.00  0.00    +0.000 A 
ATOM      8  C   UNL     1      -0.090  16.208  21.396  0.00  0.00    +0.000 A 
ATOM      9  C   UNL     1       0.538  15.218  20.650  0.00  0.00    +0.000 A 
ATOM     10  C   UNL     1       1.195  13.872  21.183  0.00  0.00    +0.000 C 
ATOM     11  C   UNL     1       2.591  13.909  20.591  0.00  0.00    +0.000 A 
ATOM     12  C   UNL     1       3.718  14.114  21.385  0.00  0.00    +0.000 A 
ATOM     13  C   UNL     1       4.748  14.902  20.887  0.00  0.00    +0.000 A 
ATOM     14  C   UNL     1       4.637  15.444  19.610  0.00  0.00    +0.000 A 
ATOM     15  C   UNL     1       3.562  15.085  18.798  0.00  0.00    +0.000 A 
ATOM     16  N   UNL     1       2.590  14.273  19.278  0.00  0.00    +0.000 N 
ENDROOT
BRANCH   1  20
ATOM     17  C   UNL     1       1.007   8.402  21.014  0.00  0.00    +0.000 A 
ATOM     18  C   UNL     1       1.206   9.051  19.806  0.00  0.00    +0.000 A 
ATOM     19  C   UNL     1       0.953  10.417  19.695  0.00  0.00    +0.000 A 
ATOM     20  C   UNL     1       0.534  11.195  20.800  0.00  0.00    +0.000 A 
ATOM     21  C   UNL     1       0.287  10.520  21.999  0.00  0.00    +0.000 A 
ATOM     22  C   UNL     1       0.511   9.129  22.096  0.00  0.00    +0.000 A 
BRANCH  17  24
ATOM     23  C   UNL     1       2.180   6.611  20.014  0.00  0.00    +0.000 C 
ATOM     24  O   UNL     1       1.260   7.058  21.004  0.00  0.00    +0.000 OA
ENDBRANCH  17  24
ENDBRANCH   1  20
BRANCH   1  25
ATOM     25  C   UNL     1      -1.100  13.026  21.207  0.00  0.00    +0.000 A 
ATOM     26  C   UNL     1      -2.235  13.047  20.356  0.00  0.00    +0.000 A 
ATOM     27  C   UNL     1      -3.519  12.824  20.855  0.00  0.00    +0.000 A 
ATOM     28  C   UNL     1      -3.705  12.608  22.214  0.00  0.00    +0.000 A 
ATOM     29  C   UNL     1      -2.625  12.769  23.083  0.00  0.00    +0.000 A 
ATOM     30  C   UNL     1      -1.329  12.998  22.590  0.00  0.00    +0.000 A 
BRANCH  28  31
ATOM     31  O   UNL     1      -4.970  12.250  22.586  0.00  0.00    +0.000 OA
ATOM     32  C   UNL     1      -6.000  12.632  21.678  0.00  0.00    +0.000 C 
ENDBRANCH  28  31
ENDBRANCH   1  25
TORSDOF 4
ENDMDL
MODEL 9
REMARK VINA RESULT:      -6.4      2.893      6.012
REMARK  Name = 
REMARK  6 active torsions:
REMARK  status: ('A' for Active; 'I' for Inactive)
REMARK    1  A    between atoms: C_1  and  O_2
REMARK    2  A    between atoms: O_2  and  C_3
REMARK    3  A    between atoms: C_6  and  C_7
REMARK    4  A    between atoms: C_7  and  C_8
REMARK    5  A    between atoms: C_11  and  O_12
REMARK    6  A    between atoms: O_12  and  C_13
REMARK                            x       y       z     vdW  Elec       q    Type
REMARK                         _______ _______ _______ _____ _____    ______ ____
ROOT
ATOM      1  C   UNL     1      -1.390  12.838  20.375  0.00  0.00    +0.000 C 
ATOM      2  C   UNL     1      -1.249  11.952  19.039  0.00  0.00    +0.000 C 
ATOM      3  C   UNL     1       0.067  11.143  18.968  0.00  0.00    +0.000 C 
ATOM      4  C   UNL     1       1.172  12.119  19.199  0.00  0.00    +0.000 A 
ATOM      5  C   UNL     1       2.108  12.502  18.254  0.00  0.00    +0.000 A 
ATOM      6  C   UNL     1       3.057  13.438  18.631  0.00  0.00    +0.000 A 
ATOM      7  C   UNL     1       3.081  13.930  19.948  0.00  0.00    +0.000 A 
ATOM      8  C   UNL     1       2.127  13.546  20.905  0.00  0.00    +0.000 A 
ATOM      9  C   UNL     1       1.129  12.661  20.514  0.00  0.00    +0.000 A 
ATOM     10  C   UNL     1      -0.203  12.291  21.302  0.00  0.00    +0.000 C 
ATOM     11  C   UNL     1      -0.164  10.775  21.356  0.00  0.00    +0.000 A 
ATOM     12  C   UNL     1       0.065  10.090  22.548  0.00  0.00    +0.000 A 
ATOM     13  C   UNL     1       0.852   8.947  22.517  0.00  0.00    +0.000 A 
ATOM     14  C   UNL     1       1.370   8.507  21.304  0.00  0.00    +0.000 A 
ATOM     15  C   UNL     1       0.988   9.137  20.120  0.00  0.00    +0.000 A 
ATOM     16  N   UNL     1       0.176  10.220  20.159  0.00  0.00    +0.000 N 
ENDROOT
BRANCH   1  20
ATOM     17  C   UNL     1      -5.696  12.547  21.138  0.00  0.00    +0.000 A 
ATOM     18  C   UNL     1      -5.180  12.561  19.852  0.00  0.00    +0.000 A 
ATOM     19  C   UNL     1      -3.806  12.671  19.650  0.00  0.00    +0.000 A 
ATOM     20  C   UNL     1      -2.891  12.727  20.728  0.00  0.00    +0.000 A 
ATOM     21  C   UNL     1      -3.426  12.766  22.018  0.00  0.00    +0.000 A 
ATOM     22  C   UNL     1      -4.822  12.689  22.216  0.00  0.00    +0.000 A 
BRANCH  17  24
ATOM     23  C   UNL     1      -7.622  11.210  20.845  0.00  0.00    +0.000 C 
ATOM     24  O   UNL     1      -7.059  12.461  21.221  0.00  0.00    +0.000 OA
ENDBRANCH  17  24
ENDBRANCH   1  20
BRANCH   1  25
ATOM     25  C   UNL     1      -1.067  14.380  20.368  0.00  0.00    +0.000 A 
ATOM     26  C   UNL     1      -0.649  14.960  19.142  0.00  0.00    +0.000 A 
ATOM     27  C   UNL     1      -0.819  16.321  18.890  0.00  0.00    +0.000 A 
ATOM     28  C   UNL     1      -1.375  17.141  19.864  0.00  0.00    +0.000 A 
ATOM     29  C   UNL     1      -1.616  16.620  21.135  0.00  0.00    +0.000 A 
ATOM     30  C   UNL     1      -1.445  15.250  21.400  0.00  0.00    +0.000 A 
BRANCH  28  31
ATOM     31  O   UNL     1      -1.640  18.424  19.472  0.00  0.00    +0.000 OA
ATOM     32  C   UNL     1      -1.700  18.629  18.064  0.00  0.00    +0.000 C 
ENDBRANCH  28  31
ENDBRANCH   1  25
TORSDOF 4
ENDMDL
