MODEL 1
REMARK VINA RESULT:      -8.3      0.000      0.000
REMARK  Name = 
REMARK  9 active torsions:
REMARK  status: ('A' for Active; 'I' for Inactive)
REMARK    1  A    between atoms: C_1  and  O_2
REMARK    2  A    between atoms: O_2  and  C_3
REMARK    3  A    between atoms: C_5  and  N_6
REMARK    4  A    between atoms: N_9  and  C_10
REMARK    5  A    between atoms: C_15  and  N_16
REMARK    6  A    between atoms: C_22  and  O_23
REMARK    7  A    between atoms: O_23  and  C_24
REMARK    8  A    between atoms: C_29  and  N_30
REMARK    9  A    between atoms: C_31  and  C_32
REMARK                            x       y       z     vdW  Elec       q    Type
REMARK                         _______ _______ _______ _____ _____    ______ ____
ROOT
ATOM      1  N   UNL     1       2.888   7.646  17.804  0.00  0.00    +0.000 N 
ATOM      2  C   UNL     1       2.847   6.259  17.643  0.00  0.00    +0.000 A 
ATOM      3  N   UNL     1       1.717   5.555  17.742  0.00  0.00    +0.000 NA
ATOM      4  C   UNL     1       1.768   4.216  17.754  0.00  0.00    +0.000 A 
ATOM      5  C   UNL     1       2.936   3.524  17.646  0.00  0.00    +0.000 A 
ATOM      6 CL   UNL     1       2.966   1.817  17.758  0.00  0.00    +0.000 Cl
ATOM      7  C   UNL     1       4.040   4.316  17.419  0.00  0.00    +0.000 A 
ATOM      8  N   UNL     1       4.024   5.670  17.414  0.00  0.00    +0.000 NA
ATOM      9  H   UNL     1       3.868   7.888  17.877  0.00  0.00    +0.000 HD
ENDROOT
BRANCH   1  15
ATOM     10  C   UNL     1       1.807   8.235  19.984  0.00  0.00    +0.000 A 
ATOM     11  C   UNL     1       1.032   9.146  20.705  0.00  0.00    +0.000 A 
ATOM     12  C   UNL     1       0.325  10.169  20.080  0.00  0.00    +0.000 A 
ATOM     13  C   UNL     1       0.506  10.340  18.707  0.00  0.00    +0.000 A 
ATOM     14  C   UNL     1       1.354   9.496  17.985  0.00  0.00    +0.000 A 
ATOM     15  C   UNL     1       2.044   8.442  18.612  0.00  0.00    +0.000 A 
BRANCH  12  16
ATOM     16  N   UNL     1      -0.631  10.911  20.755  0.00  0.00    +0.000 N 
ATOM     17  C   UNL     1      -0.406  11.210  22.179  0.00  0.00    +0.000 C 
ATOM     18  C   UNL     1      -1.761  11.512  22.840  0.00  0.00    +0.000 C 
ATOM     19  N   UNL     1      -2.471  12.634  22.184  0.00  0.00    +0.000 NA
ATOM     20  C   UNL     1      -3.790  12.796  22.789  0.00  0.00    +0.000 C 
ATOM     21  C   UNL     1      -2.599  12.370  20.726  0.00  0.00    +0.000 C 
ATOM     22  C   UNL     1      -1.252  12.034  20.038  0.00  0.00    +0.000 C 
ENDBRANCH  12  16
BRANCH  10  24
ATOM     23  C   UNL     1       1.373   6.129  20.997  0.00  0.00    +0.000 C 
ATOM     24  O   UNL     1       2.310   7.117  20.593  0.00  0.00    +0.000 OA
ENDBRANCH  10  24
ENDBRANCH   1  15
BRANCH   7  25
ATOM     25  O   UNL     1       5.230   3.674  17.148  0.00  0.00    +0.000 OA
BRANCH  25  26
ATOM     26  C   UNL     1       5.975   4.006  16.035  0.00  0.00    +0.000 A 
ATOM     27  C   UNL     1       5.486   3.378  14.876  0.00  0.00    +0.000 A 
ATOM     28  C   UNL     1       5.964   3.729  13.617  0.00  0.00    +0.000 A 
ATOM     29  C   UNL     1       6.925   4.723  13.508  0.00  0.00    +0.000 A 
ATOM     30  C   UNL     1       7.424   5.350  14.655  0.00  0.00    +0.000 A 
ATOM     31  C   UNL     1       6.967   5.009  15.937  0.00  0.00    +0.000 A 
BRANCH  31  32
ATOM     32  N   UNL     1       7.519   5.636  17.083  0.00  0.00    +0.000 N 
ATOM     33  C   UNL     1       7.400   6.961  17.467  0.00  0.00    +0.000 C 
ATOM     34  C   UNL     1       8.271   7.354  18.630  0.00  0.00    +0.000 C 
ATOM     35  O   UNL     1       6.636   7.788  16.969  0.00  0.00    +0.000 OA
ATOM     36  H   UNL     1       8.142   5.062  17.638  0.00  0.00    +0.000 HD
ENDBRANCH  31  32
ENDBRANCH  25  26
ENDBRANCH   7  25
TORSDOF 6
ENDMDL
MODEL 2
REMARK VINA RESULT:      -8.0      2.058      3.553
REMARK  Name = 
REMARK  9 active torsions:
REMARK  status: ('A' for Active; 'I' for Inactive)
REMARK    1  A    between atoms: C_1  and  O_2
REMARK    2  A    between atoms: O_2  and  C_3
REMARK    3  A    between atoms: C_5  and  N_6
REMARK    4  A    between atoms: N_9  and  C_10
REMARK    5  A    between atoms: C_15  and  N_16
REMARK    6  A    between atoms: C_22  and  O_23
REMARK    7  A    between atoms: O_23  and  C_24
REMARK    8  A    between atoms: C_29  and  N_30
REMARK    9  A    between atoms: C_31  and  C_32
REMARK                            x       y       z     vdW  Elec       q    Type
REMARK                         _______ _______ _______ _____ _____    ______ ____
ROOT
ATOM      1  N   UNL     1       1.821   8.447  19.271  0.00  0.00    +0.000 N 
ATOM      2  C   UNL     1       2.102   7.116  19.588  0.00  0.00    +0.000 A 
ATOM      3  N   UNL     1       1.216   6.317  20.188  0.00  0.00    +0.000 NA
ATOM      4  C   UNL     1       1.599   5.109  20.625  0.00  0.00    +0.000 A 
ATOM      5  C   UNL     1       2.868   4.640  20.466  0.00  0.00    +0.000 A 
ATOM      6 CL   UNL     1       3.341   3.132  21.121  0.00  0.00    +0.000 Cl
ATOM      7  C   UNL     1       3.686   5.467  19.728  0.00  0.00    +0.000 A 
ATOM      8  N   UNL     1       3.333   6.697  19.284  0.00  0.00    +0.000 NA
ATOM      9  H   UNL     1       2.709   8.864  19.017  0.00  0.00    +0.000 HD
ENDROOT
BRANCH   1  15
ATOM     10  C   UNL     1      -0.082  10.072  19.354  0.00  0.00    +0.000 A 
ATOM     11  C   UNL     1      -0.943  10.836  20.144  0.00  0.00    +0.000 A 
ATOM     12  C   UNL     1      -0.710  11.042  21.501  0.00  0.00    +0.000 A 
ATOM     13  C   UNL     1       0.354  10.357  22.089  0.00  0.00    +0.000 A 
ATOM     14  C   UNL     1       1.169   9.512  21.332  0.00  0.00    +0.000 A 
ATOM     15  C   UNL     1       0.953   9.329  19.954  0.00  0.00    +0.000 A 
BRANCH  12  16
ATOM     16  N   UNL     1      -1.414  11.990  22.226  0.00  0.00    +0.000 N 
ATOM     17  C   UNL     1      -2.227  11.536  23.367  0.00  0.00    +0.000 C 
ATOM     18  C   UNL     1      -3.314  12.586  23.647  0.00  0.00    +0.000 C 
ATOM     19  N   UNL     1      -2.746  13.927  23.920  0.00  0.00    +0.000 NA
ATOM     20  C   UNL     1      -3.829  14.894  24.071  0.00  0.00    +0.000 C 
ATOM     21  C   UNL     1      -1.842  14.330  22.810  0.00  0.00    +0.000 C 
ATOM     22  C   UNL     1      -0.753  13.277  22.485  0.00  0.00    +0.000 C 
ENDBRANCH  12  16
BRANCH  10  24
ATOM     23  C   UNL     1      -1.530  10.140  17.471  0.00  0.00    +0.000 C 
ATOM     24  O   UNL     1      -0.211  10.067  17.991  0.00  0.00    +0.000 OA
ENDBRANCH  10  24
ENDBRANCH   1  15
BRANCH   7  25
ATOM     25  O   UNL     1       4.935   4.986  19.400  0.00  0.00    +0.000 OA
BRANCH  25  26
ATOM     26  C   UNL     1       5.317   4.852  18.080  0.00  0.00    +0.000 A 
ATOM     27  C   UNL     1       6.235   5.848  17.702  0.00  0.00    +0.000 A 
ATOM     28  C   UNL     1       6.898   5.782  16.481  0.00  0.00    +0.000 A 
ATOM     29  C   UNL     1       6.657   4.709  15.634  0.00  0.00    +0.000 A 
ATOM     30  C   UNL     1       5.742   3.717  15.997  0.00  0.00    +0.000 A 
ATOM     31  C   UNL     1       5.052   3.763  17.218  0.00  0.00    +0.000 A 
BRANCH  31  32
ATOM     32  N   UNL     1       4.101   2.762  17.542  0.00  0.00    +0.000 N 
ATOM     33  C   UNL     1       2.720   2.861  17.514  0.00  0.00    +0.000 C 
ATOM     34  C   UNL     1       1.999   1.681  18.107  0.00  0.00    +0.000 C 
ATOM     35  O   UNL     1       2.076   3.790  17.026  0.00  0.00    +0.000 OA
ATOM     36  H   UNL     1       4.482   1.901  17.917  0.00  0.00    +0.000 HD
ENDBRANCH  31  32
ENDBRANCH  25  26
ENDBRANCH   7  25
TORSDOF 6
ENDMDL
MODEL 3
REMARK VINA RESULT:      -7.9      4.164     10.694
REMARK  Name = 
REMARK  9 active torsions:
REMARK  status: ('A' for Active; 'I' for Inactive)
REMARK    1  A    between atoms: C_1  and  O_2
REMARK    2  A    between atoms: O_2  and  C_3
REMARK    3  A    between atoms: C_5  and  N_6
REMARK    4  A    between atoms: N_9  and  C_10
REMARK    5  A    between atoms: C_15  and  N_16
REMARK    6  A    between atoms: C_22  and  O_23
REMARK    7  A    between atoms: O_23  and  C_24
REMARK    8  A    between atoms: C_29  and  N_30
REMARK    9  A    between atoms: C_31  and  C_32
REMARK                            x       y       z     vdW  Elec       q    Type
REMARK                         _______ _______ _______ _____ _____    ______ ____
ROOT
ATOM      1  N   UNL     1      -0.035  10.945  20.039  0.00  0.00    +0.000 N 
ATOM      2  C   UNL     1      -0.836  11.395  21.091  0.00  0.00    +0.000 A 
ATOM      3  N   UNL     1      -0.613  11.055  22.362  0.00  0.00    +0.000 NA
ATOM      4  C   UNL     1      -1.514  11.372  23.303  0.00  0.00    +0.000 A 
ATOM      5  C   UNL     1      -2.658  12.056  23.023  0.00  0.00    +0.000 A 
ATOM      6 CL   UNL     1      -3.826  12.359  24.235  0.00  0.00    +0.000 Cl
ATOM      7  C   UNL     1      -2.754  12.481  21.715  0.00  0.00    +0.000 A 
ATOM      8  N   UNL     1      -1.868  12.167  20.741  0.00  0.00    +0.000 NA
ATOM      9  H   UNL     1      -0.533  11.182  19.190  0.00  0.00    +0.000 HD
ENDROOT
BRANCH   1  15
ATOM     10  C   UNL     1       1.501   9.336  18.889  0.00  0.00    +0.000 A 
ATOM     11  C   UNL     1       2.233   8.150  18.965  0.00  0.00    +0.000 A 
ATOM     12  C   UNL     1       2.042   7.230  19.992  0.00  0.00    +0.000 A 
ATOM     13  C   UNL     1       1.174   7.582  21.026  0.00  0.00    +0.000 A 
ATOM     14  C   UNL     1       0.505   8.809  21.015  0.00  0.00    +0.000 A 
ATOM     15  C   UNL     1       0.675   9.724  19.960  0.00  0.00    +0.000 A 
BRANCH  12  16
ATOM     16  N   UNL     1       2.579   5.954  19.937  0.00  0.00    +0.000 N 
ATOM     17  C   UNL     1       1.701   4.812  20.245  0.00  0.00    +0.000 C 
ATOM     18  C   UNL     1       2.573   3.621  20.675  0.00  0.00    +0.000 C 
ATOM     19  N   UNL     1       3.563   3.245  19.639  0.00  0.00    +0.000 NA
ATOM     20  C   UNL     1       4.425   2.183  20.152  0.00  0.00    +0.000 C 
ATOM     21  C   UNL     1       4.374   4.431  19.257  0.00  0.00    +0.000 C 
ATOM     22  C   UNL     1       3.521   5.658  18.848  0.00  0.00    +0.000 C 
ENDBRANCH  12  16
BRANCH  10  24
ATOM     23  C   UNL     1       2.363  11.275  17.818  0.00  0.00    +0.000 C 
ATOM     24  O   UNL     1       1.551  10.112  17.762  0.00  0.00    +0.000 OA
ENDBRANCH  10  24
ENDBRANCH   1  15
BRANCH   7  25
ATOM     25  O   UNL     1      -3.811  13.308  21.399  0.00  0.00    +0.000 OA
BRANCH  25  26
ATOM     26  C   UNL     1      -4.945  12.806  20.795  0.00  0.00    +0.000 A 
ATOM     27  C   UNL     1      -6.061  12.875  21.648  0.00  0.00    +0.000 A 
ATOM     28  C   UNL     1      -7.341  12.608  21.173  0.00  0.00    +0.000 A 
ATOM     29  C   UNL     1      -7.516  12.284  19.835  0.00  0.00    +0.000 A 
ATOM     30  C   UNL     1      -6.412  12.206  18.979  0.00  0.00    +0.000 A 
ATOM     31  C   UNL     1      -5.109  12.461  19.433  0.00  0.00    +0.000 A 
BRANCH  31  32
ATOM     32  N   UNL     1      -4.006  12.336  18.551  0.00  0.00    +0.000 N 
ATOM     33  C   UNL     1      -3.557  11.195  17.908  0.00  0.00    +0.000 C 
ATOM     34  C   UNL     1      -2.241  11.358  17.197  0.00  0.00    +0.000 C 
ATOM     35  O   UNL     1      -4.154  10.120  17.851  0.00  0.00    +0.000 OA
ATOM     36  H   UNL     1      -3.433  13.165  18.448  0.00  0.00    +0.000 HD
ENDBRANCH  31  32
ENDBRANCH  25  26
ENDBRANCH   7  25
TORSDOF 6
ENDMDL
MODEL 4
REMARK VINA RESULT:      -7.7      1.306      1.882
REMARK  Name = 
REMARK  9 active torsions:
REMARK  status: ('A' for Active; 'I' for Inactive)
REMARK    1  A    between atoms: C_1  and  O_2
REMARK    2  A    between atoms: O_2  and  C_3
REMARK    3  A    between atoms: C_5  and  N_6
REMARK    4  A    between atoms: N_9  and  C_10
REMARK    5  A    between atoms: C_15  and  N_16
REMARK    6  A    between atoms: C_22  and  O_23
REMARK    7  A    between atoms: O_23  and  C_24
REMARK    8  A    between atoms: C_29  and  N_30
REMARK    9  A    between atoms: C_31  and  C_32
REMARK                            x       y       z     vdW  Elec       q    Type
REMARK                         _______ _______ _______ _____ _____    ______ ____
ROOT
ATOM      1  N   UNL     1       2.695   8.082  18.279  0.00  0.00    +0.000 N 
ATOM      2  C   UNL     1       2.821   6.694  18.367  0.00  0.00    +0.000 A 
ATOM      3  N   UNL     1       1.786   5.892  18.627  0.00  0.00    +0.000 NA
ATOM      4  C   UNL     1       1.998   4.591  18.873  0.00  0.00    +0.000 A 
ATOM      5  C   UNL     1       3.240   4.033  18.852  0.00  0.00    +0.000 A 
ATOM      6 CL   UNL     1       3.478   2.390  19.263  0.00  0.00    +0.000 Cl
ATOM      7  C   UNL     1       4.238   4.895  18.452  0.00  0.00    +0.000 A 
ATOM      8  N   UNL     1       4.058   6.215  18.209  0.00  0.00    +0.000 NA
ATOM      9  H   UNL     1       3.639   8.447  18.276  0.00  0.00    +0.000 HD
ENDROOT
BRANCH   1  15
ATOM     10  C   UNL     1       1.434  10.223  18.592  0.00  0.00    +0.000 A 
ATOM     11  C   UNL     1       0.430  10.907  19.280  0.00  0.00    +0.000 A 
ATOM     12  C   UNL     1      -0.138  10.404  20.447  0.00  0.00    +0.000 A 
ATOM     13  C   UNL     1       0.238   9.124  20.853  0.00  0.00    +0.000 A 
ATOM     14  C   UNL     1       1.171   8.384  20.122  0.00  0.00    +0.000 A 
ATOM     15  C   UNL     1       1.769   8.906  18.960  0.00  0.00    +0.000 A 
BRANCH  12  16
ATOM     16  N   UNL     1      -0.945  11.185  21.259  0.00  0.00    +0.000 N 
ATOM     17  C   UNL     1      -0.779  11.077  22.719  0.00  0.00    +0.000 C 
ATOM     18  C   UNL     1      -2.076  11.546  23.398  0.00  0.00    +0.000 C 
ATOM     19  N   UNL     1      -2.440  12.931  23.022  0.00  0.00    +0.000 NA
ATOM     20  C   UNL     1      -3.731  13.274  23.615  0.00  0.00    +0.000 C 
ATOM     21  C   UNL     1      -2.500  13.056  21.542  0.00  0.00    +0.000 C 
ATOM     22  C   UNL     1      -1.218  12.563  20.826  0.00  0.00    +0.000 C 
ENDBRANCH  12  16
BRANCH  10  24
ATOM     23  C   UNL     1       2.611  12.145  17.836  0.00  0.00    +0.000 C 
ATOM     24  O   UNL     1       2.124  10.835  17.581  0.00  0.00    +0.000 OA
ENDBRANCH  10  24
ENDBRANCH   1  15
BRANCH   7  25
ATOM     25  O   UNL     1       5.493   4.359  18.261  0.00  0.00    +0.000 OA
BRANCH  25  26
ATOM     26  C   UNL     1       6.109   4.424  17.028  0.00  0.00    +0.000 A 
ATOM     27  C   UNL     1       5.521   3.540  16.106  0.00  0.00    +0.000 A 
ATOM     28  C   UNL     1       5.855   3.587  14.757  0.00  0.00    +0.000 A 
ATOM     29  C   UNL     1       6.771   4.531  14.317  0.00  0.00    +0.000 A 
ATOM     30  C   UNL     1       7.368   5.411  15.225  0.00  0.00    +0.000 A 
ATOM     31  C   UNL     1       7.056   5.380  16.593  0.00  0.00    +0.000 A 
BRANCH  31  32
ATOM     32  N   UNL     1       7.706   6.260  17.495  0.00  0.00    +0.000 N 
ATOM     33  C   UNL     1       7.560   7.634  17.595  0.00  0.00    +0.000 C 
ATOM     34  C   UNL     1       8.541   8.298  18.522  0.00  0.00    +0.000 C 
ATOM     35  O   UNL     1       6.698   8.308  17.032  0.00  0.00    +0.000 OA
ATOM     36  H   UNL     1       8.422   5.841  18.076  0.00  0.00    +0.000 HD
ENDBRANCH  31  32
ENDBRANCH  25  26
ENDBRANCH   7  25
TORSDOF 6
ENDMDL
MODEL 5
REMARK VINA RESULT:      -7.7      2.992      5.281
REMARK  Name = 
REMARK  9 active torsions:
REMARK  status: ('A' for Active; 'I' for Inactive)
REMARK    1  A    between atoms: C_1  and  O_2
REMARK    2  A    between atoms: O_2  and  C_3
REMARK    3  A    between atoms: C_5  and  N_6
REMARK    4  A    between atoms: N_9  and  C_10
REMARK    5  A    between atoms: C_15  and  N_16
REMARK    6  A    between atoms: C_22  and  O_23
REMARK    7  A    between atoms: O_23  and  C_24
REMARK    8  A    between atoms: C_29  and  N_30
REMARK    9  A    between atoms: C_31  and  C_32
REMARK                            x       y       z     vdW  Elec       q    Type
REMARK                         _______ _______ _______ _____ _____    ______ ____
ROOT
ATOM      1  N   UNL     1       0.297   9.729  20.412  0.00  0.00    +0.000 N 
ATOM      2  C   UNL     1       1.279   9.188  19.579  0.00  0.00    +0.000 A 
ATOM      3  N   UNL     1       1.602   9.728  18.402  0.00  0.00    +0.000 NA
ATOM      4  C   UNL     1       2.422   9.069  17.571  0.00  0.00    +0.000 A 
ATOM      5  C   UNL     1       2.968   7.861  17.884  0.00  0.00    +0.000 A 
ATOM      6 CL   UNL     1       3.934   7.010  16.758  0.00  0.00    +0.000 Cl
ATOM      7  C   UNL     1       2.690   7.432  19.163  0.00  0.00    +0.000 A 
ATOM      8  N   UNL     1       1.856   8.067  20.021  0.00  0.00    +0.000 NA
ATOM      9  H   UNL     1       0.118   9.029  21.122  0.00  0.00    +0.000 HD
ENDROOT
BRANCH   1  15
ATOM     10  C   UNL     1      -1.415  11.526  20.745  0.00  0.00    +0.000 A 
ATOM     11  C   UNL     1      -2.496  12.233  20.216  0.00  0.00    +0.000 A 
ATOM     12  C   UNL     1      -3.170  11.806  19.075  0.00  0.00    +0.000 A 
ATOM     13  C   UNL     1      -2.656  10.703  18.393  0.00  0.00    +0.000 A 
ATOM     14  C   UNL     1      -1.516  10.040  18.855  0.00  0.00    +0.000 A 
ATOM     15  C   UNL     1      -0.855  10.453  20.026  0.00  0.00    +0.000 A 
BRANCH  12  16
ATOM     16  N   UNL     1      -4.383  12.358  18.695  0.00  0.00    +0.000 N 
ATOM     17  C   UNL     1      -5.131  11.714  17.601  0.00  0.00    +0.000 C 
ATOM     18  C   UNL     1      -6.086  12.748  16.983  0.00  0.00    +0.000 C 
ATOM     19  N   UNL     1      -7.020  13.320  17.979  0.00  0.00    +0.000 NA
ATOM     20  C   UNL     1      -7.823  14.366  17.352  0.00  0.00    +0.000 C 
ATOM     21  C   UNL     1      -6.258  13.872  19.131  0.00  0.00    +0.000 C 
ATOM     22  C   UNL     1      -5.265  12.861  19.757  0.00  0.00    +0.000 C 
ENDBRANCH  12  16
BRANCH  10  24
ATOM     23  C   UNL     1      -1.364  13.058  22.562  0.00  0.00    +0.000 C 
ATOM     24  O   UNL     1      -0.915  11.843  21.979  0.00  0.00    +0.000 OA
ENDBRANCH  10  24
ENDBRANCH   1  15
BRANCH   7  25
ATOM     25  O   UNL     1       3.333   6.293  19.598  0.00  0.00    +0.000 OA
BRANCH  25  26
ATOM     26  C   UNL     1       2.725   5.058  19.507  0.00  0.00    +0.000 A 
ATOM     27  C   UNL     1       1.616   4.961  20.366  0.00  0.00    +0.000 A 
ATOM     28  C   UNL     1       0.744   3.880  20.288  0.00  0.00    +0.000 A 
ATOM     29  C   UNL     1       0.968   2.894  19.337  0.00  0.00    +0.000 A 
ATOM     30  C   UNL     1       2.071   2.977  18.482  0.00  0.00    +0.000 A 
ATOM     31  C   UNL     1       2.972   4.051  18.545  0.00  0.00    +0.000 A 
BRANCH  31  32
ATOM     32  N   UNL     1       4.102   4.088  17.690  0.00  0.00    +0.000 N 
ATOM     33  C   UNL     1       5.438   4.141  18.050  0.00  0.00    +0.000 C 
ATOM     34  C   UNL     1       6.384   4.372  16.903  0.00  0.00    +0.000 C 
ATOM     35  O   UNL     1       5.883   3.981  19.187  0.00  0.00    +0.000 OA
ATOM     36  H   UNL     1       3.900   4.170  16.701  0.00  0.00    +0.000 HD
ENDBRANCH  31  32
ENDBRANCH  25  26
ENDBRANCH   7  25
TORSDOF 6
ENDMDL
MODEL 6
REMARK VINA RESULT:      -7.7      1.734      2.296
REMARK  Name = 
REMARK  9 active torsions:
REMARK  status: ('A' for Active; 'I' for Inactive)
REMARK    1  A    between atoms: C_1  and  O_2
REMARK    2  A    between atoms: O_2  and  C_3
REMARK    3  A    between atoms: C_5  and  N_6
REMARK    4  A    between atoms: N_9  and  C_10
REMARK    5  A    between atoms: C_15  and  N_16
REMARK    6  A    between atoms: C_22  and  O_23
REMARK    7  A    between atoms: O_23  and  C_24
REMARK    8  A    between atoms: C_29  and  N_30
REMARK    9  A    between atoms: C_31  and  C_32
REMARK                            x       y       z     vdW  Elec       q    Type
REMARK                         _______ _______ _______ _____ _____    ______ ____
ROOT
ATOM      1  N   UNL     1       2.213   8.045  19.002  0.00  0.00    +0.000 N 
ATOM      2  C   UNL     1       2.462   6.698  19.274  0.00  0.00    +0.000 A 
ATOM      3  N   UNL     1       1.547   5.892  19.817  0.00  0.00    +0.000 NA
ATOM      4  C   UNL     1       1.899   4.661  20.216  0.00  0.00    +0.000 A 
ATOM      5  C   UNL     1       3.163   4.176  20.073  0.00  0.00    +0.000 A 
ATOM      6 CL   UNL     1       3.593   2.636  20.679  0.00  0.00    +0.000 Cl
ATOM      7  C   UNL     1       4.015   5.017  19.390  0.00  0.00    +0.000 A 
ATOM      8  N   UNL     1       3.695   6.269  18.986  0.00  0.00    +0.000 NA
ATOM      9  H   UNL     1       3.114   8.457  18.789  0.00  0.00    +0.000 HD
ENDROOT
BRANCH   1  15
ATOM     10  C   UNL     1       0.301   9.658  19.107  0.00  0.00    +0.000 A 
ATOM     11  C   UNL     1      -0.563  10.408  19.907  0.00  0.00    +0.000 A 
ATOM     12  C   UNL     1      -0.329  10.601  21.265  0.00  0.00    +0.000 A 
ATOM     13  C   UNL     1       0.740   9.916  21.844  0.00  0.00    +0.000 A 
ATOM     14  C   UNL     1       1.559   9.084  21.076  0.00  0.00    +0.000 A 
ATOM     15  C   UNL     1       1.341   8.915  19.696  0.00  0.00    +0.000 A 
BRANCH  12  16
ATOM     16  N   UNL     1      -1.037  11.538  22.001  0.00  0.00    +0.000 N 
ATOM     17  C   UNL     1      -1.694  11.098  23.244  0.00  0.00    +0.000 C 
ATOM     18  C   UNL     1      -2.834  12.077  23.571  0.00  0.00    +0.000 C 
ATOM     19  N   UNL     1      -2.357  13.472  23.707  0.00  0.00    +0.000 NA
ATOM     20  C   UNL     1      -3.498  14.360  23.911  0.00  0.00    +0.000 C 
ATOM     21  C   UNL     1      -1.601  13.871  22.490  0.00  0.00    +0.000 C 
ATOM     22  C   UNL     1      -0.464  12.886  22.117  0.00  0.00    +0.000 C 
ENDBRANCH  12  16
BRANCH  10  24
ATOM     23  C   UNL     1      -1.137   9.875  17.226  0.00  0.00    +0.000 C 
ATOM     24  O   UNL     1       0.169   9.667  17.744  0.00  0.00    +0.000 OA
ENDBRANCH  10  24
ENDBRANCH   1  15
BRANCH   7  25
ATOM     25  O   UNL     1       5.265   4.527  19.076  0.00  0.00    +0.000 OA
BRANCH  25  26
ATOM     26  C   UNL     1       5.717   4.527  17.772  0.00  0.00    +0.000 A 
ATOM     27  C   UNL     1       4.980   3.639  16.968  0.00  0.00    +0.000 A 
ATOM     28  C   UNL     1       5.137   3.629  15.586  0.00  0.00    +0.000 A 
ATOM     29  C   UNL     1       6.023   4.519  14.996  0.00  0.00    +0.000 A 
ATOM     30  C   UNL     1       6.766   5.402  15.787  0.00  0.00    +0.000 A 
ATOM     31  C   UNL     1       6.635   5.427  17.184  0.00  0.00    +0.000 A 
BRANCH  31  32
ATOM     32  N   UNL     1       7.429   6.307  17.961  0.00  0.00    +0.000 N 
ATOM     33  C   UNL     1       7.595   7.672  17.797  0.00  0.00    +0.000 C 
ATOM     34  C   UNL     1       8.662   8.279  18.666  0.00  0.00    +0.000 C 
ATOM     35  O   UNL     1       6.931   8.392  17.050  0.00  0.00    +0.000 OA
ATOM     36  H   UNL     1       8.007   5.866  18.667  0.00  0.00    +0.000 HD
ENDBRANCH  31  32
ENDBRANCH  25  26
ENDBRANCH   7  25
TORSDOF 6
ENDMDL
MODEL 7
REMARK VINA RESULT:      -7.6      4.251     11.369
REMARK  Name = 
REMARK  9 active torsions:
REMARK  status: ('A' for Active; 'I' for Inactive)
REMARK    1  A    between atoms: C_1  and  O_2
REMARK    2  A    between atoms: O_2  and  C_3
REMARK    3  A    between atoms: C_5  and  N_6
REMARK    4  A    between atoms: N_9  and  C_10
REMARK    5  A    between atoms: C_15  and  N_16
REMARK    6  A    between atoms: C_22  and  O_23
REMARK    7  A    between atoms: O_23  and  C_24
REMARK    8  A    between atoms: C_29  and  N_30
REMARK    9  A    between atoms: C_31  and  C_32
REMARK                            x       y       z     vdW  Elec       q    Type
REMARK                         _______ _______ _______ _____ _____    ______ ____
ROOT
ATOM      1  N   UNL     1      -0.154  10.985  20.027  0.00  0.00    +0.000 N 
ATOM      2  C   UNL     1      -0.954  11.449  21.074  0.00  0.00    +0.000 A 
ATOM      3  N   UNL     1      -0.722  11.135  22.351  0.00  0.00    +0.000 NA
ATOM      4  C   UNL     1      -1.621  11.462  23.290  0.00  0.00    +0.000 A 
ATOM      5  C   UNL     1      -2.772  12.130  23.003  0.00  0.00    +0.000 A 
ATOM      6 CL   UNL     1      -3.936  12.447  24.215  0.00  0.00    +0.000 Cl
ATOM      7  C   UNL     1      -2.878  12.530  21.688  0.00  0.00    +0.000 A 
ATOM      8  N   UNL     1      -1.995  12.205  20.715  0.00  0.00    +0.000 NA
ATOM      9  H   UNL     1      -0.659  11.201  19.176  0.00  0.00    +0.000 HD
ENDROOT
BRANCH   1  15
ATOM     10  C   UNL     1       1.422   9.386  18.919  0.00  0.00    +0.000 A 
ATOM     11  C   UNL     1       2.160   8.205  19.015  0.00  0.00    +0.000 A 
ATOM     12  C   UNL     1       1.949   7.285  20.038  0.00  0.00    +0.000 A 
ATOM     13  C   UNL     1       1.053   7.632  21.049  0.00  0.00    +0.000 A 
ATOM     14  C   UNL     1       0.375   8.854  21.019  0.00  0.00    +0.000 A 
ATOM     15  C   UNL     1       0.565   9.769  19.968  0.00  0.00    +0.000 A 
BRANCH  12  16
ATOM     16  N   UNL     1       2.496   6.012  19.998  0.00  0.00    +0.000 N 
ATOM     17  C   UNL     1       1.641   4.872  20.371  0.00  0.00    +0.000 C 
ATOM     18  C   UNL     1       2.540   3.701  20.800  0.00  0.00    +0.000 C 
ATOM     19  N   UNL     1       3.494   3.305  19.739  0.00  0.00    +0.000 NA
ATOM     20  C   UNL     1       4.385   2.265  20.248  0.00  0.00    +0.000 C 
ATOM     21  C   UNL     1       4.279   4.487  19.294  0.00  0.00    +0.000 C 
ATOM     22  C   UNL     1       3.399   5.694  18.883  0.00  0.00    +0.000 C 
ENDBRANCH  12  16
BRANCH  10  24
ATOM     23  C   UNL     1       2.354  11.290  17.843  0.00  0.00    +0.000 C 
ATOM     24  O   UNL     1       1.494  10.161  17.792  0.00  0.00    +0.000 OA
ENDBRANCH  10  24
ENDBRANCH   1  15
BRANCH   7  25
ATOM     25  O   UNL     1      -3.943  13.342  21.362  0.00  0.00    +0.000 OA
BRANCH  25  26
ATOM     26  C   UNL     1      -5.048  12.830  20.711  0.00  0.00    +0.000 A 
ATOM     27  C   UNL     1      -4.694  12.195  19.508  0.00  0.00    +0.000 A 
ATOM     28  C   UNL     1      -5.623  11.441  18.798  0.00  0.00    +0.000 A 
ATOM     29  C   UNL     1      -6.911  11.306  19.295  0.00  0.00    +0.000 A 
ATOM     30  C   UNL     1      -7.276  11.938  20.487  0.00  0.00    +0.000 A 
ATOM     31  C   UNL     1      -6.363  12.713  21.219  0.00  0.00    +0.000 A 
BRANCH  31  32
ATOM     32  N   UNL     1      -6.773  13.373  22.405  0.00  0.00    +0.000 N 
ATOM     33  C   UNL     1      -7.371  12.817  23.524  0.00  0.00    +0.000 C 
ATOM     34  C   UNL     1      -7.864  13.821  24.530  0.00  0.00    +0.000 C 
ATOM     35  O   UNL     1      -7.485  11.613  23.754  0.00  0.00    +0.000 OA
ATOM     36  H   UNL     1      -6.693  14.383  22.393  0.00  0.00    +0.000 HD
ENDBRANCH  31  32
ENDBRANCH  25  26
ENDBRANCH   7  25
TORSDOF 6
ENDMDL
MODEL 8
REMARK VINA RESULT:      -7.6      1.462      1.688
REMARK  Name = 
REMARK  9 active torsions:
REMARK  status: ('A' for Active; 'I' for Inactive)
REMARK    1  A    between atoms: C_1  and  O_2
REMARK    2  A    between atoms: O_2  and  C_3
REMARK    3  A    between atoms: C_5  and  N_6
REMARK    4  A    between atoms: N_9  and  C_10
REMARK    5  A    between atoms: C_15  and  N_16
REMARK    6  A    between atoms: C_22  and  O_23
REMARK    7  A    between atoms: O_23  and  C_24
REMARK    8  A    between atoms: C_29  and  N_30
REMARK    9  A    between atoms: C_31  and  C_32
REMARK                            x       y       z     vdW  Elec       q    Type
REMARK                         _______ _______ _______ _____ _____    ______ ____
ROOT
ATOM      1  N   UNL     1       2.287   8.209  18.138  0.00  0.00    +0.000 N 
ATOM      2  C   UNL     1       2.548   6.879  18.479  0.00  0.00    +0.000 A 
ATOM      3  N   UNL     1       1.593   6.040  18.885  0.00  0.00    +0.000 NA
ATOM      4  C   UNL     1       1.929   4.834  19.366  0.00  0.00    +0.000 A 
ATOM      5  C   UNL     1       3.220   4.408  19.443  0.00  0.00    +0.000 A 
ATOM      6 CL   UNL     1       3.613   2.900  20.148  0.00  0.00    +0.000 Cl
ATOM      7  C   UNL     1       4.134   5.278  18.889  0.00  0.00    +0.000 A 
ATOM      8  N   UNL     1       3.828   6.506  18.407  0.00  0.00    +0.000 NA
ATOM      9  H   UNL     1       3.191   8.659  18.065  0.00  0.00    +0.000 HD
ENDROOT
BRANCH   1  15
ATOM     10  C   UNL     1       1.076   9.323  20.026  0.00  0.00    +0.000 A 
ATOM     11  C   UNL     1       0.106  10.247  20.419  0.00  0.00    +0.000 A 
ATOM     12  C   UNL     1      -0.810  10.782  19.518  0.00  0.00    +0.000 A 
ATOM     13  C   UNL     1      -0.657  10.462  18.169  0.00  0.00    +0.000 A 
ATOM     14  C   UNL     1       0.369   9.614  17.744  0.00  0.00    +0.000 A 
ATOM     15  C   UNL     1       1.275   9.047  18.659  0.00  0.00    +0.000 A 
BRANCH  12  16
ATOM     16  N   UNL     1      -1.917  11.498  19.944  0.00  0.00    +0.000 N 
ATOM     17  C   UNL     1      -1.749  12.448  21.057  0.00  0.00    +0.000 C 
ATOM     18  C   UNL     1      -3.118  12.682  21.716  0.00  0.00    +0.000 C 
ATOM     19  N   UNL     1      -4.127  13.187  20.756  0.00  0.00    +0.000 NA
ATOM     20  C   UNL     1      -5.425  13.286  21.418  0.00  0.00    +0.000 C 
ATOM     21  C   UNL     1      -4.212  12.277  19.583  0.00  0.00    +0.000 C 
ATOM     22  C   UNL     1      -2.841  11.998  18.916  0.00  0.00    +0.000 C 
ENDBRANCH  12  16
BRANCH  10  24
ATOM     23  C   UNL     1       1.518   8.915  22.326  0.00  0.00    +0.000 C 
ATOM     24  O   UNL     1       1.815   8.651  20.962  0.00  0.00    +0.000 OA
ENDBRANCH  10  24
ENDBRANCH   1  15
BRANCH   7  25
ATOM     25  O   UNL     1       5.439   4.843  18.795  0.00  0.00    +0.000 OA
BRANCH  25  26
ATOM     26  C   UNL     1       6.052   4.705  17.566  0.00  0.00    +0.000 A 
ATOM     27  C   UNL     1       5.411   3.738  16.772  0.00  0.00    +0.000 A 
ATOM     28  C   UNL     1       5.741   3.582  15.430  0.00  0.00    +0.000 A 
ATOM     29  C   UNL     1       6.706   4.405  14.868  0.00  0.00    +0.000 A 
ATOM     30  C   UNL     1       7.354   5.367  15.649  0.00  0.00    +0.000 A 
ATOM     31  C   UNL     1       7.048   5.540  17.008  0.00  0.00    +0.000 A 
BRANCH  31  32
ATOM     32  N   UNL     1       7.749   6.497  17.783  0.00  0.00    +0.000 N 
ATOM     33  C   UNL     1       7.665   7.878  17.708  0.00  0.00    +0.000 C 
ATOM     34  C   UNL     1       8.688   8.610  18.533  0.00  0.00    +0.000 C 
ATOM     35  O   UNL     1       6.824   8.513  17.071  0.00  0.00    +0.000 OA
ATOM     36  H   UNL     1       8.454   6.124  18.407  0.00  0.00    +0.000 HD
ENDBRANCH  31  32
ENDBRANCH  25  26
ENDBRANCH   7  25
TORSDOF 6
ENDMDL
MODEL 9
REMARK VINA RESULT:      -7.5      1.897      2.717
REMARK  Name = 
REMARK  9 active torsions:
REMARK  status: ('A' for Active; 'I' for Inactive)
REMARK    1  A    between atoms: C_1  and  O_2
REMARK    2  A    between atoms: O_2  and  C_3
REMARK    3  A    between atoms: C_5  and  N_6
REMARK    4  A    between atoms: N_9  and  C_10
REMARK    5  A    between atoms: C_15  and  N_16
REMARK    6  A    between atoms: C_22  and  O_23
REMARK    7  A    between atoms: O_23  and  C_24
REMARK    8  A    between atoms: C_29  and  N_30
REMARK    9  A    between atoms: C_31  and  C_32
REMARK                            x       y       z     vdW  Elec       q    Type
REMARK                         _______ _______ _______ _____ _____    ______ ____
ROOT
ATOM      1  N   UNL     1       1.890   8.232  19.441  0.00  0.00    +0.000 N 
ATOM      2  C   UNL     1       2.073   6.878  19.734  0.00  0.00    +0.000 A 
ATOM      3  N   UNL     1       1.121   6.127  20.291  0.00  0.00    +0.000 NA
ATOM      4  C   UNL     1       1.412   4.887  20.709  0.00  0.00    +0.000 A 
ATOM      5  C   UNL     1       2.650   4.337  20.570  0.00  0.00    +0.000 A 
ATOM      6 CL   UNL     1       3.005   2.786  21.199  0.00  0.00    +0.000 Cl
ATOM      7  C   UNL     1       3.541   5.124  19.872  0.00  0.00    +0.000 A 
ATOM      8  N   UNL     1       3.281   6.384  19.449  0.00  0.00    +0.000 NA
ATOM      9  H   UNL     1       2.810   8.594  19.220  0.00  0.00    +0.000 HD
ENDROOT
BRANCH   1  15
ATOM     10  C   UNL     1       0.122  10.003  19.514  0.00  0.00    +0.000 A 
ATOM     11  C   UNL     1      -0.710  10.803  20.299  0.00  0.00    +0.000 A 
ATOM     12  C   UNL     1      -0.525  10.935  21.672  0.00  0.00    +0.000 A 
ATOM     13  C   UNL     1       0.452  10.142  22.275  0.00  0.00    +0.000 A 
ATOM     14  C   UNL     1       1.231   9.264  21.517  0.00  0.00    +0.000 A 
ATOM     15  C   UNL     1       1.065   9.154  20.124  0.00  0.00    +0.000 A 
BRANCH  12  16
ATOM     16  N   UNL     1      -1.183  11.909  22.406  0.00  0.00    +0.000 N 
ATOM     17  C   UNL     1      -0.639  13.278  22.396  0.00  0.00    +0.000 C 
ATOM     18  C   UNL     1      -1.134  14.014  23.651  0.00  0.00    +0.000 C 
ATOM     19  N   UNL     1      -2.612  14.048  23.739  0.00  0.00    +0.000 NA
ATOM     20  C   UNL     1      -3.012  14.664  25.001  0.00  0.00    +0.000 C 
ATOM     21  C   UNL     1      -3.158  12.668  23.640  0.00  0.00    +0.000 C 
ATOM     22  C   UNL     1      -2.652  11.889  22.400  0.00  0.00    +0.000 C 
ENDBRANCH  12  16
BRANCH  10  24
ATOM     23  C   UNL     1      -1.239  10.049  17.566  0.00  0.00    +0.000 C 
ATOM     24  O   UNL     1       0.056  10.063  18.148  0.00  0.00    +0.000 OA
ENDBRANCH  10  24
ENDBRANCH   1  15
BRANCH   7  25
ATOM     25  O   UNL     1       4.763   4.568  19.563  0.00  0.00    +0.000 OA
BRANCH  25  26
ATOM     26  C   UNL     1       5.162   4.424  18.249  0.00  0.00    +0.000 A 
ATOM     27  C   UNL     1       4.342   3.518  17.553  0.00  0.00    +0.000 A 
ATOM     28  C   UNL     1       4.443   3.378  16.173  0.00  0.00    +0.000 A 
ATOM     29  C   UNL     1       5.357   4.154  15.476  0.00  0.00    +0.000 A 
ATOM     30  C   UNL     1       6.183   5.053  16.158  0.00  0.00    +0.000 A 
ATOM     31  C   UNL     1       6.109   5.208  17.551  0.00  0.00    +0.000 A 
BRANCH  31  32
ATOM     32  N   UNL     1       6.986   6.100  18.219  0.00  0.00    +0.000 N 
ATOM     33  C   UNL     1       7.423   7.342  17.790  0.00  0.00    +0.000 C 
ATOM     34  C   UNL     1       8.507   7.949  18.640  0.00  0.00    +0.000 C 
ATOM     35  O   UNL     1       6.978   7.968  16.828  0.00  0.00    +0.000 OA
ATOM     36  H   UNL     1       7.405   5.746  19.071  0.00  0.00    +0.000 HD
ENDBRANCH  31  32
ENDBRANCH  25  26
ENDBRANCH   7  25
TORSDOF 6
ENDMDL
