MODEL 1
REMARK VINA RESULT:     -10.1      0.000      0.000
REMARK  Name = 
REMARK  3 active torsions:
REMARK  status: ('A' for Active; 'I' for Inactive)
REMARK    1  A    between atoms: C_2  and  C_20
REMARK    2  A    between atoms: N_3  and  C_4
REMARK    3  A    between atoms: C_9  and  C_10
REMARK                            x       y       z     vdW  Elec       q    Type
REMARK                         _______ _______ _______ _____ _____    ______ ____
ROOT
ATOM      1  C   UNL     1       1.218   8.474  20.813  0.00  0.00    +0.000 A 
ATOM      2  C   UNL     1       1.122   9.269  19.663  0.00  0.00    +0.000 A 
ATOM      3  C   UNL     1       0.506  10.521  19.672  0.00  0.00    +0.000 A 
ATOM      4  C   UNL     1      -0.007  10.943  20.890  0.00  0.00    +0.000 A 
ATOM      5  N   UNL     1      -0.685  12.072  21.242  0.00  0.00    +0.000 N 
ATOM      6  C   UNL     1      -0.998  12.007  22.578  0.00  0.00    +0.000 A 
ATOM      7  N   UNL     1      -0.497  10.902  23.106  0.00  0.00    +0.000 NA
ATOM      8  C   UNL     1       0.094  10.216  22.064  0.00  0.00    +0.000 A 
ATOM      9  C   UNL     1       0.733   8.961  22.040  0.00  0.00    +0.000 A 
ATOM     10  H   UNL     1      -0.918  12.833  20.622  0.00  0.00    +0.000 HD
ENDROOT
BRANCH   6  11
ATOM     11  C   UNL     1      -1.743  13.068  23.258  0.00  0.00    +0.000 A 
ATOM     12  C   UNL     1      -3.107  12.915  23.563  0.00  0.00    +0.000 A 
ATOM     13  C   UNL     1      -3.824  13.951  24.167  0.00  0.00    +0.000 A 
ATOM     14  C   UNL     1      -3.181  15.146  24.477  0.00  0.00    +0.000 A 
ATOM     15 CL   UNL     1      -4.070  16.425  25.205  0.00  0.00    +0.000 Cl
ATOM     16  C   UNL     1      -1.826  15.309  24.198  0.00  0.00    +0.000 A 
ATOM     17  C   UNL     1      -1.108  14.269  23.597  0.00  0.00    +0.000 A 
ENDBRANCH   6  11
BRANCH   1  20
ATOM     18  O   UNL     1       2.606   7.162  18.610  0.00  0.00    +0.000 OA
ATOM     19  C   UNL     1       2.447   6.615  19.698  0.00  0.00    +0.000 C 
ATOM     20  N   UNL     1       1.790   7.179  20.785  0.00  0.00    +0.000 N 
ATOM     21  H   UNL     1       1.602   6.588  21.584  0.00  0.00    +0.000 HD
BRANCH  19  22
ATOM     22  C   UNL     1       3.004   5.212  19.962  0.00  0.00    +0.000 C 
ATOM     23  C   UNL     1       2.083   4.329  20.835  0.00  0.00    +0.000 C 
ATOM     24  C   UNL     1       0.796   3.983  20.065  0.00  0.00    +0.000 C 
ATOM     25  C   UNL     1       1.131   3.211  18.778  0.00  0.00    +0.000 C 
ATOM     26  C   UNL     1       1.884   1.920  19.135  0.00  0.00    +0.000 C 
ATOM     27  C   UNL     1       3.185   2.261  19.884  0.00  0.00    +0.000 C 
ATOM     28  C   UNL     1       2.830   3.023  21.173  0.00  0.00    +0.000 C 
ATOM     29  C   UNL     1       4.072   3.155  18.998  0.00  0.00    +0.000 C 
ATOM     30  C   UNL     1       3.325   4.455  18.642  0.00  0.00    +0.000 C 
ATOM     31  C   UNL     1       2.034   4.071  17.884  0.00  0.00    +0.000 C 
ENDBRANCH  19  22
ENDBRANCH   1  20
TORSDOF 3
ENDMDL
MODEL 2
REMARK VINA RESULT:      -9.6      0.550      1.130
REMARK  Name = 
REMARK  3 active torsions:
REMARK  status: ('A' for Active; 'I' for Inactive)
REMARK    1  A    between atoms: C_2  and  C_20
REMARK    2  A    between atoms: N_3  and  C_4
REMARK    3  A    between atoms: C_9  and  C_10
REMARK                            x       y       z     vdW  Elec       q    Type
REMARK                         _______ _______ _______ _____ _____    ______ ____
ROOT
ATOM      1  C   UNL     1       1.272   8.392  20.692  0.00  0.00    +0.000 A 
ATOM      2  C   UNL     1       1.172   9.170  19.530  0.00  0.00    +0.000 A 
ATOM      3  C   UNL     1       0.571  10.430  19.527  0.00  0.00    +0.000 A 
ATOM      4  C   UNL     1       0.077  10.876  20.743  0.00  0.00    +0.000 A 
ATOM      5  N   UNL     1      -0.584  12.019  21.085  0.00  0.00    +0.000 N 
ATOM      6  C   UNL     1      -0.883  11.978  22.425  0.00  0.00    +0.000 A 
ATOM      7  N   UNL     1      -0.388  10.876  22.965  0.00  0.00    +0.000 NA
ATOM      8  C   UNL     1       0.183  10.167  21.928  0.00  0.00    +0.000 A 
ATOM      9  C   UNL     1       0.807   8.904  21.916  0.00  0.00    +0.000 A 
ATOM     10  H   UNL     1      -0.816  12.772  20.456  0.00  0.00    +0.000 HD
ENDROOT
BRANCH   6  11
ATOM     11  C   UNL     1      -1.608  13.058  23.097  0.00  0.00    +0.000 A 
ATOM     12  C   UNL     1      -0.985  14.288  23.370  0.00  0.00    +0.000 A 
ATOM     13  C   UNL     1      -1.667  15.297  24.056  0.00  0.00    +0.000 A 
ATOM     14  C   UNL     1      -2.979  15.085  24.469  0.00  0.00    +0.000 A 
ATOM     15 CL   UNL     1      -3.810  16.322  25.327  0.00  0.00    +0.000 Cl
ATOM     16  C   UNL     1      -3.618  13.879  24.190  0.00  0.00    +0.000 A 
ATOM     17  C   UNL     1      -2.936  12.871  23.500  0.00  0.00    +0.000 A 
ENDBRANCH   6  11
BRANCH   1  20
ATOM     18  O   UNL     1       2.877   7.139  18.605  0.00  0.00    +0.000 OA
ATOM     19  C   UNL     1       2.594   6.556  19.648  0.00  0.00    +0.000 C 
ATOM     20  N   UNL     1       1.829   7.091  20.677  0.00  0.00    +0.000 N 
ATOM     21  H   UNL     1       1.548   6.474  21.428  0.00  0.00    +0.000 HD
BRANCH  19  22
ATOM     22  C   UNL     1       3.103   5.136  19.918  0.00  0.00    +0.000 C 
ATOM     23  C   UNL     1       1.978   4.079  20.016  0.00  0.00    +0.000 C 
ATOM     24  C   UNL     1       1.313   3.885  18.641  0.00  0.00    +0.000 C 
ATOM     25  C   UNL     1       2.345   3.403  17.607  0.00  0.00    +0.000 C 
ATOM     26  C   UNL     1       2.960   2.076  18.077  0.00  0.00    +0.000 C 
ATOM     27  C   UNL     1       3.648   2.268  19.440  0.00  0.00    +0.000 C 
ATOM     28  C   UNL     1       2.600   2.740  20.463  0.00  0.00    +0.000 C 
ATOM     29  C   UNL     1       4.749   3.339  19.315  0.00  0.00    +0.000 C 
ATOM     30  C   UNL     1       4.137   4.675  18.852  0.00  0.00    +0.000 C 
ATOM     31  C   UNL     1       3.467   4.441  17.479  0.00  0.00    +0.000 C 
ENDBRANCH  19  22
ENDBRANCH   1  20
TORSDOF 3
ENDMDL
MODEL 3
REMARK VINA RESULT:      -9.6      1.058      1.190
REMARK  Name = 
REMARK  3 active torsions:
REMARK  status: ('A' for Active; 'I' for Inactive)
REMARK    1  A    between atoms: C_2  and  C_20
REMARK    2  A    between atoms: N_3  and  C_4
REMARK    3  A    between atoms: C_9  and  C_10
REMARK                            x       y       z     vdW  Elec       q    Type
REMARK                         _______ _______ _______ _____ _____    ______ ____
ROOT
ATOM      1  C   UNL     1       1.710   8.510  19.503  0.00  0.00    +0.000 A 
ATOM      2  C   UNL     1       1.343   9.333  18.429  0.00  0.00    +0.000 A 
ATOM      3  C   UNL     1       0.608  10.506  18.606  0.00  0.00    +0.000 A 
ATOM      4  C   UNL     1       0.260  10.820  19.911  0.00  0.00    +0.000 A 
ATOM      5  N   UNL     1      -0.467  11.851  20.429  0.00  0.00    +0.000 N 
ATOM      6  C   UNL     1      -0.548  11.701  21.791  0.00  0.00    +0.000 A 
ATOM      7  N   UNL     1       0.147  10.641  22.171  0.00  0.00    +0.000 NA
ATOM      8  C   UNL     1       0.629  10.066  21.012  0.00  0.00    +0.000 A 
ATOM      9  C   UNL     1       1.383   8.893  20.817  0.00  0.00    +0.000 A 
ATOM     10  H   UNL     1      -0.877  12.604  19.898  0.00  0.00    +0.000 HD
ENDROOT
BRANCH   6  11
ATOM     11  C   UNL     1      -1.279  12.644  22.639  0.00  0.00    +0.000 A 
ATOM     12  C   UNL     1      -2.529  12.308  23.187  0.00  0.00    +0.000 A 
ATOM     13  C   UNL     1      -3.244  13.231  23.954  0.00  0.00    +0.000 A 
ATOM     14  C   UNL     1      -2.712  14.496  24.185  0.00  0.00    +0.000 A 
ATOM     15 CL   UNL     1      -3.601  15.636  25.116  0.00  0.00    +0.000 Cl
ATOM     16  C   UNL     1      -1.465  14.841  23.666  0.00  0.00    +0.000 A 
ATOM     17  C   UNL     1      -0.748  13.914  22.901  0.00  0.00    +0.000 A 
ENDBRANCH   6  11
BRANCH   1  20
ATOM     18  O   UNL     1       1.444   6.028  21.008  0.00  0.00    +0.000 OA
ATOM     19  C   UNL     1       2.222   6.138  20.064  0.00  0.00    +0.000 C 
ATOM     20  N   UNL     1       2.403   7.291  19.312  0.00  0.00    +0.000 N 
ATOM     21  H   UNL     1       3.164   7.308  18.646  0.00  0.00    +0.000 HD
BRANCH  19  22
ATOM     22  C   UNL     1       3.078   4.951  19.608  0.00  0.00    +0.000 C 
ATOM     23  C   UNL     1       2.745   3.627  20.333  0.00  0.00    +0.000 C 
ATOM     24  C   UNL     1       1.343   3.138  19.926  0.00  0.00    +0.000 C 
ATOM     25  C   UNL     1       1.280   2.891  18.409  0.00  0.00    +0.000 C 
ATOM     26  C   UNL     1       2.329   1.840  18.016  0.00  0.00    +0.000 C 
ATOM     27  C   UNL     1       3.736   2.334  18.399  0.00  0.00    +0.000 C 
ATOM     28  C   UNL     1       3.785   2.565  19.919  0.00  0.00    +0.000 C 
ATOM     29  C   UNL     1       4.032   3.662  17.677  0.00  0.00    +0.000 C 
ATOM     30  C   UNL     1       2.987   4.722  18.073  0.00  0.00    +0.000 C 
ATOM     31  C   UNL     1       1.593   4.195  17.663  0.00  0.00    +0.000 C 
ENDBRANCH  19  22
ENDBRANCH   1  20
TORSDOF 3
ENDMDL
MODEL 4
REMARK VINA RESULT:      -9.1      2.401      2.951
REMARK  Name = 
REMARK  3 active torsions:
REMARK  status: ('A' for Active; 'I' for Inactive)
REMARK    1  A    between atoms: C_2  and  C_20
REMARK    2  A    between atoms: N_3  and  C_4
REMARK    3  A    between atoms: C_9  and  C_10
REMARK                            x       y       z     vdW  Elec       q    Type
REMARK                         _______ _______ _______ _____ _____    ______ ____
ROOT
ATOM      1  C   UNL     1       1.140   8.419  21.039  0.00  0.00    +0.000 A 
ATOM      2  C   UNL     1       0.559   8.685  22.287  0.00  0.00    +0.000 A 
ATOM      3  C   UNL     1      -0.029   9.915  22.588  0.00  0.00    +0.000 A 
ATOM      4  C   UNL     1      -0.011  10.866  21.579  0.00  0.00    +0.000 A 
ATOM      5  N   UNL     1      -0.457  12.154  21.544  0.00  0.00    +0.000 N 
ATOM      6  C   UNL     1      -0.184  12.688  20.308  0.00  0.00    +0.000 A 
ATOM      7  N   UNL     1       0.371  11.771  19.532  0.00  0.00    +0.000 NA
ATOM      8  C   UNL     1       0.513  10.644  20.317  0.00  0.00    +0.000 A 
ATOM      9  C   UNL     1       1.089   9.392  20.025  0.00  0.00    +0.000 A 
ATOM     10  H   UNL     1      -0.914  12.637  22.302  0.00  0.00    +0.000 HD
ENDROOT
BRANCH   6  11
ATOM     11  C   UNL     1      -0.529  14.067  19.960  0.00  0.00    +0.000 A 
ATOM     12  C   UNL     1       0.076  14.712  18.867  0.00  0.00    +0.000 A 
ATOM     13  C   UNL     1      -0.220  16.045  18.571  0.00  0.00    +0.000 A 
ATOM     14  C   UNL     1      -1.129  16.742  19.361  0.00  0.00    +0.000 A 
ATOM     15 CL   UNL     1      -1.480  18.387  19.003  0.00  0.00    +0.000 Cl
ATOM     16  C   UNL     1      -1.753  16.113  20.437  0.00  0.00    +0.000 A 
ATOM     17  C   UNL     1      -1.458  14.778  20.731  0.00  0.00    +0.000 A 
ENDBRANCH   6  11
BRANCH   1  20
ATOM     18  O   UNL     1       2.296   7.521  18.518  0.00  0.00    +0.000 OA
ATOM     19  C   UNL     1       2.324   6.828  19.532  0.00  0.00    +0.000 C 
ATOM     20  N   UNL     1       1.787   7.191  20.760  0.00  0.00    +0.000 N 
ATOM     21  H   UNL     1       1.750   6.489  21.487  0.00  0.00    +0.000 HD
BRANCH  19  22
ATOM     22  C   UNL     1       3.004   5.454  19.527  0.00  0.00    +0.000 C 
ATOM     23  C   UNL     1       2.419   4.465  20.561  0.00  0.00    +0.000 C 
ATOM     24  C   UNL     1       0.983   4.073  20.166  0.00  0.00    +0.000 C 
ATOM     25  C   UNL     1       0.973   3.395  18.785  0.00  0.00    +0.000 C 
ATOM     26  C   UNL     1       1.861   2.142  18.822  0.00  0.00    +0.000 C 
ATOM     27  C   UNL     1       3.303   2.531  19.193  0.00  0.00    +0.000 C 
ATOM     28  C   UNL     1       3.296   3.197  20.580  0.00  0.00    +0.000 C 
ATOM     29  C   UNL     1       3.852   3.529  18.156  0.00  0.00    +0.000 C 
ATOM     30  C   UNL     1       2.970   4.792  18.120  0.00  0.00    +0.000 C 
ATOM     31  C   UNL     1       1.536   4.361  17.735  0.00  0.00    +0.000 C 
ENDBRANCH  19  22
ENDBRANCH   1  20
TORSDOF 3
ENDMDL
MODEL 5
REMARK VINA RESULT:      -9.1      4.280     10.632
REMARK  Name = 
REMARK  3 active torsions:
REMARK  status: ('A' for Active; 'I' for Inactive)
REMARK    1  A    between atoms: C_2  and  C_20
REMARK    2  A    between atoms: N_3  and  C_4
REMARK    3  A    between atoms: C_9  and  C_10
REMARK                            x       y       z     vdW  Elec       q    Type
REMARK                         _______ _______ _______ _____ _____    ______ ____
ROOT
ATOM      1  C   UNL     1       0.044  10.133  20.597  0.00  0.00    +0.000 A 
ATOM      2  C   UNL     1       0.297   9.252  21.658  0.00  0.00    +0.000 A 
ATOM      3  C   UNL     1       1.130   8.140  21.521  0.00  0.00    +0.000 A 
ATOM      4  C   UNL     1       1.703   7.954  20.272  0.00  0.00    +0.000 A 
ATOM      5  N   UNL     1       2.523   6.976  19.791  0.00  0.00    +0.000 N 
ATOM      6  C   UNL     1       2.798   7.233  18.470  0.00  0.00    +0.000 A 
ATOM      7  N   UNL     1       2.228   8.370  18.103  0.00  0.00    +0.000 NA
ATOM      8  C   UNL     1       1.519   8.813  19.202  0.00  0.00    +0.000 A 
ATOM      9  C   UNL     1       0.687   9.938  19.361  0.00  0.00    +0.000 A 
ATOM     10  H   UNL     1       2.872   6.192  20.320  0.00  0.00    +0.000 HD
ENDROOT
BRANCH   6  11
ATOM     11  C   UNL     1       3.644   6.353  17.663  0.00  0.00    +0.000 A 
ATOM     12  C   UNL     1       4.625   6.879  16.804  0.00  0.00    +0.000 A 
ATOM     13  C   UNL     1       5.395   6.035  15.999  0.00  0.00    +0.000 A 
ATOM     14  C   UNL     1       5.195   4.659  16.052  0.00  0.00    +0.000 A 
ATOM     15 CL   UNL     1       6.134   3.624  15.049  0.00  0.00    +0.000 Cl
ATOM     16  C   UNL     1       4.240   4.119  16.911  0.00  0.00    +0.000 A 
ATOM     17  C   UNL     1       3.472   4.964  17.719  0.00  0.00    +0.000 A 
ENDBRANCH   6  11
BRANCH   1  20
ATOM     18  O   UNL     1       0.548  12.750  21.779  0.00  0.00    +0.000 OA
ATOM     19  C   UNL     1      -0.541  12.452  21.295  0.00  0.00    +0.000 C 
ATOM     20  N   UNL     1      -0.849  11.223  20.724  0.00  0.00    +0.000 N 
ATOM     21  H   UNL     1      -1.814  11.044  20.479  0.00  0.00    +0.000 HD
BRANCH  19  22
ATOM     22  C   UNL     1      -1.690  13.465  21.262  0.00  0.00    +0.000 C 
ATOM     23  C   UNL     1      -3.080  12.839  21.523  0.00  0.00    +0.000 C 
ATOM     24  C   UNL     1      -3.175  12.350  22.980  0.00  0.00    +0.000 C 
ATOM     25  C   UNL     1      -2.978  13.523  23.955  0.00  0.00    +0.000 C 
ATOM     26  C   UNL     1      -4.053  14.591  23.696  0.00  0.00    +0.000 C 
ATOM     27  C   UNL     1      -3.947  15.102  22.248  0.00  0.00    +0.000 C 
ATOM     28  C   UNL     1      -4.157  13.918  21.288  0.00  0.00    +0.000 C 
ATOM     29  C   UNL     1      -2.548  15.701  22.012  0.00  0.00    +0.000 C 
ATOM     30  C   UNL     1      -1.467  14.633  22.263  0.00  0.00    +0.000 C 
ATOM     31  C   UNL     1      -1.599  14.155  23.727  0.00  0.00    +0.000 C 
ENDBRANCH  19  22
ENDBRANCH   1  20
TORSDOF 3
ENDMDL
MODEL 6
REMARK VINA RESULT:      -8.9      2.985      3.689
REMARK  Name = 
REMARK  3 active torsions:
REMARK  status: ('A' for Active; 'I' for Inactive)
REMARK    1  A    between atoms: C_2  and  C_20
REMARK    2  A    between atoms: N_3  and  C_4
REMARK    3  A    between atoms: C_9  and  C_10
REMARK                            x       y       z     vdW  Elec       q    Type
REMARK                         _______ _______ _______ _____ _____    ______ ____
ROOT
ATOM      1  C   UNL     1       1.115   8.324  20.930  0.00  0.00    +0.000 A 
ATOM      2  C   UNL     1       0.380   8.788  22.030  0.00  0.00    +0.000 A 
ATOM      3  C   UNL     1       0.001  10.125  22.161  0.00  0.00    +0.000 A 
ATOM      4  C   UNL     1       0.390  10.976  21.137  0.00  0.00    +0.000 A 
ATOM      5  N   UNL     1       0.221  12.318  20.965  0.00  0.00    +0.000 N 
ATOM      6  C   UNL     1       0.814  12.695  19.785  0.00  0.00    +0.000 A 
ATOM      7  N   UNL     1       1.310  11.634  19.169  0.00  0.00    +0.000 NA
ATOM      8  C   UNL     1       1.082  10.564  20.011  0.00  0.00    +0.000 A 
ATOM      9  C   UNL     1       1.443   9.208  19.887  0.00  0.00    +0.000 A 
ATOM     10  H   UNL     1      -0.264  12.934  21.599  0.00  0.00    +0.000 HD
ENDROOT
BRANCH   6  11
ATOM     11  C   UNL     1       0.818  14.084  19.321  0.00  0.00    +0.000 A 
ATOM     12  C   UNL     1      -0.378  14.815  19.216  0.00  0.00    +0.000 A 
ATOM     13  C   UNL     1      -0.373  16.124  18.725  0.00  0.00    +0.000 A 
ATOM     14  C   UNL     1       0.828  16.713  18.342  0.00  0.00    +0.000 A 
ATOM     15 CL   UNL     1       0.829  18.317  17.723  0.00  0.00    +0.000 Cl
ATOM     16  C   UNL     1       2.025  16.009  18.457  0.00  0.00    +0.000 A 
ATOM     17  C   UNL     1       2.020  14.700  18.952  0.00  0.00    +0.000 A 
ENDBRANCH   6  11
BRANCH   1  20
ATOM     18  O   UNL     1       2.810   7.119  18.887  0.00  0.00    +0.000 OA
ATOM     19  C   UNL     1       2.365   6.470  19.830  0.00  0.00    +0.000 C 
ATOM     20  N   UNL     1       1.547   6.979  20.831  0.00  0.00    +0.000 N 
ATOM     21  H   UNL     1       1.132   6.326  21.482  0.00  0.00    +0.000 HD
BRANCH  19  22
ATOM     22  C   UNL     1       2.708   4.986  19.996  0.00  0.00    +0.000 C 
ATOM     23  C   UNL     1       1.543   4.033  19.643  0.00  0.00    +0.000 C 
ATOM     24  C   UNL     1       1.251   4.089  18.132  0.00  0.00    +0.000 C 
ATOM     25  C   UNL     1       2.491   3.660  17.330  0.00  0.00    +0.000 C 
ATOM     26  C   UNL     1       2.890   2.230  17.727  0.00  0.00    +0.000 C 
ATOM     27  C   UNL     1       3.206   2.172  19.232  0.00  0.00    +0.000 C 
ATOM     28  C   UNL     1       1.953   2.594  20.020  0.00  0.00    +0.000 C 
ATOM     29  C   UNL     1       4.357   3.144  19.556  0.00  0.00    +0.000 C 
ATOM     30  C   UNL     1       3.960   4.581  19.166  0.00  0.00    +0.000 C 
ATOM     31  C   UNL     1       3.661   4.599  17.650  0.00  0.00    +0.000 C 
ENDBRANCH  19  22
ENDBRANCH   1  20
TORSDOF 3
ENDMDL
MODEL 7
REMARK VINA RESULT:      -8.7      4.181     10.463
REMARK  Name = 
REMARK  3 active torsions:
REMARK  status: ('A' for Active; 'I' for Inactive)
REMARK    1  A    between atoms: C_2  and  C_20
REMARK    2  A    between atoms: N_3  and  C_4
REMARK    3  A    between atoms: C_9  and  C_10
REMARK                            x       y       z     vdW  Elec       q    Type
REMARK                         _______ _______ _______ _____ _____    ______ ____
ROOT
ATOM      1  C   UNL     1      -0.308  10.683  20.525  0.00  0.00    +0.000 A 
ATOM      2  C   UNL     1      -0.301  11.275  19.254  0.00  0.00    +0.000 A 
ATOM      3  C   UNL     1       0.420  10.738  18.186  0.00  0.00    +0.000 A 
ATOM      4  C   UNL     1       1.133   9.578  18.449  0.00  0.00    +0.000 A 
ATOM      5  N   UNL     1       1.952   8.824  17.663  0.00  0.00    +0.000 N 
ATOM      6  C   UNL     1       2.440   7.775  18.403  0.00  0.00    +0.000 A 
ATOM      7  N   UNL     1       1.920   7.799  19.619  0.00  0.00    +0.000 NA
ATOM      8  C   UNL     1       1.131   8.930  19.673  0.00  0.00    +0.000 A 
ATOM      9  C   UNL     1       0.385   9.477  20.736  0.00  0.00    +0.000 A 
ATOM     10  H   UNL     1       2.164   9.005  16.694  0.00  0.00    +0.000 HD
ENDROOT
BRANCH   6  11
ATOM     11  C   UNL     1       3.364   6.787  17.843  0.00  0.00    +0.000 A 
ATOM     12  C   UNL     1       4.495   7.187  17.110  0.00  0.00    +0.000 A 
ATOM     13  C   UNL     1       5.346   6.238  16.536  0.00  0.00    +0.000 A 
ATOM     14  C   UNL     1       5.075   4.882  16.696  0.00  0.00    +0.000 A 
ATOM     15 CL   UNL     1       6.115   3.717  15.975  0.00  0.00    +0.000 Cl
ATOM     16  C   UNL     1       3.969   4.468  17.434  0.00  0.00    +0.000 A 
ATOM     17  C   UNL     1       3.120   5.418  18.012  0.00  0.00    +0.000 A 
ENDBRANCH   6  11
BRANCH   1  20
ATOM     18  O   UNL     1       0.355  13.120  21.980  0.00  0.00    +0.000 OA
ATOM     19  C   UNL     1      -0.624  12.437  22.265  0.00  0.00    +0.000 C 
ATOM     20  N   UNL     1      -0.992  11.264  21.620  0.00  0.00    +0.000 N 
ATOM     21  H   UNL     1      -1.739  10.714  22.024  0.00  0.00    +0.000 HD
BRANCH  19  22
ATOM     22  C   UNL     1      -1.573  12.855  23.394  0.00  0.00    +0.000 C 
ATOM     23  C   UNL     1      -1.630  14.383  23.627  0.00  0.00    +0.000 C 
ATOM     24  C   UNL     1      -2.295  15.078  22.425  0.00  0.00    +0.000 C 
ATOM     25  C   UNL     1      -3.731  14.562  22.233  0.00  0.00    +0.000 C 
ATOM     26  C   UNL     1      -4.548  14.834  23.506  0.00  0.00    +0.000 C 
ATOM     27  C   UNL     1      -3.902  14.121  24.707  0.00  0.00    +0.000 C 
ATOM     28  C   UNL     1      -2.471  14.656  24.891  0.00  0.00    +0.000 C 
ATOM     29  C   UNL     1      -3.843  12.605  24.438  0.00  0.00    +0.000 C 
ATOM     30  C   UNL     1      -3.018  12.326  23.167  0.00  0.00    +0.000 C 
ATOM     31  C   UNL     1      -3.704  13.049  21.985  0.00  0.00    +0.000 C 
ENDBRANCH  19  22
ENDBRANCH   1  20
TORSDOF 3
ENDMDL
MODEL 8
REMARK VINA RESULT:      -8.7      1.229      1.489
REMARK  Name = 
REMARK  3 active torsions:
REMARK  status: ('A' for Active; 'I' for Inactive)
REMARK    1  A    between atoms: C_2  and  C_20
REMARK    2  A    between atoms: N_3  and  C_4
REMARK    3  A    between atoms: C_9  and  C_10
REMARK                            x       y       z     vdW  Elec       q    Type
REMARK                         _______ _______ _______ _____ _____    ______ ____
ROOT
ATOM      1  C   UNL     1       1.827   8.219  19.524  0.00  0.00    +0.000 A 
ATOM      2  C   UNL     1       1.789   9.007  18.364  0.00  0.00    +0.000 A 
ATOM      3  C   UNL     1       1.313  10.319  18.370  0.00  0.00    +0.000 A 
ATOM      4  C   UNL     1       0.881  10.808  19.594  0.00  0.00    +0.000 A 
ATOM      5  N   UNL     1       0.338  12.009  19.945  0.00  0.00    +0.000 N 
ATOM      6  C   UNL     1       0.054  11.995  21.289  0.00  0.00    +0.000 A 
ATOM      7  N   UNL     1       0.446  10.848  21.821  0.00  0.00    +0.000 NA
ATOM      8  C   UNL     1       0.932  10.089  20.776  0.00  0.00    +0.000 A 
ATOM      9  C   UNL     1       1.429   8.771  20.754  0.00  0.00    +0.000 A 
ATOM     10  H   UNL     1       0.174  12.783  19.321  0.00  0.00    +0.000 HD
ENDROOT
BRANCH   6  11
ATOM     11  C   UNL     1      -0.553  13.139  21.971  0.00  0.00    +0.000 A 
ATOM     12  C   UNL     1      -1.275  12.970  23.166  0.00  0.00    +0.000 A 
ATOM     13  C   UNL     1      -1.894  14.059  23.785  0.00  0.00    +0.000 A 
ATOM     14  C   UNL     1      -1.792  15.326  23.218  0.00  0.00    +0.000 A 
ATOM     15 CL   UNL     1      -2.569  16.661  23.973  0.00  0.00    +0.000 Cl
ATOM     16  C   UNL     1      -1.065  15.514  22.044  0.00  0.00    +0.000 A 
ATOM     17  C   UNL     1      -0.442  14.424  21.427  0.00  0.00    +0.000 A 
ENDBRANCH   6  11
BRANCH   1  20
ATOM     18  O   UNL     1       3.871   7.002  17.839  0.00  0.00    +0.000 OA
ATOM     19  C   UNL     1       3.244   6.355  18.672  0.00  0.00    +0.000 C 
ATOM     20  N   UNL     1       2.254   6.870  19.500  0.00  0.00    +0.000 N 
ATOM     21  H   UNL     1       1.713   6.219  20.053  0.00  0.00    +0.000 HD
BRANCH  19  22
ATOM     22  C   UNL     1       3.530   4.865  18.890  0.00  0.00    +0.000 C 
ATOM     23  C   UNL     1       2.872   4.283  20.162  0.00  0.00    +0.000 C 
ATOM     24  C   UNL     1       1.341   4.257  20.002  0.00  0.00    +0.000 C 
ATOM     25  C   UNL     1       0.941   3.380  18.803  0.00  0.00    +0.000 C 
ATOM     26  C   UNL     1       1.464   1.951  19.015  0.00  0.00    +0.000 C 
ATOM     27  C   UNL     1       2.997   1.968  19.152  0.00  0.00    +0.000 C 
ATOM     28  C   UNL     1       3.378   2.840  20.361  0.00  0.00    +0.000 C 
ATOM     29  C   UNL     1       3.623   2.569  17.879  0.00  0.00    +0.000 C 
ATOM     30  C   UNL     1       3.107   4.005  17.665  0.00  0.00    +0.000 C 
ATOM     31  C   UNL     1       1.570   3.944  17.523  0.00  0.00    +0.000 C 
ENDBRANCH  19  22
ENDBRANCH   1  20
TORSDOF 3
ENDMDL
