MODEL 1
REMARK VINA RESULT:      -7.8      0.000      0.000
REMARK  Name = 
REMARK  11 active torsions:
REMARK  status: ('A' for Active; 'I' for Inactive)
REMARK    1  A    between atoms: C_6  and  C_7
REMARK    2  A    between atoms: C_7  and  C_8
REMARK    3  A    between atoms: C_8  and  C_9
REMARK    4  A    between atoms: C_12  and  C_13
REMARK    5  A    between atoms: N_15  and  CA_16
REMARK    6  A    between atoms: CA_16  and  CB_17
REMARK    7  A    between atoms: CA_16  and  C_22
REMARK    8  A    between atoms: CB_17  and  CG_18
REMARK    9  A    between atoms: CG_18  and  CD_19
REMARK   10  A    between atoms: CD_19  and  OE2_21
REMARK   11  A    between atoms: C_22  and  OXT_24
REMARK                            x       y       z     vdW  Elec       q    Type
REMARK                         _______ _______ _______ _____ _____    ______ ____
ROOT
ATOM      1  C   UNK A   0       1.580   9.503  19.068  0.00  0.00    +0.000 A 
ATOM      2  C   UNK A   0       2.076   9.364  17.786  0.00  0.00    +0.000 A 
ATOM      3  C   UNK A   0       2.580   8.056  17.538  0.00  0.00    +0.000 A 
ATOM      4  C   UNK A   0       2.484   7.229  18.641  0.00  0.00    +0.000 A 
ATOM      5  S   UNK A   0       1.749   8.053  19.955  0.00  0.00    +0.000 S 
ENDROOT
BRANCH   4   6
ATOM      6  C   UNK A   0       2.927   5.845  18.753  0.00  0.00    +0.000 C 
ATOM      7  O   UNK A   0       2.545   5.082  19.632  0.00  0.00    +0.000 OA
ATOM      8  N   GLU A   1       3.801   5.436  17.774  0.00  0.00    +0.000 N 
ATOM      9  H   GLU A   1       4.055   6.112  17.060  0.00  0.00    +0.000 HD
BRANCH   8  10
ATOM     10  CA  GLU A   1       4.362   4.094  17.671  0.00  0.00    +0.000 C 
BRANCH  10  11
ATOM     11  C   GLU A   1       5.335   3.964  18.848  0.00  0.00    +0.000 C 
ATOM     12  O   GLU A   1       6.239   4.762  19.066  0.00  0.00    +0.000 OA
BRANCH  11  13
ATOM     13  OXT GLU A   1       5.094   2.914  19.667  0.00  0.00    +0.000 OA
ATOM     14  HXT GLU A   1       5.886   2.381  19.903  0.00  0.00    +0.000 HD
ENDBRANCH  11  13
ENDBRANCH  10  11
BRANCH  10  15
ATOM     15  CB  GLU A   1       5.104   3.890  16.336  0.00  0.00    +0.000 C 
BRANCH  15  16
ATOM     16  CG  GLU A   1       5.329   5.170  15.539  0.00  0.00    +0.000 C 
BRANCH  16  17
ATOM     17  CD  GLU A   1       6.677   5.755  15.848  0.00  0.00    +0.000 C 
ATOM     18  OE1 GLU A   1       7.693   5.409  15.260  0.00  0.00    +0.000 OA
BRANCH  17  19
ATOM     19  OE2 GLU A   1       6.651   6.753  16.752  0.00  0.00    +0.000 OA
ATOM     20  HE2 GLU A   1       6.907   7.632  16.401  0.00  0.00    +0.000 HD
ENDBRANCH  17  19
ENDBRANCH  16  17
ENDBRANCH  15  16
ENDBRANCH  10  15
ENDBRANCH   8  10
ENDBRANCH   4   6
BRANCH   1  21
ATOM     21  C   UNK A   0       0.967  10.717  19.715  0.00  0.00    +0.000 C 
BRANCH  21  22
ATOM     22  C   UNK A   0      -0.450  10.431  20.218  0.00  0.00    +0.000 C 
BRANCH  22  28
ATOM     23  N   UNK A   0      -6.437  12.443  16.867  0.00  0.00    +0.000 N 
ATOM     24  C   UNK A   0      -5.219  11.882  17.083  0.00  0.00    +0.000 A 
ATOM     25  N   UNK A   0      -4.626  12.033  18.236  0.00  0.00    +0.000 NA
ATOM     26  C   UNK A   0      -3.423  11.419  18.309  0.00  0.00    +0.000 A 
ATOM     27  N   UNK A   0      -2.632  11.411  19.424  0.00  0.00    +0.000 N 
ATOM     28  C   UNK A   0      -1.491  10.675  19.172  0.00  0.00    +0.000 A 
ATOM     29  C   UNK A   0      -1.564  10.226  17.863  0.00  0.00    +0.000 A 
ATOM     30  C   UNK A   0      -2.787  10.690  17.333  0.00  0.00    +0.000 A 
ATOM     31  C   UNK A   0      -3.456  10.535  16.067  0.00  0.00    +0.000 A 
ATOM     32  O   UNK A   0      -3.010   9.900  15.117  0.00  0.00    +0.000 OA
ATOM     33  N   UNK A   0      -4.678  11.180  16.027  0.00  0.00    +0.000 N 
ATOM     34  H   UNK A   0      -6.677  13.121  17.580  0.00  0.00    +0.000 HD
ATOM     35  H   UNK A   0      -6.625  12.774  15.928  0.00  0.00    +0.000 HD
ATOM     36  H   UNK A   0      -2.881  11.856  20.296  0.00  0.00    +0.000 HD
ATOM     37  H   UNK A   0      -5.202  11.062  15.178  0.00  0.00    +0.000 HD
ENDBRANCH  22  28
ENDBRANCH  21  22
ENDBRANCH   1  21
TORSDOF 11
ENDMDL
MODEL 2
REMARK VINA RESULT:      -7.7      3.660      9.377
REMARK  Name = 
REMARK  11 active torsions:
REMARK  status: ('A' for Active; 'I' for Inactive)
REMARK    1  A    between atoms: C_6  and  C_7
REMARK    2  A    between atoms: C_7  and  C_8
REMARK    3  A    between atoms: C_8  and  C_9
REMARK    4  A    between atoms: C_12  and  C_13
REMARK    5  A    between atoms: N_15  and  CA_16
REMARK    6  A    between atoms: CA_16  and  CB_17
REMARK    7  A    between atoms: CA_16  and  C_22
REMARK    8  A    between atoms: CB_17  and  CG_18
REMARK    9  A    between atoms: CG_18  and  CD_19
REMARK   10  A    between atoms: CD_19  and  OE2_21
REMARK   11  A    between atoms: C_22  and  OXT_24
REMARK                            x       y       z     vdW  Elec       q    Type
REMARK                         _______ _______ _______ _____ _____    ______ ____
ROOT
ATOM      1  C   UNK A   0       2.133   3.756  19.296  0.00  0.00    +0.000 A 
ATOM      2  C   UNK A   0       2.297   4.093  20.626  0.00  0.00    +0.000 A 
ATOM      3  C   UNK A   0       2.226   5.498  20.843  0.00  0.00    +0.000 A 
ATOM      4  C   UNK A   0       2.034   6.209  19.673  0.00  0.00    +0.000 A 
ATOM      5  S   UNK A   0       1.912   5.147  18.330  0.00  0.00    +0.000 S 
ENDROOT
BRANCH   4   6
ATOM      6  C   UNK A   0       1.944   7.655  19.520  0.00  0.00    +0.000 C 
ATOM      7  O   UNK A   0       2.546   8.283  18.657  0.00  0.00    +0.000 OA
ATOM      8  N   GLU A   1       1.102   8.280  20.410  0.00  0.00    +0.000 N 
ATOM      9  H   GLU A   1       0.613   7.697  21.082  0.00  0.00    +0.000 HD
BRANCH   8  10
ATOM     10  CA  GLU A   1       0.840   9.715  20.436  0.00  0.00    +0.000 C 
BRANCH  10  11
ATOM     11  C   GLU A   1       0.861  10.110  21.917  0.00  0.00    +0.000 C 
ATOM     12  O   GLU A   1       1.382   9.425  22.789  0.00  0.00    +0.000 OA
BRANCH  11  13
ATOM     13  OXT GLU A   1       0.292  11.307  22.190  0.00  0.00    +0.000 OA
ATOM     14  HXT GLU A   1       0.720  12.078  21.758  0.00  0.00    +0.000 HD
ENDBRANCH  11  13
ENDBRANCH  10  11
BRANCH  10  15
ATOM     15  CB  GLU A   1      -0.526  10.053  19.809  0.00  0.00    +0.000 C 
BRANCH  15  16
ATOM     16  CG  GLU A   1      -0.444  10.737  18.449  0.00  0.00    +0.000 C 
BRANCH  16  17
ATOM     17  CD  GLU A   1      -0.805  12.190  18.567  0.00  0.00    +0.000 C 
ATOM     18  OE1 GLU A   1      -0.666  12.818  19.607  0.00  0.00    +0.000 OA
BRANCH  17  19
ATOM     19  OE2 GLU A   1      -1.196  12.756  17.408  0.00  0.00    +0.000 OA
ATOM     20  HE2 GLU A   1      -2.023  13.278  17.466  0.00  0.00    +0.000 HD
ENDBRANCH  17  19
ENDBRANCH  16  17
ENDBRANCH  15  16
ENDBRANCH  10  15
ENDBRANCH   8  10
ENDBRANCH   4   6
BRANCH   1  21
ATOM     21  C   UNK A   0       2.145   2.390  18.662  0.00  0.00    +0.000 C 
BRANCH  21  22
ATOM     22  C   UNK A   0       3.573   1.886  18.438  0.00  0.00    +0.000 C 
BRANCH  22  28
ATOM     23  N   UNK A   0       8.387   7.160  18.806  0.00  0.00    +0.000 N 
ATOM     24  C   UNK A   0       7.479   6.290  18.292  0.00  0.00    +0.000 A 
ATOM     25  N   UNK A   0       6.947   5.374  19.055  0.00  0.00    +0.000 NA
ATOM     26  C   UNK A   0       6.060   4.582  18.410  0.00  0.00    +0.000 A 
ATOM     27  N   UNK A   0       5.354   3.576  19.006  0.00  0.00    +0.000 N 
ATOM     28  C   UNK A   0       4.520   2.986  18.078  0.00  0.00    +0.000 A 
ATOM     29  C   UNK A   0       4.722   3.630  16.867  0.00  0.00    +0.000 A 
ATOM     30  C   UNK A   0       5.684   4.639  17.089  0.00  0.00    +0.000 A 
ATOM     31  C   UNK A   0       6.282   5.656  16.262  0.00  0.00    +0.000 A 
ATOM     32  O   UNK A   0       6.026   5.826  15.075  0.00  0.00    +0.000 OA
ATOM     33  N   UNK A   0       7.186   6.440  16.953  0.00  0.00    +0.000 N 
ATOM     34  H   UNK A   0       8.726   6.865  19.714  0.00  0.00    +0.000 HD
ATOM     35  H   UNK A   0       9.130   7.461  18.187  0.00  0.00    +0.000 HD
ATOM     36  H   UNK A   0       5.427   3.340  19.986  0.00  0.00    +0.000 HD
ATOM     37  H   UNK A   0       7.595   7.192  16.427  0.00  0.00    +0.000 HD
ENDBRANCH  22  28
ENDBRANCH  21  22
ENDBRANCH   1  21
TORSDOF 11
ENDMDL
MODEL 3
REMARK VINA RESULT:      -7.7      3.064      4.547
REMARK  Name = 
REMARK  11 active torsions:
REMARK  status: ('A' for Active; 'I' for Inactive)
REMARK    1  A    between atoms: C_6  and  C_7
REMARK    2  A    between atoms: C_7  and  C_8
REMARK    3  A    between atoms: C_8  and  C_9
REMARK    4  A    between atoms: C_12  and  C_13
REMARK    5  A    between atoms: N_15  and  CA_16
REMARK    6  A    between atoms: CA_16  and  CB_17
REMARK    7  A    between atoms: CA_16  and  C_22
REMARK    8  A    between atoms: CB_17  and  CG_18
REMARK    9  A    between atoms: CG_18  and  CD_19
REMARK   10  A    between atoms: CD_19  and  OE2_21
REMARK   11  A    between atoms: C_22  and  OXT_24
REMARK                            x       y       z     vdW  Elec       q    Type
REMARK                         _______ _______ _______ _____ _____    ______ ____
ROOT
ATOM      1  C   UNK A   0       1.807   5.331  20.001  0.00  0.00    +0.000 A 
ATOM      2  C   UNK A   0       1.218   4.095  19.808  0.00  0.00    +0.000 A 
ATOM      3  C   UNK A   0       1.985   3.257  18.951  0.00  0.00    +0.000 A 
ATOM      4  C   UNK A   0       3.131   3.876  18.486  0.00  0.00    +0.000 A 
ATOM      5  S   UNK A   0       3.270   5.460  19.130  0.00  0.00    +0.000 S 
ENDROOT
BRANCH   4   6
ATOM      6  C   UNK A   0       4.126   3.328  17.573  0.00  0.00    +0.000 C 
ATOM      7  O   UNK A   0       4.292   2.127  17.394  0.00  0.00    +0.000 OA
ATOM      8  N   GLU A   1       4.866   4.266  16.892  0.00  0.00    +0.000 N 
ATOM      9  H   GLU A   1       4.659   5.244  17.068  0.00  0.00    +0.000 HD
BRANCH   8  10
ATOM     10  CA  GLU A   1       5.903   3.954  15.915  0.00  0.00    +0.000 C 
BRANCH  10  11
ATOM     11  C   GLU A   1       7.131   4.765  16.347  0.00  0.00    +0.000 C 
ATOM     12  O   GLU A   1       7.304   5.939  16.042  0.00  0.00    +0.000 OA
BRANCH  11  13
ATOM     13  OXT GLU A   1       8.002   4.094  17.136  0.00  0.00    +0.000 OA
ATOM     14  HXT GLU A   1       8.862   4.547  17.283  0.00  0.00    +0.000 HD
ENDBRANCH  11  13
ENDBRANCH  10  11
BRANCH  10  15
ATOM     15  CB  GLU A   1       5.475   4.347  14.489  0.00  0.00    +0.000 C 
BRANCH  15  16
ATOM     16  CG  GLU A   1       6.437   3.896  13.395  0.00  0.00    +0.000 C 
BRANCH  16  17
ATOM     17  CD  GLU A   1       5.707   3.121  12.336  0.00  0.00    +0.000 C 
ATOM     18  OE1 GLU A   1       4.607   3.457  11.919  0.00  0.00    +0.000 OA
BRANCH  17  19
ATOM     19  OE2 GLU A   1       6.409   2.093  11.822  0.00  0.00    +0.000 OA
ATOM     20  HE2 GLU A   1       5.956   1.604  11.105  0.00  0.00    +0.000 HD
ENDBRANCH  17  19
ENDBRANCH  16  17
ENDBRANCH  15  16
ENDBRANCH  10  15
ENDBRANCH   8  10
ENDBRANCH   4   6
BRANCH   1  21
ATOM     21  C   UNK A   0       1.315   6.488  20.829  0.00  0.00    +0.000 C 
BRANCH  21  22
ATOM     22  C   UNK A   0       1.928   7.812  20.366  0.00  0.00    +0.000 C 
BRANCH  22  28
ATOM     23  N   UNK A   0      -1.917  12.869  23.650  0.00  0.00    +0.000 N 
ATOM     24  C   UNK A   0      -1.388  12.105  22.658  0.00  0.00    +0.000 A 
ATOM     25  N   UNK A   0      -0.505  11.187  22.940  0.00  0.00    +0.000 NA
ATOM     26  C   UNK A   0      -0.070  10.504  21.857  0.00  0.00    +0.000 A 
ATOM     27  N   UNK A   0       0.831   9.477  21.907  0.00  0.00    +0.000 N 
ATOM     28  C   UNK A   0       1.036   8.983  20.635  0.00  0.00    +0.000 A 
ATOM     29  C   UNK A   0       0.256   9.730  19.766  0.00  0.00    +0.000 A 
ATOM     30  C   UNK A   0      -0.443  10.676  20.546  0.00  0.00    +0.000 A 
ATOM     31  C   UNK A   0      -1.419  11.694  20.253  0.00  0.00    +0.000 A 
ATOM     32  O   UNK A   0      -1.850  11.943  19.131  0.00  0.00    +0.000 OA
ATOM     33  N   UNK A   0      -1.835  12.374  21.382  0.00  0.00    +0.000 N 
ATOM     34  H   UNK A   0      -1.395  12.783  24.515  0.00  0.00    +0.000 HD
ATOM     35  H   UNK A   0      -2.138  13.829  23.415  0.00  0.00    +0.000 HD
ATOM     36  H   UNK A   0       1.245   9.131  22.761  0.00  0.00    +0.000 HD
ATOM     37  H   UNK A   0      -2.550  13.064  21.232  0.00  0.00    +0.000 HD
ENDBRANCH  22  28
ENDBRANCH  21  22
ENDBRANCH   1  21
TORSDOF 11
ENDMDL
MODEL 4
REMARK VINA RESULT:      -7.7      1.061      1.335
REMARK  Name = 
REMARK  11 active torsions:
REMARK  status: ('A' for Active; 'I' for Inactive)
REMARK    1  A    between atoms: C_6  and  C_7
REMARK    2  A    between atoms: C_7  and  C_8
REMARK    3  A    between atoms: C_8  and  C_9
REMARK    4  A    between atoms: C_12  and  C_13
REMARK    5  A    between atoms: N_15  and  CA_16
REMARK    6  A    between atoms: CA_16  and  CB_17
REMARK    7  A    between atoms: CA_16  and  C_22
REMARK    8  A    between atoms: CB_17  and  CG_18
REMARK    9  A    between atoms: CG_18  and  CD_19
REMARK   10  A    between atoms: CD_19  and  OE2_21
REMARK   11  A    between atoms: C_22  and  OXT_24
REMARK                            x       y       z     vdW  Elec       q    Type
REMARK                         _______ _______ _______ _____ _____    ______ ____
ROOT
ATOM      1  C   UNK A   0       1.461   9.428  19.254  0.00  0.00    +0.000 A 
ATOM      2  C   UNK A   0       1.324   8.685  20.412  0.00  0.00    +0.000 A 
ATOM      3  C   UNK A   0       1.804   7.353  20.262  0.00  0.00    +0.000 A 
ATOM      4  C   UNK A   0       2.275   7.097  18.988  0.00  0.00    +0.000 A 
ATOM      5  S   UNK A   0       2.153   8.496  18.001  0.00  0.00    +0.000 S 
ENDROOT
BRANCH   4   6
ATOM      6  C   UNK A   0       2.809   5.841  18.476  0.00  0.00    +0.000 C 
ATOM      7  O   UNK A   0       2.171   4.795  18.452  0.00  0.00    +0.000 OA
ATOM      8  N   GLU A   1       4.093   5.913  17.989  0.00  0.00    +0.000 N 
ATOM      9  H   GLU A   1       4.554   6.817  18.014  0.00  0.00    +0.000 HD
BRANCH   8  10
ATOM     10  CA  GLU A   1       4.825   4.791  17.412  0.00  0.00    +0.000 C 
BRANCH  10  11
ATOM     11  C   GLU A   1       5.736   4.276  18.532  0.00  0.00    +0.000 C 
ATOM     12  O   GLU A   1       6.796   4.809  18.837  0.00  0.00    +0.000 OA
BRANCH  11  13
ATOM     13  OXT GLU A   1       5.260   3.199  19.198  0.00  0.00    +0.000 OA
ATOM     14  HXT GLU A   1       5.095   3.342  20.156  0.00  0.00    +0.000 HD
ENDBRANCH  11  13
ENDBRANCH  10  11
BRANCH  10  15
ATOM     15  CB  GLU A   1       5.663   5.227  16.195  0.00  0.00    +0.000 C 
BRANCH  15  16
ATOM     16  CG  GLU A   1       5.636   4.247  15.028  0.00  0.00    +0.000 C 
BRANCH  16  17
ATOM     17  CD  GLU A   1       6.738   4.554  14.055  0.00  0.00    +0.000 C 
ATOM     18  OE1 GLU A   1       6.732   4.136  12.905  0.00  0.00    +0.000 OA
BRANCH  17  19
ATOM     19  OE2 GLU A   1       7.670   5.404  14.528  0.00  0.00    +0.000 OA
ATOM     20  HE2 GLU A   1       8.577   5.246  14.192  0.00  0.00    +0.000 HD
ENDBRANCH  17  19
ENDBRANCH  16  17
ENDBRANCH  15  16
ENDBRANCH  10  15
ENDBRANCH   8  10
ENDBRANCH   4   6
BRANCH   1  21
ATOM     21  C   UNK A   0       1.075  10.862  19.005  0.00  0.00    +0.000 C 
BRANCH  21  22
ATOM     22  C   UNK A   0      -0.187  11.248  19.781  0.00  0.00    +0.000 C 
BRANCH  22  28
ATOM     23  N   UNK A   0      -6.892  12.080  17.440  0.00  0.00    +0.000 N 
ATOM     24  C   UNK A   0      -5.565  11.789  17.444  0.00  0.00    +0.000 A 
ATOM     25  N   UNK A   0      -4.852  12.002  18.516  0.00  0.00    +0.000 NA
ATOM     26  C   UNK A   0      -3.550  11.664  18.375  0.00  0.00    +0.000 A 
ATOM     27  N   UNK A   0      -2.618  11.768  19.370  0.00  0.00    +0.000 N 
ATOM     28  C   UNK A   0      -1.399  11.316  18.907  0.00  0.00    +0.000 A 
ATOM     29  C   UNK A   0      -1.570  10.935  17.585  0.00  0.00    +0.000 A 
ATOM     30  C   UNK A   0      -2.928  11.148  17.265  0.00  0.00    +0.000 A 
ATOM     31  C   UNK A   0      -3.730  10.920  16.090  0.00  0.00    +0.000 A 
ATOM     32  O   UNK A   0      -3.306  10.452  15.038  0.00  0.00    +0.000 OA
ATOM     33  N   UNK A   0      -5.051  11.283  16.269  0.00  0.00    +0.000 N 
ATOM     34  H   UNK A   0      -7.159  12.649  18.235  0.00  0.00    +0.000 HD
ATOM     35  H   UNK A   0      -7.282  12.414  16.567  0.00  0.00    +0.000 HD
ATOM     36  H   UNK A   0      -2.823  12.098  20.303  0.00  0.00    +0.000 HD
ATOM     37  H   UNK A   0      -5.659  11.100  15.489  0.00  0.00    +0.000 HD
ENDBRANCH  22  28
ENDBRANCH  21  22
ENDBRANCH   1  21
TORSDOF 11
ENDMDL
MODEL 5
REMARK VINA RESULT:      -7.7      4.076      9.161
REMARK  Name = 
REMARK  11 active torsions:
REMARK  status: ('A' for Active; 'I' for Inactive)
REMARK    1  A    between atoms: C_6  and  C_7
REMARK    2  A    between atoms: C_7  and  C_8
REMARK    3  A    between atoms: C_8  and  C_9
REMARK    4  A    between atoms: C_12  and  C_13
REMARK    5  A    between atoms: N_15  and  CA_16
REMARK    6  A    between atoms: CA_16  and  CB_17
REMARK    7  A    between atoms: CA_16  and  C_22
REMARK    8  A    between atoms: CB_17  and  CG_18
REMARK    9  A    between atoms: CG_18  and  CD_19
REMARK   10  A    between atoms: CD_19  and  OE2_21
REMARK   11  A    between atoms: C_22  and  OXT_24
REMARK                            x       y       z     vdW  Elec       q    Type
REMARK                         _______ _______ _______ _____ _____    ______ ____
ROOT
ATOM      1  C   UNK A   0       2.012   3.817  19.084  0.00  0.00    +0.000 A 
ATOM      2  C   UNK A   0       1.940   3.988  20.453  0.00  0.00    +0.000 A 
ATOM      3  C   UNK A   0       1.893   5.360  20.827  0.00  0.00    +0.000 A 
ATOM      4  C   UNK A   0       1.954   6.211  19.740  0.00  0.00    +0.000 A 
ATOM      5  S   UNK A   0       2.036   5.321  18.275  0.00  0.00    +0.000 S 
ENDROOT
BRANCH   4   6
ATOM      6  C   UNK A   0       1.959   7.669  19.755  0.00  0.00    +0.000 C 
ATOM      7  O   UNK A   0       2.504   8.352  18.896  0.00  0.00    +0.000 OA
ATOM      8  N   GLU A   1       1.276   8.240  20.803  0.00  0.00    +0.000 N 
ATOM      9  H   GLU A   1       0.825   7.615  21.464  0.00  0.00    +0.000 HD
BRANCH   8  10
ATOM     10  CA  GLU A   1       1.131   9.676  21.014  0.00  0.00    +0.000 C 
BRANCH  10  11
ATOM     11  C   GLU A   1       0.293   9.820  22.290  0.00  0.00    +0.000 C 
ATOM     12  O   GLU A   1      -0.906  10.074  22.283  0.00  0.00    +0.000 OA
BRANCH  11  13
ATOM     13  OXT GLU A   1       0.973   9.604  23.440  0.00  0.00    +0.000 OA
ATOM     14  HXT GLU A   1       1.089   8.659  23.681  0.00  0.00    +0.000 HD
ENDBRANCH  11  13
ENDBRANCH  10  11
BRANCH  10  15
ATOM     15  CB  GLU A   1       0.422  10.354  19.827  0.00  0.00    +0.000 C 
BRANCH  15  16
ATOM     16  CG  GLU A   1       0.914  11.765  19.522  0.00  0.00    +0.000 C 
BRANCH  16  17
ATOM     17  CD  GLU A   1       1.895  11.749  18.386  0.00  0.00    +0.000 C 
ATOM     18  OE1 GLU A   1       2.730  12.628  18.228  0.00  0.00    +0.000 OA
BRANCH  17  19
ATOM     19  OE2 GLU A   1       1.836  10.640  17.622  0.00  0.00    +0.000 OA
ATOM     20  HE2 GLU A   1       2.447  10.636  16.856  0.00  0.00    +0.000 HD
ENDBRANCH  17  19
ENDBRANCH  16  17
ENDBRANCH  15  16
ENDBRANCH  10  15
ENDBRANCH   8  10
ENDBRANCH   4   6
BRANCH   1  21
ATOM     21  C   UNK A   0       2.080   2.535  18.297  0.00  0.00    +0.000 C 
BRANCH  21  22
ATOM     22  C   UNK A   0       3.507   1.984  18.241  0.00  0.00    +0.000 C 
BRANCH  22  28
ATOM     23  N   UNK A   0       8.475   7.087  18.881  0.00  0.00    +0.000 N 
ATOM     24  C   UNK A   0       7.576   6.240  18.315  0.00  0.00    +0.000 A 
ATOM     25  N   UNK A   0       6.954   5.359  19.051  0.00  0.00    +0.000 NA
ATOM     26  C   UNK A   0       6.089   4.588  18.354  0.00  0.00    +0.000 A 
ATOM     27  N   UNK A   0       5.303   3.619  18.913  0.00  0.00    +0.000 N 
ATOM     28  C   UNK A   0       4.519   3.042  17.934  0.00  0.00    +0.000 A 
ATOM     29  C   UNK A   0       4.834   3.655  16.732  0.00  0.00    +0.000 A 
ATOM     30  C   UNK A   0       5.814   4.632  17.009  0.00  0.00    +0.000 A 
ATOM     31  C   UNK A   0       6.509   5.611  16.212  0.00  0.00    +0.000 A 
ATOM     32  O   UNK A   0       6.348   5.768  15.006  0.00  0.00    +0.000 OA
ATOM     33  N   UNK A   0       7.388   6.375  16.956  0.00  0.00    +0.000 N 
ATOM     34  H   UNK A   0       8.734   6.797  19.817  0.00  0.00    +0.000 HD
ATOM     35  H   UNK A   0       9.272   7.349  18.315  0.00  0.00    +0.000 HD
ATOM     36  H   UNK A   0       5.294   3.399  19.899  0.00  0.00    +0.000 HD
ATOM     37  H   UNK A   0       7.864   7.102  16.450  0.00  0.00    +0.000 HD
ENDBRANCH  22  28
ENDBRANCH  21  22
ENDBRANCH   1  21
TORSDOF 11
ENDMDL
MODEL 6
REMARK VINA RESULT:      -7.7      1.256      2.511
REMARK  Name = 
REMARK  11 active torsions:
REMARK  status: ('A' for Active; 'I' for Inactive)
REMARK    1  A    between atoms: C_6  and  C_7
REMARK    2  A    between atoms: C_7  and  C_8
REMARK    3  A    between atoms: C_8  and  C_9
REMARK    4  A    between atoms: C_12  and  C_13
REMARK    5  A    between atoms: N_15  and  CA_16
REMARK    6  A    between atoms: CA_16  and  CB_17
REMARK    7  A    between atoms: CA_16  and  C_22
REMARK    8  A    between atoms: CB_17  and  CG_18
REMARK    9  A    between atoms: CG_18  and  CD_19
REMARK   10  A    between atoms: CD_19  and  OE2_21
REMARK   11  A    between atoms: C_22  and  OXT_24
REMARK                            x       y       z     vdW  Elec       q    Type
REMARK                         _______ _______ _______ _____ _____    ______ ____
ROOT
ATOM      1  C   UNK A   0       1.452   9.909  19.092  0.00  0.00    +0.000 A 
ATOM      2  C   UNK A   0       1.950   9.588  17.843  0.00  0.00    +0.000 A 
ATOM      3  C   UNK A   0       2.456   8.259  17.786  0.00  0.00    +0.000 A 
ATOM      4  C   UNK A   0       2.358   7.598  18.996  0.00  0.00    +0.000 A 
ATOM      5  S   UNK A   0       1.619   8.600  20.177  0.00  0.00    +0.000 S 
ENDROOT
BRANCH   4   6
ATOM      6  C   UNK A   0       2.800   6.245  19.305  0.00  0.00    +0.000 C 
ATOM      7  O   UNK A   0       2.321   5.565  20.205  0.00  0.00    +0.000 OA
ATOM      8  N   GLU A   1       3.796   5.760  18.489  0.00  0.00    +0.000 N 
ATOM      9  H   GLU A   1       4.130   6.366  17.746  0.00  0.00    +0.000 HD
BRANCH   8  10
ATOM     10  CA  GLU A   1       4.383   4.429  18.598  0.00  0.00    +0.000 C 
BRANCH  10  11
ATOM     11  C   GLU A   1       5.900   4.647  18.586  0.00  0.00    +0.000 C 
ATOM     12  O   GLU A   1       6.600   4.460  17.598  0.00  0.00    +0.000 OA
BRANCH  11  13
ATOM     13  OXT GLU A   1       6.414   5.108  19.750  0.00  0.00    +0.000 OA
ATOM     14  HXT GLU A   1       5.832   4.997  20.533  0.00  0.00    +0.000 HD
ENDBRANCH  11  13
ENDBRANCH  10  11
BRANCH  10  15
ATOM     15  CB  GLU A   1       3.960   3.527  17.423  0.00  0.00    +0.000 C 
BRANCH  15  16
ATOM     16  CG  GLU A   1       2.453   3.378  17.253  0.00  0.00    +0.000 C 
BRANCH  16  17
ATOM     17  CD  GLU A   1       1.892   2.458  18.299  0.00  0.00    +0.000 C 
ATOM     18  OE1 GLU A   1       0.845   2.693  18.885  0.00  0.00    +0.000 OA
BRANCH  17  19
ATOM     19  OE2 GLU A   1       2.588   1.315  18.459  0.00  0.00    +0.000 OA
ATOM     20  HE2 GLU A   1       3.221   1.116  17.738  0.00  0.00    +0.000 HD
ENDBRANCH  17  19
ENDBRANCH  16  17
ENDBRANCH  15  16
ENDBRANCH  10  15
ENDBRANCH   8  10
ENDBRANCH   4   6
BRANCH   1  21
ATOM     21  C   UNK A   0       0.838  11.203  19.557  0.00  0.00    +0.000 C 
BRANCH  21  22
ATOM     22  C   UNK A   0      -0.547  10.980  20.169  0.00  0.00    +0.000 C 
BRANCH  22  28
ATOM     23  N   UNK A   0      -6.857  12.312  17.081  0.00  0.00    +0.000 N 
ATOM     24  C   UNK A   0      -5.571  11.904  17.239  0.00  0.00    +0.000 A 
ATOM     25  N   UNK A   0      -4.960  12.096  18.377  0.00  0.00    +0.000 NA
ATOM     26  C   UNK A   0      -3.688  11.638  18.390  0.00  0.00    +0.000 A 
ATOM     27  N   UNK A   0      -2.862  11.698  19.478  0.00  0.00    +0.000 N 
ATOM     28  C   UNK A   0      -1.648  11.120  19.166  0.00  0.00    +0.000 A 
ATOM     29  C   UNK A   0      -1.712  10.702  17.846  0.00  0.00    +0.000 A 
ATOM     30  C   UNK A   0      -3.002  11.023  17.371  0.00  0.00    +0.000 A 
ATOM     31  C   UNK A   0      -3.691  10.820  16.123  0.00  0.00    +0.000 A 
ATOM     32  O   UNK A   0      -3.203  10.273  15.139  0.00  0.00    +0.000 OA
ATOM     33  N   UNK A   0      -4.985  11.306  16.144  0.00  0.00    +0.000 N 
ATOM     34  H   UNK A   0      -7.154  12.935  17.823  0.00  0.00    +0.000 HD
ATOM     35  H   UNK A   0      -7.119  12.644  16.160  0.00  0.00    +0.000 HD
ATOM     36  H   UNK A   0      -3.133  12.083  20.372  0.00  0.00    +0.000 HD
ATOM     37  H   UNK A   0      -5.520  11.147  15.309  0.00  0.00    +0.000 HD
ENDBRANCH  22  28
ENDBRANCH  21  22
ENDBRANCH   1  21
TORSDOF 11
ENDMDL
MODEL 7
REMARK VINA RESULT:      -7.6      1.126      1.559
REMARK  Name = 
REMARK  11 active torsions:
REMARK  status: ('A' for Active; 'I' for Inactive)
REMARK    1  A    between atoms: C_6  and  C_7
REMARK    2  A    between atoms: C_7  and  C_8
REMARK    3  A    between atoms: C_8  and  C_9
REMARK    4  A    between atoms: C_12  and  C_13
REMARK    5  A    between atoms: N_15  and  CA_16
REMARK    6  A    between atoms: CA_16  and  CB_17
REMARK    7  A    between atoms: CA_16  and  C_22
REMARK    8  A    between atoms: CB_17  and  CG_18
REMARK    9  A    between atoms: CG_18  and  CD_19
REMARK   10  A    between atoms: CD_19  and  OE2_21
REMARK   11  A    between atoms: C_22  and  OXT_24
REMARK                            x       y       z     vdW  Elec       q    Type
REMARK                         _______ _______ _______ _____ _____    ______ ____
ROOT
ATOM      1  C   UNK A   0       1.523   9.133  19.611  0.00  0.00    +0.000 A 
ATOM      2  C   UNK A   0       1.461   8.251  20.672  0.00  0.00    +0.000 A 
ATOM      3  C   UNK A   0       1.898   6.943  20.318  0.00  0.00    +0.000 A 
ATOM      4  C   UNK A   0       2.261   6.845  18.988  0.00  0.00    +0.000 A 
ATOM      5  S   UNK A   0       2.094   8.360  18.199  0.00  0.00    +0.000 S 
ENDROOT
BRANCH   4   6
ATOM      6  C   UNK A   0       2.725   5.658  18.281  0.00  0.00    +0.000 C 
ATOM      7  O   UNK A   0       1.993   4.943  17.607  0.00  0.00    +0.000 OA
ATOM      8  N   GLU A   1       4.070   5.401  18.401  0.00  0.00    +0.000 N 
ATOM      9  H   GLU A   1       4.624   6.049  18.952  0.00  0.00    +0.000 HD
BRANCH   8  10
ATOM     10  CA  GLU A   1       4.761   4.282  17.769  0.00  0.00    +0.000 C 
BRANCH  10  11
ATOM     11  C   GLU A   1       4.490   3.071  18.668  0.00  0.00    +0.000 C 
ATOM     12  O   GLU A   1       3.629   2.233  18.428  0.00  0.00    +0.000 OA
BRANCH  11  13
ATOM     13  OXT GLU A   1       5.309   2.968  19.740  0.00  0.00    +0.000 OA
ATOM     14  HXT GLU A   1       6.260   2.848  19.526  0.00  0.00    +0.000 HD
ENDBRANCH  11  13
ENDBRANCH  10  11
BRANCH  10  15
ATOM     15  CB  GLU A   1       6.275   4.541  17.658  0.00  0.00    +0.000 C 
BRANCH  15  16
ATOM     16  CG  GLU A   1       6.725   5.892  18.202  0.00  0.00    +0.000 C 
BRANCH  16  17
ATOM     17  CD  GLU A   1       7.320   6.731  17.107  0.00  0.00    +0.000 C 
ATOM     18  OE1 GLU A   1       7.685   7.884  17.289  0.00  0.00    +0.000 OA
BRANCH  17  19
ATOM     19  OE2 GLU A   1       7.502   6.072  15.946  0.00  0.00    +0.000 OA
ATOM     20  HE2 GLU A   1       8.027   5.248  16.020  0.00  0.00    +0.000 HD
ENDBRANCH  17  19
ENDBRANCH  16  17
ENDBRANCH  15  16
ENDBRANCH  10  15
ENDBRANCH   8  10
ENDBRANCH   4   6
BRANCH   1  21
ATOM     21  C   UNK A   0       1.152  10.592  19.576  0.00  0.00    +0.000 C 
BRANCH  21  22
ATOM     22  C   UNK A   0      -0.221  10.839  20.207  0.00  0.00    +0.000 C 
BRANCH  22  28
ATOM     23  N   UNK A   0      -6.443  12.212  16.962  0.00  0.00    +0.000 N 
ATOM     24  C   UNK A   0      -5.182  11.751  17.168  0.00  0.00    +0.000 A 
ATOM     25  N   UNK A   0      -4.562  12.019  18.285  0.00  0.00    +0.000 NA
ATOM     26  C   UNK A   0      -3.318  11.493  18.352  0.00  0.00    +0.000 A 
ATOM     27  N   UNK A   0      -2.491  11.614  19.434  0.00  0.00    +0.000 N 
ATOM     28  C   UNK A   0      -1.311  10.941  19.188  0.00  0.00    +0.000 A 
ATOM     29  C   UNK A   0      -1.397  10.399  17.915  0.00  0.00    +0.000 A 
ATOM     30  C   UNK A   0      -2.666  10.743  17.402  0.00  0.00    +0.000 A 
ATOM     31  C   UNK A   0      -3.366  10.458  16.176  0.00  0.00    +0.000 A 
ATOM     32  O   UNK A   0      -2.908   9.790  15.253  0.00  0.00    +0.000 OA
ATOM     33  N   UNK A   0      -4.629  11.015  16.141  0.00  0.00    +0.000 N 
ATOM     34  H   UNK A   0      -6.704  12.921  17.638  0.00  0.00    +0.000 HD
ATOM     35  H   UNK A   0      -6.684  12.466  16.011  0.00  0.00    +0.000 HD
ATOM     36  H   UNK A   0      -2.740  12.100  20.283  0.00  0.00    +0.000 HD
ATOM     37  H   UNK A   0      -5.172  10.805  15.322  0.00  0.00    +0.000 HD
ENDBRANCH  22  28
ENDBRANCH  21  22
ENDBRANCH   1  21
TORSDOF 11
ENDMDL
MODEL 8
REMARK VINA RESULT:      -7.6      2.343      9.822
REMARK  Name = 
REMARK  11 active torsions:
REMARK  status: ('A' for Active; 'I' for Inactive)
REMARK    1  A    between atoms: C_6  and  C_7
REMARK    2  A    between atoms: C_7  and  C_8
REMARK    3  A    between atoms: C_8  and  C_9
REMARK    4  A    between atoms: C_12  and  C_13
REMARK    5  A    between atoms: N_15  and  CA_16
REMARK    6  A    between atoms: CA_16  and  CB_17
REMARK    7  A    between atoms: CA_16  and  C_22
REMARK    8  A    between atoms: CB_17  and  CG_18
REMARK    9  A    between atoms: CG_18  and  CD_19
REMARK   10  A    between atoms: CD_19  and  OE2_21
REMARK   11  A    between atoms: C_22  and  OXT_24
REMARK                            x       y       z     vdW  Elec       q    Type
REMARK                         _______ _______ _______ _____ _____    ______ ____
ROOT
ATOM      1  C   UNK A   0       1.836   7.902  19.540  0.00  0.00    +0.000 A 
ATOM      2  C   UNK A   0       2.173   8.247  18.245  0.00  0.00    +0.000 A 
ATOM      3  C   UNK A   0       1.402   9.339  17.756  0.00  0.00    +0.000 A 
ATOM      4  C   UNK A   0       0.475   9.792  18.677  0.00  0.00    +0.000 A 
ATOM      5  S   UNK A   0       0.582   8.896  20.137  0.00  0.00    +0.000 S 
ENDROOT
BRANCH   4   6
ATOM      6  C   UNK A   0      -0.493  10.867  18.504  0.00  0.00    +0.000 C 
ATOM      7  O   UNK A   0      -0.499  11.887  19.182  0.00  0.00    +0.000 OA
ATOM      8  N   GLU A   1      -1.403  10.669  17.493  0.00  0.00    +0.000 N 
ATOM      9  H   GLU A   1      -1.325   9.814  16.952  0.00  0.00    +0.000 HD
BRANCH   8  10
ATOM     10  CA  GLU A   1      -2.452  11.614  17.124  0.00  0.00    +0.000 C 
BRANCH  10  11
ATOM     11  C   GLU A   1      -3.557  11.431  18.171  0.00  0.00    +0.000 C 
ATOM     12  O   GLU A   1      -4.343  10.491  18.163  0.00  0.00    +0.000 OA
BRANCH  11  13
ATOM     13  OXT GLU A   1      -3.576  12.372  19.143  0.00  0.00    +0.000 OA
ATOM     14  HXT GLU A   1      -2.980  13.138  18.991  0.00  0.00    +0.000 HD
ENDBRANCH  11  13
ENDBRANCH  10  11
BRANCH  10  15
ATOM     15  CB  GLU A   1      -2.998  11.332  15.711  0.00  0.00    +0.000 C 
BRANCH  15  16
ATOM     16  CG  GLU A   1      -2.632   9.960  15.157  0.00  0.00    +0.000 C 
BRANCH  16  17
ATOM     17  CD  GLU A   1      -3.191   9.782  13.775  0.00  0.00    +0.000 C 
ATOM     18  OE1 GLU A   1      -4.390   9.849  13.539  0.00  0.00    +0.000 OA
BRANCH  17  19
ATOM     19  OE2 GLU A   1      -2.256   9.644  12.815  0.00  0.00    +0.000 OA
ATOM     20  HE2 GLU A   1      -1.846  10.483  12.517  0.00  0.00    +0.000 HD
ENDBRANCH  17  19
ENDBRANCH  16  17
ENDBRANCH  15  16
ENDBRANCH  10  15
ENDBRANCH   8  10
ENDBRANCH   4   6
BRANCH   1  21
ATOM     21  C   UNK A   0       2.412   6.811  20.404  0.00  0.00    +0.000 C 
BRANCH  21  22
ATOM     22  C   UNK A   0       2.443   5.468  19.669  0.00  0.00    +0.000 C 
BRANCH  22  28
ATOM     23  N   UNK A   0       6.920   4.352  14.206  0.00  0.00    +0.000 N 
ATOM     24  C   UNK A   0       6.473   4.563  15.471  0.00  0.00    +0.000 A 
ATOM     25  N   UNK A   0       5.202   4.767  15.691  0.00  0.00    +0.000 NA
ATOM     26  C   UNK A   0       4.904   4.960  16.995  0.00  0.00    +0.000 A 
ATOM     27  N   UNK A   0       3.638   5.161  17.471  0.00  0.00    +0.000 N 
ATOM     28  C   UNK A   0       3.679   5.294  18.845  0.00  0.00    +0.000 A 
ATOM     29  C   UNK A   0       5.005   5.189  19.234  0.00  0.00    +0.000 A 
ATOM     30  C   UNK A   0       5.765   4.968  18.066  0.00  0.00    +0.000 A 
ATOM     31  C   UNK A   0       7.163   4.742  17.805  0.00  0.00    +0.000 A 
ATOM     32  O   UNK A   0       8.036   4.710  18.668  0.00  0.00    +0.000 OA
ATOM     33  N   UNK A   0       7.431   4.556  16.463  0.00  0.00    +0.000 N 
ATOM     34  H   UNK A   0       6.222   4.589  13.511  0.00  0.00    +0.000 HD
ATOM     35  H   UNK A   0       7.839   4.713  13.982  0.00  0.00    +0.000 HD
ATOM     36  H   UNK A   0       2.812   5.174  16.890  0.00  0.00    +0.000 HD
ATOM     37  H   UNK A   0       8.389   4.350  16.238  0.00  0.00    +0.000 HD
ENDBRANCH  22  28
ENDBRANCH  21  22
ENDBRANCH   1  21
TORSDOF 11
ENDMDL
MODEL 9
REMARK VINA RESULT:      -7.5      1.750      2.365
REMARK  Name = 
REMARK  11 active torsions:
REMARK  status: ('A' for Active; 'I' for Inactive)
REMARK    1  A    between atoms: C_6  and  C_7
REMARK    2  A    between atoms: C_7  and  C_8
REMARK    3  A    between atoms: C_8  and  C_9
REMARK    4  A    between atoms: C_12  and  C_13
REMARK    5  A    between atoms: N_15  and  CA_16
REMARK    6  A    between atoms: CA_16  and  CB_17
REMARK    7  A    between atoms: CA_16  and  C_22
REMARK    8  A    between atoms: CB_17  and  CG_18
REMARK    9  A    between atoms: CG_18  and  CD_19
REMARK   10  A    between atoms: CD_19  and  OE2_21
REMARK   11  A    between atoms: C_22  and  OXT_24
REMARK                            x       y       z     vdW  Elec       q    Type
REMARK                         _______ _______ _______ _____ _____    ______ ____
ROOT
ATOM      1  C   UNK A   0       1.032   9.048  20.476  0.00  0.00    +0.000 A 
ATOM      2  C   UNK A   0       1.009   7.971  21.341  0.00  0.00    +0.000 A 
ATOM      3  C   UNK A   0       1.689   6.837  20.814  0.00  0.00    +0.000 A 
ATOM      4  C   UNK A   0       2.197   7.061  19.548  0.00  0.00    +0.000 A 
ATOM      5  S   UNK A   0       1.864   8.664  19.034  0.00  0.00    +0.000 S 
ENDROOT
BRANCH   4   6
ATOM      6  C   UNK A   0       2.919   6.118  18.703  0.00  0.00    +0.000 C 
ATOM      7  O   UNK A   0       2.450   5.625  17.684  0.00  0.00    +0.000 OA
ATOM      8  N   GLU A   1       4.197   5.829  19.120  0.00  0.00    +0.000 N 
ATOM      9  H   GLU A   1       4.533   6.292  19.958  0.00  0.00    +0.000 HD
BRANCH   8  10
ATOM     10  CA  GLU A   1       5.112   4.929  18.426  0.00  0.00    +0.000 C 
BRANCH  10  11
ATOM     11  C   GLU A   1       4.697   3.515  18.847  0.00  0.00    +0.000 C 
ATOM     12  O   GLU A   1       4.446   3.204  20.006  0.00  0.00    +0.000 OA
BRANCH  11  13
ATOM     13  OXT GLU A   1       4.584   2.632  17.828  0.00  0.00    +0.000 OA
ATOM     14  HXT GLU A   1       4.770   1.698  18.066  0.00  0.00    +0.000 HD
ENDBRANCH  11  13
ENDBRANCH  10  11
BRANCH  10  15
ATOM     15  CB  GLU A   1       6.578   5.198  18.820  0.00  0.00    +0.000 C 
BRANCH  15  16
ATOM     16  CG  GLU A   1       7.604   4.659  17.829  0.00  0.00    +0.000 C 
BRANCH  16  17
ATOM     17  CD  GLU A   1       7.118   4.830  16.419  0.00  0.00    +0.000 C 
ATOM     18  OE1 GLU A   1       7.265   5.873  15.797  0.00  0.00    +0.000 OA
BRANCH  17  19
ATOM     19  OE2 GLU A   1       6.601   3.711  15.875  0.00  0.00    +0.000 OA
ATOM     20  HE2 GLU A   1       5.631   3.615  15.979  0.00  0.00    +0.000 HD
ENDBRANCH  17  19
ENDBRANCH  16  17
ENDBRANCH  15  16
ENDBRANCH  10  15
ENDBRANCH   8  10
ENDBRANCH   4   6
BRANCH   1  21
ATOM     21  C   UNK A   0       0.431  10.417  20.659  0.00  0.00    +0.000 C 
BRANCH  21  22
ATOM     22  C   UNK A   0       0.469  11.227  19.361  0.00  0.00    +0.000 C 
BRANCH  22  28
ATOM     23  N   UNK A   0      -4.326  10.016  14.196  0.00  0.00    +0.000 N 
ATOM     24  C   UNK A   0      -3.794  10.423  15.377  0.00  0.00    +0.000 A 
ATOM     25  N   UNK A   0      -2.541  10.177  15.649  0.00  0.00    +0.000 NA
ATOM     26  C   UNK A   0      -2.149  10.642  16.857  0.00  0.00    +0.000 A 
ATOM     27  N   UNK A   0      -0.877  10.532  17.347  0.00  0.00    +0.000 N 
ATOM     28  C   UNK A   0      -0.809  11.132  18.588  0.00  0.00    +0.000 A 
ATOM     29  C   UNK A   0      -2.073  11.615  18.888  0.00  0.00    +0.000 A 
ATOM     30  C   UNK A   0      -2.905  11.312  17.789  0.00  0.00    +0.000 A 
ATOM     31  C   UNK A   0      -4.285  11.574  17.473  0.00  0.00    +0.000 A 
ATOM     32  O   UNK A   0      -5.066  12.173  18.206  0.00  0.00    +0.000 OA
ATOM     33  N   UNK A   0      -4.651  11.080  16.235  0.00  0.00    +0.000 N 
ATOM     34  H   UNK A   0      -3.726   9.355  13.715  0.00  0.00    +0.000 HD
ATOM     35  H   UNK A   0      -5.297   9.730  14.209  0.00  0.00    +0.000 HD
ATOM     36  H   UNK A   0      -0.115  10.100  16.844  0.00  0.00    +0.000 HD
ATOM     37  H   UNK A   0      -5.594  11.278  15.952  0.00  0.00    +0.000 HD
ENDBRANCH  22  28
ENDBRANCH  21  22
ENDBRANCH   1  21
TORSDOF 11
ENDMDL
