MODEL 1
REMARK VINA RESULT:      -6.9      0.000      0.000
REMARK  Name = 
REMARK  13 active torsions:
REMARK  status: ('A' for Active; 'I' for Inactive)
REMARK    1  A    between atoms: C_1  and  C_2
REMARK    2  A    between atoms: C_2  and  C_3
REMARK    3  A    between atoms: C_6  and  C_7
REMARK    4  A    between atoms: C_7  and  C_8
REMARK    5  A    between atoms: C_7  and  N_11
REMARK    6  A    between atoms: C_8  and  O_9
REMARK    7  A    between atoms: O_9  and  C_10
REMARK    8  A    between atoms: N_11  and  S_12
REMARK    9  A    between atoms: S_12  and  C_15
REMARK   10  A    between atoms: C_15  and  C_16
REMARK   11  A    between atoms: C_16  and  O_17
REMARK   12  A    between atoms: O_17  and  C_18
REMARK   13  A    between atoms: C_18  and  C_19
REMARK                            x       y       z     vdW  Elec       q    Type
REMARK                         _______ _______ _______ _____ _____    ______ ____
ROOT
ATOM      1  N   UNL     1       5.726   3.819  16.844  0.00  0.00    +0.000 NA
ATOM      2  H   UNL     1       6.643   3.438  17.083  0.00  0.00    +0.000 HD
ENDROOT
BRANCH   1   3
ATOM      3  S   UNL     1       4.663   3.913  18.142  0.00  0.00    +0.000 S 
ATOM      4  O   UNL     1       5.412   3.540  19.325  0.00  0.00    +0.000 OA
ATOM      5  O   UNL     1       3.982   5.182  18.058  0.00  0.00    +0.000 OA
BRANCH   3   6
ATOM      6  C   UNL     1       3.491   2.597  17.858  0.00  0.00    +0.000 C 
BRANCH   6   7
ATOM      7  C   UNL     1       2.282   3.218  17.177  0.00  0.00    +0.000 C 
BRANCH   7   8
ATOM      8  O   UNL     1       1.149   3.230  18.048  0.00  0.00    +0.000 OA
BRANCH   8   9
ATOM      9  C   UNL     1       1.372   2.339  19.146  0.00  0.00    +0.000 C 
BRANCH   9  10
ATOM     10  C   UNL     1       1.040   3.038  20.422  0.00  0.00    +0.000 C 
ATOM     11  C   UNL     1       2.154   3.535  21.309  0.00  0.00    +0.000 C 
ATOM     12  C   UNL     1       1.283   4.517  20.578  0.00  0.00    +0.000 C 
ENDBRANCH   9  10
ENDBRANCH   8   9
ENDBRANCH   7   8
ENDBRANCH   6   7
ENDBRANCH   3   6
ENDBRANCH   1   3
BRANCH   1  13
ATOM     13  C   UNL     1       5.903   5.111  16.090  0.00  0.00    +0.000 C 
BRANCH  13  17
ATOM     14  C   UNL     1       6.053   3.632  12.809  0.00  0.00    +0.000 A 
ATOM     15  C   UNL     1       7.221   4.354  12.690  0.00  0.00    +0.000 A 
ATOM     16  C   UNL     1       7.355   5.096  13.887  0.00  0.00    +0.000 A 
ATOM     17  C   UNL     1       6.271   4.767  14.676  0.00  0.00    +0.000 A 
ATOM     18  O   UNL     1       5.456   3.893  14.007  0.00  0.00    +0.000 OA
BRANCH  14  20
ATOM     19  C   UNL     1       4.125   3.258  11.273  0.00  0.00    +0.000 C 
ATOM     20  C   UNL     1       5.370   2.664  11.914  0.00  0.00    +0.000 C 
ENDBRANCH  14  20
ENDBRANCH  13  17
BRANCH  13  21
ATOM     21  C   UNL     1       7.004   6.000  16.717  0.00  0.00    +0.000 C 
BRANCH  21  22
ATOM     22  O   UNL     1       7.806   5.299  17.676  0.00  0.00    +0.000 OA
ATOM     23  C   UNL     1       7.844   6.018  18.904  0.00  0.00    +0.000 C 
ENDBRANCH  21  22
ENDBRANCH  13  21
ENDBRANCH   1  13
TORSDOF 11
ENDMDL
MODEL 2
REMARK VINA RESULT:      -6.5      1.421      1.863
REMARK  Name = 
REMARK  13 active torsions:
REMARK  status: ('A' for Active; 'I' for Inactive)
REMARK    1  A    between atoms: C_1  and  C_2
REMARK    2  A    between atoms: C_2  and  C_3
REMARK    3  A    between atoms: C_6  and  C_7
REMARK    4  A    between atoms: C_7  and  C_8
REMARK    5  A    between atoms: C_7  and  N_11
REMARK    6  A    between atoms: C_8  and  O_9
REMARK    7  A    between atoms: O_9  and  C_10
REMARK    8  A    between atoms: N_11  and  S_12
REMARK    9  A    between atoms: S_12  and  C_15
REMARK   10  A    between atoms: C_15  and  C_16
REMARK   11  A    between atoms: C_16  and  O_17
REMARK   12  A    between atoms: O_17  and  C_18
REMARK   13  A    between atoms: C_18  and  C_19
REMARK                            x       y       z     vdW  Elec       q    Type
REMARK                         _______ _______ _______ _____ _____    ______ ____
ROOT
ATOM      1  N   UNL     1       5.631   3.520  16.413  0.00  0.00    +0.000 NA
ATOM      2  H   UNL     1       6.475   2.971  16.582  0.00  0.00    +0.000 HD
ENDROOT
BRANCH   1   3
ATOM      3  S   UNL     1       4.637   3.683  17.758  0.00  0.00    +0.000 S 
ATOM      4  O   UNL     1       3.615   2.661  17.651  0.00  0.00    +0.000 OA
ATOM      5  O   UNL     1       5.487   3.770  18.921  0.00  0.00    +0.000 OA
BRANCH   3   6
ATOM      6  C   UNL     1       3.808   5.245  17.517  0.00  0.00    +0.000 C 
BRANCH   6   7
ATOM      7  C   UNL     1       3.582   5.845  18.895  0.00  0.00    +0.000 C 
BRANCH   7   8
ATOM      8  O   UNL     1       2.193   5.869  19.227  0.00  0.00    +0.000 OA
BRANCH   8   9
ATOM      9  C   UNL     1       2.002   5.372  20.556  0.00  0.00    +0.000 C 
BRANCH   9  10
ATOM     10  C   UNL     1       2.233   3.898  20.567  0.00  0.00    +0.000 C 
ATOM     11  C   UNL     1       1.594   3.054  21.642  0.00  0.00    +0.000 C 
ATOM     12  C   UNL     1       1.123   2.939  20.220  0.00  0.00    +0.000 C 
ENDBRANCH   9  10
ENDBRANCH   8   9
ENDBRANCH   7   8
ENDBRANCH   6   7
ENDBRANCH   3   6
ENDBRANCH   1   3
BRANCH   1  13
ATOM     13  C   UNL     1       6.004   4.822  15.752  0.00  0.00    +0.000 C 
BRANCH  13  17
ATOM     14  C   UNL     1       6.084   3.407  12.440  0.00  0.00    +0.000 A 
ATOM     15  C   UNL     1       7.181   4.226  12.270  0.00  0.00    +0.000 A 
ATOM     16  C   UNL     1       7.323   4.958  13.471  0.00  0.00    +0.000 A 
ATOM     17  C   UNL     1       6.317   4.529  14.313  0.00  0.00    +0.000 A 
ATOM     18  O   UNL     1       5.539   3.601  13.675  0.00  0.00    +0.000 OA
BRANCH  14  20
ATOM     19  C   UNL     1       6.402   1.310  11.130  0.00  0.00    +0.000 C 
ATOM     20  C   UNL     1       5.433   2.399  11.567  0.00  0.00    +0.000 C 
ENDBRANCH  14  20
ENDBRANCH  13  17
BRANCH  13  21
ATOM     21  C   UNL     1       7.227   5.484  16.431  0.00  0.00    +0.000 C 
BRANCH  21  22
ATOM     22  O   UNL     1       7.145   6.915  16.452  0.00  0.00    +0.000 OA
ATOM     23  C   UNL     1       7.590   7.413  17.709  0.00  0.00    +0.000 C 
ENDBRANCH  21  22
ENDBRANCH  13  21
ENDBRANCH   1  13
TORSDOF 11
ENDMDL
MODEL 3
REMARK VINA RESULT:      -6.3      1.431      4.326
REMARK  Name = 
REMARK  13 active torsions:
REMARK  status: ('A' for Active; 'I' for Inactive)
REMARK    1  A    between atoms: C_1  and  C_2
REMARK    2  A    between atoms: C_2  and  C_3
REMARK    3  A    between atoms: C_6  and  C_7
REMARK    4  A    between atoms: C_7  and  C_8
REMARK    5  A    between atoms: C_7  and  N_11
REMARK    6  A    between atoms: C_8  and  O_9
REMARK    7  A    between atoms: O_9  and  C_10
REMARK    8  A    between atoms: N_11  and  S_12
REMARK    9  A    between atoms: S_12  and  C_15
REMARK   10  A    between atoms: C_15  and  C_16
REMARK   11  A    between atoms: C_16  and  O_17
REMARK   12  A    between atoms: O_17  and  C_18
REMARK   13  A    between atoms: C_18  and  C_19
REMARK                            x       y       z     vdW  Elec       q    Type
REMARK                         _______ _______ _______ _____ _____    ______ ____
ROOT
ATOM      1  N   UNL     1       4.878   4.777  16.228  0.00  0.00    +0.000 NA
ATOM      2  H   UNL     1       4.497   4.397  15.360  0.00  0.00    +0.000 HD
ENDROOT
BRANCH   1   3
ATOM      3  S   UNL     1       4.032   4.322  17.606  0.00  0.00    +0.000 S 
ATOM      4  O   UNL     1       4.805   3.278  18.248  0.00  0.00    +0.000 OA
ATOM      5  O   UNL     1       3.672   5.527  18.314  0.00  0.00    +0.000 OA
BRANCH   3   6
ATOM      6  C   UNL     1       2.553   3.539  16.987  0.00  0.00    +0.000 C 
BRANCH   6   7
ATOM      7  C   UNL     1       1.410   3.971  17.892  0.00  0.00    +0.000 C 
BRANCH   7   8
ATOM      8  O   UNL     1       0.606   2.854  18.278  0.00  0.00    +0.000 OA
BRANCH   8   9
ATOM      9  C   UNL     1       1.260   2.124  19.322  0.00  0.00    +0.000 C 
BRANCH   9  10
ATOM     10  C   UNL     1       1.569   3.051  20.450  0.00  0.00    +0.000 C 
ATOM     11  C   UNL     1       1.395   2.576  21.872  0.00  0.00    +0.000 C 
ATOM     12  C   UNL     1       2.774   2.825  21.328  0.00  0.00    +0.000 C 
ENDBRANCH   9  10
ENDBRANCH   8   9
ENDBRANCH   7   8
ENDBRANCH   6   7
ENDBRANCH   3   6
ENDBRANCH   1   3
BRANCH   1  13
ATOM     13  C   UNL     1       6.359   4.501  16.287  0.00  0.00    +0.000 C 
BRANCH  13  17
ATOM     14  C   UNL     1       7.704   7.493  17.773  0.00  0.00    +0.000 A 
ATOM     15  C   UNL     1       8.105   6.643  18.782  0.00  0.00    +0.000 A 
ATOM     16  C   UNL     1       7.621   5.360  18.438  0.00  0.00    +0.000 A 
ATOM     17  C   UNL     1       6.971   5.496  17.228  0.00  0.00    +0.000 A 
ATOM     18  O   UNL     1       6.994   6.807  16.832  0.00  0.00    +0.000 OA
BRANCH  14  20
ATOM     19  C   UNL     1       8.777   9.582  18.609  0.00  0.00    +0.000 C 
ATOM     20  C   UNL     1       7.907   8.945  17.537  0.00  0.00    +0.000 C 
ENDBRANCH  14  20
ENDBRANCH  13  17
BRANCH  13  21
ATOM     21  C   UNL     1       7.023   4.618  14.894  0.00  0.00    +0.000 C 
BRANCH  21  22
ATOM     22  O   UNL     1       6.208   4.085  13.842  0.00  0.00    +0.000 OA
ATOM     23  C   UNL     1       6.925   4.097  12.612  0.00  0.00    +0.000 C 
ENDBRANCH  21  22
ENDBRANCH  13  21
ENDBRANCH   1  13
TORSDOF 11
ENDMDL
MODEL 4
REMARK VINA RESULT:      -6.3      1.688      4.548
REMARK  Name = 
REMARK  13 active torsions:
REMARK  status: ('A' for Active; 'I' for Inactive)
REMARK    1  A    between atoms: C_1  and  C_2
REMARK    2  A    between atoms: C_2  and  C_3
REMARK    3  A    between atoms: C_6  and  C_7
REMARK    4  A    between atoms: C_7  and  C_8
REMARK    5  A    between atoms: C_7  and  N_11
REMARK    6  A    between atoms: C_8  and  O_9
REMARK    7  A    between atoms: O_9  and  C_10
REMARK    8  A    between atoms: N_11  and  S_12
REMARK    9  A    between atoms: S_12  and  C_15
REMARK   10  A    between atoms: C_15  and  C_16
REMARK   11  A    between atoms: C_16  and  O_17
REMARK   12  A    between atoms: O_17  and  C_18
REMARK   13  A    between atoms: C_18  and  C_19
REMARK                            x       y       z     vdW  Elec       q    Type
REMARK                         _______ _______ _______ _____ _____    ______ ____
ROOT
ATOM      1  N   UNL     1       4.540   5.308  16.484  0.00  0.00    +0.000 NA
ATOM      2  H   UNL     1       4.105   5.205  15.565  0.00  0.00    +0.000 HD
ENDROOT
BRANCH   1   3
ATOM      3  S   UNL     1       3.674   4.599  17.737  0.00  0.00    +0.000 S 
ATOM      4  O   UNL     1       3.788   5.484  18.879  0.00  0.00    +0.000 OA
ATOM      5  O   UNL     1       2.384   4.216  17.215  0.00  0.00    +0.000 OA
BRANCH   3   6
ATOM      6  C   UNL     1       4.601   3.131  18.150  0.00  0.00    +0.000 C 
BRANCH   6   7
ATOM      7  C   UNL     1       4.537   2.976  19.661  0.00  0.00    +0.000 C 
BRANCH   7   8
ATOM      8  O   UNL     1       3.353   2.282  20.058  0.00  0.00    +0.000 OA
BRANCH   8   9
ATOM      9  C   UNL     1       2.832   2.862  21.260  0.00  0.00    +0.000 C 
BRANCH   9  10
ATOM     10  C   UNL     1       1.364   3.081  21.103  0.00  0.00    +0.000 C 
ATOM     11  C   UNL     1       0.870   4.308  20.376  0.00  0.00    +0.000 C 
ATOM     12  C   UNL     1       0.702   2.949  19.755  0.00  0.00    +0.000 C 
ENDBRANCH   9  10
ENDBRANCH   8   9
ENDBRANCH   7   8
ENDBRANCH   6   7
ENDBRANCH   3   6
ENDBRANCH   1   3
BRANCH   1  13
ATOM     13  C   UNL     1       5.983   4.884  16.406  0.00  0.00    +0.000 C 
BRANCH  13  17
ATOM     14  C   UNL     1       7.721   7.705  17.818  0.00  0.00    +0.000 A 
ATOM     15  C   UNL     1       8.164   6.788  18.747  0.00  0.00    +0.000 A 
ATOM     16  C   UNL     1       7.545   5.559  18.422  0.00  0.00    +0.000 A 
ATOM     17  C   UNL     1       6.775   5.792  17.301  0.00  0.00    +0.000 A 
ATOM     18  O   UNL     1       6.857   7.112  16.945  0.00  0.00    +0.000 OA
BRANCH  14  20
ATOM     19  C   UNL     1       8.912   9.714  18.690  0.00  0.00    +0.000 C 
ATOM     20  C   UNL     1       8.009   9.146  17.605  0.00  0.00    +0.000 C 
ENDBRANCH  14  20
ENDBRANCH  13  17
BRANCH  13  21
ATOM     21  C   UNL     1       6.531   4.963  14.960  0.00  0.00    +0.000 C 
BRANCH  21  22
ATOM     22  O   UNL     1       6.448   3.713  14.264  0.00  0.00    +0.000 OA
ATOM     23  C   UNL     1       6.524   3.927  12.859  0.00  0.00    +0.000 C 
ENDBRANCH  21  22
ENDBRANCH  13  21
ENDBRANCH   1  13
TORSDOF 11
ENDMDL
MODEL 5
REMARK VINA RESULT:      -6.2      2.973      7.014
REMARK  Name = 
REMARK  13 active torsions:
REMARK  status: ('A' for Active; 'I' for Inactive)
REMARK    1  A    between atoms: C_1  and  C_2
REMARK    2  A    between atoms: C_2  and  C_3
REMARK    3  A    between atoms: C_6  and  C_7
REMARK    4  A    between atoms: C_7  and  C_8
REMARK    5  A    between atoms: C_7  and  N_11
REMARK    6  A    between atoms: C_8  and  O_9
REMARK    7  A    between atoms: O_9  and  C_10
REMARK    8  A    between atoms: N_11  and  S_12
REMARK    9  A    between atoms: S_12  and  C_15
REMARK   10  A    between atoms: C_15  and  C_16
REMARK   11  A    between atoms: C_16  and  O_17
REMARK   12  A    between atoms: O_17  and  C_18
REMARK   13  A    between atoms: C_18  and  C_19
REMARK                            x       y       z     vdW  Elec       q    Type
REMARK                         _______ _______ _______ _____ _____    ______ ____
ROOT
ATOM      1  N   UNL     1       4.228   5.309  19.449  0.00  0.00    +0.000 NA
ATOM      2  H   UNL     1       4.257   5.338  20.469  0.00  0.00    +0.000 HD
ENDROOT
BRANCH   1   3
ATOM      3  S   UNL     1       5.085   4.031  18.773  0.00  0.00    +0.000 S 
ATOM      4  O   UNL     1       6.490   4.300  19.007  0.00  0.00    +0.000 OA
ATOM      5  O   UNL     1       4.473   2.807  19.228  0.00  0.00    +0.000 OA
BRANCH   3   6
ATOM      6  C   UNL     1       4.831   4.200  17.015  0.00  0.00    +0.000 C 
BRANCH   6   7
ATOM      7  C   UNL     1       6.029   4.956  16.464  0.00  0.00    +0.000 C 
BRANCH   7   8
ATOM      8  O   UNL     1       5.662   6.274  16.051  0.00  0.00    +0.000 OA
BRANCH   8   9
ATOM      9  C   UNL     1       5.997   7.215  17.077  0.00  0.00    +0.000 C 
BRANCH   9  10
ATOM     10  C   UNL     1       7.480   7.266  17.233  0.00  0.00    +0.000 C 
ATOM     11  C   UNL     1       8.121   8.484  17.850  0.00  0.00    +0.000 C 
ATOM     12  C   UNL     1       8.117   7.180  18.596  0.00  0.00    +0.000 C 
ENDBRANCH   9  10
ENDBRANCH   8   9
ENDBRANCH   7   8
ENDBRANCH   6   7
ENDBRANCH   3   6
ENDBRANCH   1   3
BRANCH   1  13
ATOM     13  C   UNL     1       2.798   5.414  18.986  0.00  0.00    +0.000 C 
BRANCH  13  17
ATOM     14  C   UNL     1       1.556   8.754  19.509  0.00  0.00    +0.000 A 
ATOM     15  C   UNL     1       1.970   8.960  18.211  0.00  0.00    +0.000 A 
ATOM     16  C   UNL     1       2.571   7.753  17.787  0.00  0.00    +0.000 A 
ATOM     17  C   UNL     1       2.470   6.871  18.845  0.00  0.00    +0.000 A 
ATOM     18  O   UNL     1       1.875   7.491  19.911  0.00  0.00    +0.000 OA
BRANCH  14  20
ATOM     19  C   UNL     1       0.090   8.799  21.525  0.00  0.00    +0.000 C 
ATOM     20  C   UNL     1       0.852   9.616  20.493  0.00  0.00    +0.000 C 
ENDBRANCH  14  20
ENDBRANCH  13  17
BRANCH  13  21
ATOM     21  C   UNL     1       1.819   4.750  19.984  0.00  0.00    +0.000 C 
BRANCH  21  22
ATOM     22  O   UNL     1       2.404   4.526  21.273  0.00  0.00    +0.000 OA
ATOM     23  C   UNL     1       2.052   3.234  21.755  0.00  0.00    +0.000 C 
ENDBRANCH  21  22
ENDBRANCH  13  21
ENDBRANCH   1  13
TORSDOF 11
ENDMDL
MODEL 6
REMARK VINA RESULT:      -6.1      2.493      6.848
REMARK  Name = 
REMARK  13 active torsions:
REMARK  status: ('A' for Active; 'I' for Inactive)
REMARK    1  A    between atoms: C_1  and  C_2
REMARK    2  A    between atoms: C_2  and  C_3
REMARK    3  A    between atoms: C_6  and  C_7
REMARK    4  A    between atoms: C_7  and  C_8
REMARK    5  A    between atoms: C_7  and  N_11
REMARK    6  A    between atoms: C_8  and  O_9
REMARK    7  A    between atoms: O_9  and  C_10
REMARK    8  A    between atoms: N_11  and  S_12
REMARK    9  A    between atoms: S_12  and  C_15
REMARK   10  A    between atoms: C_15  and  C_16
REMARK   11  A    between atoms: C_16  and  O_17
REMARK   12  A    between atoms: O_17  and  C_18
REMARK   13  A    between atoms: C_18  and  C_19
REMARK                            x       y       z     vdW  Elec       q    Type
REMARK                         _______ _______ _______ _____ _____    ______ ____
ROOT
ATOM      1  N   UNL     1       5.289   4.390  18.375  0.00  0.00    +0.000 NA
ATOM      2  H   UNL     1       5.309   3.407  18.653  0.00  0.00    +0.000 HD
ENDROOT
BRANCH   1   3
ATOM      3  S   UNL     1       6.711   4.929  17.659  0.00  0.00    +0.000 S 
ATOM      4  O   UNL     1       6.599   6.369  17.540  0.00  0.00    +0.000 OA
ATOM      5  O   UNL     1       7.813   4.322  18.366  0.00  0.00    +0.000 OA
BRANCH   3   6
ATOM      6  C   UNL     1       6.650   4.285  15.996  0.00  0.00    +0.000 C 
BRANCH   6   7
ATOM      7  C   UNL     1       7.289   5.328  15.093  0.00  0.00    +0.000 C 
BRANCH   7   8
ATOM      8  O   UNL     1       7.073   5.019  13.715  0.00  0.00    +0.000 OA
BRANCH   8   9
ATOM      9  C   UNL     1       6.225   3.870  13.603  0.00  0.00    +0.000 C 
BRANCH   9  10
ATOM     10  C   UNL     1       5.982   3.577  12.159  0.00  0.00    +0.000 C 
ATOM     11  C   UNL     1       5.633   2.172  11.735  0.00  0.00    +0.000 C 
ATOM     12  C   UNL     1       4.597   3.258  11.658  0.00  0.00    +0.000 C 
ENDBRANCH   9  10
ENDBRANCH   8   9
ENDBRANCH   7   8
ENDBRANCH   6   7
ENDBRANCH   3   6
ENDBRANCH   1   3
BRANCH   1  13
ATOM     13  C   UNL     1       4.045   4.657  17.567  0.00  0.00    +0.000 C 
BRANCH  13  17
ATOM     14  C   UNL     1       2.450   7.770  18.427  0.00  0.00    +0.000 A 
ATOM     15  C   UNL     1       2.276   7.178  19.660  0.00  0.00    +0.000 A 
ATOM     16  C   UNL     1       2.795   5.867  19.550  0.00  0.00    +0.000 A 
ATOM     17  C   UNL     1       3.275   5.742  18.262  0.00  0.00    +0.000 A 
ATOM     18  O   UNL     1       3.039   6.894  17.562  0.00  0.00    +0.000 OA
BRANCH  14  20
ATOM     19  C   UNL     1       0.840   9.672  18.484  0.00  0.00    +0.000 C 
ATOM     20  C   UNL     1       2.134   9.123  17.904  0.00  0.00    +0.000 C 
ENDBRANCH  14  20
ENDBRANCH  13  17
BRANCH  13  21
ATOM     21  C   UNL     1       3.164   3.392  17.430  0.00  0.00    +0.000 C 
BRANCH  21  22
ATOM     22  O   UNL     1       3.434   2.413  18.442  0.00  0.00    +0.000 OA
ATOM     23  C   UNL     1       2.255   2.148  19.195  0.00  0.00    +0.000 C 
ENDBRANCH  21  22
ENDBRANCH  13  21
ENDBRANCH   1  13
TORSDOF 11
ENDMDL
MODEL 7
REMARK VINA RESULT:      -6.1      2.943      7.643
REMARK  Name = 
REMARK  13 active torsions:
REMARK  status: ('A' for Active; 'I' for Inactive)
REMARK    1  A    between atoms: C_1  and  C_2
REMARK    2  A    between atoms: C_2  and  C_3
REMARK    3  A    between atoms: C_6  and  C_7
REMARK    4  A    between atoms: C_7  and  C_8
REMARK    5  A    between atoms: C_7  and  N_11
REMARK    6  A    between atoms: C_8  and  O_9
REMARK    7  A    between atoms: O_9  and  C_10
REMARK    8  A    between atoms: N_11  and  S_12
REMARK    9  A    between atoms: S_12  and  C_15
REMARK   10  A    between atoms: C_15  and  C_16
REMARK   11  A    between atoms: C_16  and  O_17
REMARK   12  A    between atoms: O_17  and  C_18
REMARK   13  A    between atoms: C_18  and  C_19
REMARK                            x       y       z     vdW  Elec       q    Type
REMARK                         _______ _______ _______ _____ _____    ______ ____
ROOT
ATOM      1  N   UNL     1       5.949   4.225  18.440  0.00  0.00    +0.000 NA
ATOM      2  H   UNL     1       5.999   3.231  18.211  0.00  0.00    +0.000 HD
ENDROOT
BRANCH   1   3
ATOM      3  S   UNL     1       7.367   5.072  18.133  0.00  0.00    +0.000 S 
ATOM      4  O   UNL     1       8.057   5.207  19.400  0.00  0.00    +0.000 OA
ATOM      5  O   UNL     1       8.007   4.456  16.996  0.00  0.00    +0.000 OA
BRANCH   3   6
ATOM      6  C   UNL     1       6.823   6.712  17.685  0.00  0.00    +0.000 C 
BRANCH   6   7
ATOM      7  C   UNL     1       8.069   7.573  17.554  0.00  0.00    +0.000 C 
BRANCH   7   8
ATOM      8  O   UNL     1       7.776   8.947  17.810  0.00  0.00    +0.000 OA
BRANCH   8   9
ATOM      9  C   UNL     1       8.756   9.495  18.699  0.00  0.00    +0.000 C 
BRANCH   9  10
ATOM     10  C   UNL     1       9.045  10.905  18.304  0.00  0.00    +0.000 C 
ATOM     11  C   UNL     1       9.962  11.743  19.161  0.00  0.00    +0.000 C 
ATOM     12  C   UNL     1      10.408  11.301  17.795  0.00  0.00    +0.000 C 
ENDBRANCH   9  10
ENDBRANCH   8   9
ENDBRANCH   7   8
ENDBRANCH   6   7
ENDBRANCH   3   6
ENDBRANCH   1   3
BRANCH   1  13
ATOM     13  C   UNL     1       4.717   4.823  17.810  0.00  0.00    +0.000 C 
BRANCH  13  17
ATOM     14  C   UNL     1       2.581   4.576  20.700  0.00  0.00    +0.000 A 
ATOM     15  C   UNL     1       2.076   5.779  20.255  0.00  0.00    +0.000 A 
ATOM     16  C   UNL     1       2.828   6.129  19.110  0.00  0.00    +0.000 A 
ATOM     17  C   UNL     1       3.736   5.108  18.910  0.00  0.00    +0.000 A 
ATOM     18  O   UNL     1       3.607   4.169  19.899  0.00  0.00    +0.000 OA
BRANCH  14  20
ATOM     19  C   UNL     1       1.339   2.527  21.389  0.00  0.00    +0.000 C 
ATOM     20  C   UNL     1       2.219   3.687  21.832  0.00  0.00    +0.000 C 
ENDBRANCH  14  20
ENDBRANCH  13  17
BRANCH  13  21
ATOM     21  C   UNL     1       4.080   3.869  16.772  0.00  0.00    +0.000 C 
BRANCH  21  22
ATOM     22  O   UNL     1       2.744   3.481  17.117  0.00  0.00    +0.000 OA
ATOM     23  C   UNL     1       2.720   2.122  17.539  0.00  0.00    +0.000 C 
ENDBRANCH  21  22
ENDBRANCH  13  21
ENDBRANCH   1  13
TORSDOF 11
ENDMDL
MODEL 8
REMARK VINA RESULT:      -6.1      3.202      7.248
REMARK  Name = 
REMARK  13 active torsions:
REMARK  status: ('A' for Active; 'I' for Inactive)
REMARK    1  A    between atoms: C_1  and  C_2
REMARK    2  A    between atoms: C_2  and  C_3
REMARK    3  A    between atoms: C_6  and  C_7
REMARK    4  A    between atoms: C_7  and  C_8
REMARK    5  A    between atoms: C_7  and  N_11
REMARK    6  A    between atoms: C_8  and  O_9
REMARK    7  A    between atoms: O_9  and  C_10
REMARK    8  A    between atoms: N_11  and  S_12
REMARK    9  A    between atoms: S_12  and  C_15
REMARK   10  A    between atoms: C_15  and  C_16
REMARK   11  A    between atoms: C_16  and  O_17
REMARK   12  A    between atoms: O_17  and  C_18
REMARK   13  A    between atoms: C_18  and  C_19
REMARK                            x       y       z     vdW  Elec       q    Type
REMARK                         _______ _______ _______ _____ _____    ______ ____
ROOT
ATOM      1  N   UNL     1       5.437   5.444  17.162  0.00  0.00    +0.000 NA
ATOM      2  H   UNL     1       5.521   6.053  16.346  0.00  0.00    +0.000 HD
ENDROOT
BRANCH   1   3
ATOM      3  S   UNL     1       6.899   5.096  17.913  0.00  0.00    +0.000 S 
ATOM      4  O   UNL     1       6.581   4.461  19.176  0.00  0.00    +0.000 OA
ATOM      5  O   UNL     1       7.745   4.445  16.943  0.00  0.00    +0.000 OA
BRANCH   3   6
ATOM      6  C   UNL     1       7.587   6.692  18.318  0.00  0.00    +0.000 C 
BRANCH   6   7
ATOM      7  C   UNL     1       7.408   7.576  17.094  0.00  0.00    +0.000 C 
BRANCH   7   8
ATOM      8  O   UNL     1       7.983   8.867  17.301  0.00  0.00    +0.000 OA
BRANCH   8   9
ATOM      9  C   UNL     1       8.659   8.901  18.563  0.00  0.00    +0.000 C 
BRANCH   9  10
ATOM     10  C   UNL     1       8.838  10.321  18.987  0.00  0.00    +0.000 C 
ATOM     11  C   UNL     1      10.230  10.870  19.176  0.00  0.00    +0.000 C 
ATOM     12  C   UNL     1       9.384  11.350  18.031  0.00  0.00    +0.000 C 
ENDBRANCH   9  10
ENDBRANCH   8   9
ENDBRANCH   7   8
ENDBRANCH   6   7
ENDBRANCH   3   6
ENDBRANCH   1   3
BRANCH   1  13
ATOM     13  C   UNL     1       4.376   5.987  18.084  0.00  0.00    +0.000 C 
BRANCH  13  17
ATOM     14  C   UNL     1       1.835   3.780  19.365  0.00  0.00    +0.000 A 
ATOM     15  C   UNL     1       1.958   3.157  18.142  0.00  0.00    +0.000 A 
ATOM     16  C   UNL     1       2.901   3.908  17.404  0.00  0.00    +0.000 A 
ATOM     17  C   UNL     1       3.315   4.936  18.228  0.00  0.00    +0.000 A 
ATOM     18  O   UNL     1       2.642   4.878  19.419  0.00  0.00    +0.000 OA
BRANCH  14  20
ATOM     19  C   UNL     1       1.800   2.638  21.581  0.00  0.00    +0.000 C 
ATOM     20  C   UNL     1       1.028   3.478  20.575  0.00  0.00    +0.000 C 
ENDBRANCH  14  20
ENDBRANCH  13  17
BRANCH  13  21
ATOM     21  C   UNL     1       3.751   7.294  17.538  0.00  0.00    +0.000 C 
BRANCH  21  22
ATOM     22  O   UNL     1       2.584   7.698  18.265  0.00  0.00    +0.000 OA
ATOM     23  C   UNL     1       2.105   8.944  17.770  0.00  0.00    +0.000 C 
ENDBRANCH  21  22
ENDBRANCH  13  21
ENDBRANCH   1  13
TORSDOF 11
ENDMDL
MODEL 9
REMARK VINA RESULT:      -6.0      3.196      6.962
REMARK  Name = 
REMARK  13 active torsions:
REMARK  status: ('A' for Active; 'I' for Inactive)
REMARK    1  A    between atoms: C_1  and  C_2
REMARK    2  A    between atoms: C_2  and  C_3
REMARK    3  A    between atoms: C_6  and  C_7
REMARK    4  A    between atoms: C_7  and  C_8
REMARK    5  A    between atoms: C_7  and  N_11
REMARK    6  A    between atoms: C_8  and  O_9
REMARK    7  A    between atoms: O_9  and  C_10
REMARK    8  A    between atoms: N_11  and  S_12
REMARK    9  A    between atoms: S_12  and  C_15
REMARK   10  A    between atoms: C_15  and  C_16
REMARK   11  A    between atoms: C_16  and  O_17
REMARK   12  A    between atoms: O_17  and  C_18
REMARK   13  A    between atoms: C_18  and  C_19
REMARK                            x       y       z     vdW  Elec       q    Type
REMARK                         _______ _______ _______ _____ _____    ______ ____
ROOT
ATOM      1  N   UNL     1       4.104   5.323  19.584  0.00  0.00    +0.000 NA
ATOM      2  H   UNL     1       4.314   5.288  20.583  0.00  0.00    +0.000 HD
ENDROOT
BRANCH   1   3
ATOM      3  S   UNL     1       4.716   4.026  18.708  0.00  0.00    +0.000 S 
ATOM      4  O   UNL     1       6.158   4.079  18.834  0.00  0.00    +0.000 OA
ATOM      5  O   UNL     1       3.975   2.850  19.095  0.00  0.00    +0.000 OA
BRANCH   3   6
ATOM      6  C   UNL     1       4.349   4.420  17.007  0.00  0.00    +0.000 C 
BRANCH   6   7
ATOM      7  C   UNL     1       5.670   4.413  16.255  0.00  0.00    +0.000 C 
BRANCH   7   8
ATOM      8  O   UNL     1       5.984   5.714  15.753  0.00  0.00    +0.000 OA
BRANCH   8   9
ATOM      9  C   UNL     1       7.251   6.139  16.267  0.00  0.00    +0.000 C 
BRANCH   9  10
ATOM     10  C   UNL     1       7.030   7.061  17.420  0.00  0.00    +0.000 C 
ATOM     11  C   UNL     1       8.017   7.075  18.561  0.00  0.00    +0.000 C 
ATOM     12  C   UNL     1       7.923   8.256  17.636  0.00  0.00    +0.000 C 
ENDBRANCH   9  10
ENDBRANCH   8   9
ENDBRANCH   7   8
ENDBRANCH   6   7
ENDBRANCH   3   6
ENDBRANCH   1   3
BRANCH   1  13
ATOM     13  C   UNL     1       2.629   5.565  19.391  0.00  0.00    +0.000 C 
BRANCH  13  17
ATOM     14  C   UNL     1       1.578   9.001  19.143  0.00  0.00    +0.000 A 
ATOM     15  C   UNL     1       2.258   8.975  17.945  0.00  0.00    +0.000 A 
ATOM     16  C   UNL     1       2.833   7.688  17.839  0.00  0.00    +0.000 A 
ATOM     17  C   UNL     1       2.453   6.994  18.970  0.00  0.00    +0.000 A 
ATOM     18  O   UNL     1       1.709   7.805  19.785  0.00  0.00    +0.000 OA
BRANCH  14  20
ATOM     19  C   UNL     1       0.566  11.270  18.944  0.00  0.00    +0.000 C 
ATOM     20  C   UNL     1       0.762  10.041  19.819  0.00  0.00    +0.000 C 
ENDBRANCH  14  20
ENDBRANCH  13  17
BRANCH  13  21
ATOM     21  C   UNL     1       1.827   5.296  20.687  0.00  0.00    +0.000 C 
BRANCH  21  22
ATOM     22  O   UNL     1       1.132   4.043  20.662  0.00  0.00    +0.000 OA
ATOM     23  C   UNL     1       1.713   3.140  21.596  0.00  0.00    +0.000 C 
ENDBRANCH  21  22
ENDBRANCH  13  21
ENDBRANCH   1  13
TORSDOF 11
ENDMDL
