MODEL 1
REMARK VINA RESULT:      -7.5      0.000      0.000
REMARK  Name = 
REMARK  9 active torsions:
REMARK  status: ('A' for Active; 'I' for Inactive)
REMARK    1  A    between atoms: C_1  and  C_2
REMARK    2  A    between atoms: C_2  and  O_4
REMARK    3  A    between atoms: O_4  and  C_5
REMARK    4  A    between atoms: C_5  and  C_6
REMARK    5  A    between atoms: C_5  and  C_18
REMARK    6  A    between atoms: C_6  and  C_8
REMARK    7  A    between atoms: C_8  and  C_9
REMARK    8  A    between atoms: C_18  and  C_19
REMARK    9  A    between atoms: C_18  and  C_20
REMARK                            x       y       z     vdW  Elec       q    Type
REMARK                         _______ _______ _______ _____ _____    ______ ____
ROOT
ATOM      1  C   UNL     1       4.072   4.173  16.976  0.00  0.00    +0.000 C 
ENDROOT
BRANCH   1   2
ATOM      2  C   UNL     1       4.031   3.524  18.322  0.00  0.00    +0.000 A 
ATOM      3  C   UNL     1       5.035   2.776  18.906  0.00  0.00    +0.000 A 
ATOM      4  N   UNL     1       4.591   2.328  20.121  0.00  0.00    +0.000 N 
ATOM      5  C   UNL     1       3.309   2.769  20.350  0.00  0.00    +0.000 A 
ATOM      6  C   UNL     1       2.453   2.539  21.434  0.00  0.00    +0.000 A 
ATOM      7  C   UNL     1       1.181   3.120  21.393  0.00  0.00    +0.000 A 
ATOM      8  C   UNL     1       0.797   3.926  20.327  0.00  0.00    +0.000 A 
ATOM      9  C   UNL     1       1.677   4.165  19.268  0.00  0.00    +0.000 A 
ATOM     10  C   UNL     1       2.944   3.552  19.255  0.00  0.00    +0.000 A 
ATOM     11  H   UNL     1       5.119   1.747  20.756  0.00  0.00    +0.000 HD
ENDBRANCH   1   2
BRANCH   1  12
ATOM     12  C   UNL     1       4.455   5.645  17.054  0.00  0.00    +0.000 C 
ATOM     13  O   UNL     1       3.647   6.505  17.420  0.00  0.00    +0.000 OA
BRANCH  12  14
ATOM     14  C   UNL     1       5.885   6.004  16.632  0.00  0.00    +0.000 C 
BRANCH  14  15
ATOM     15  C   UNL     1       6.761   6.454  17.824  0.00  0.00    +0.000 C 
ATOM     16  C   UNL     1       7.654   5.310  18.320  0.00  0.00    +0.000 C 
ATOM     17  C   UNL     1       7.643   7.653  17.462  0.00  0.00    +0.000 C 
ENDBRANCH  14  15
BRANCH  14  18
ATOM     18  O   UNL     1       6.443   4.801  16.073  0.00  0.00    +0.000 OA
BRANCH  18  20
ATOM     19  C   UNL     1       6.087   3.973  13.901  0.00  0.00    +0.000 C 
ATOM     20  C   UNL     1       6.896   4.865  14.798  0.00  0.00    +0.000 C 
ATOM     21  O   UNL     1       7.830   5.551  14.414  0.00  0.00    +0.000 OA
ENDBRANCH  18  20
ENDBRANCH  14  18
ENDBRANCH  12  14
ENDBRANCH   1  12
TORSDOF 6
ENDMDL
MODEL 2
REMARK VINA RESULT:      -7.1      1.810      2.110
REMARK  Name = 
REMARK  9 active torsions:
REMARK  status: ('A' for Active; 'I' for Inactive)
REMARK    1  A    between atoms: C_1  and  C_2
REMARK    2  A    between atoms: C_2  and  O_4
REMARK    3  A    between atoms: O_4  and  C_5
REMARK    4  A    between atoms: C_5  and  C_6
REMARK    5  A    between atoms: C_5  and  C_18
REMARK    6  A    between atoms: C_6  and  C_8
REMARK    7  A    between atoms: C_8  and  C_9
REMARK    8  A    between atoms: C_18  and  C_19
REMARK    9  A    between atoms: C_18  and  C_20
REMARK                            x       y       z     vdW  Elec       q    Type
REMARK                         _______ _______ _______ _____ _____    ______ ____
ROOT
ATOM      1  C   UNL     1       3.821   6.285  17.288  0.00  0.00    +0.000 C 
ENDROOT
BRANCH   1   2
ATOM      2  C   UNL     1       3.001   5.977  18.498  0.00  0.00    +0.000 A 
ATOM      3  C   UNL     1       2.857   6.772  19.620  0.00  0.00    +0.000 A 
ATOM      4  N   UNL     1       2.057   6.117  20.515  0.00  0.00    +0.000 N 
ATOM      5  C   UNL     1       1.667   4.902  20.004  0.00  0.00    +0.000 A 
ATOM      6  C   UNL     1       0.877   3.893  20.571  0.00  0.00    +0.000 A 
ATOM      7  C   UNL     1       0.647   2.743  19.809  0.00  0.00    +0.000 A 
ATOM      8  C   UNL     1       1.158   2.624  18.520  0.00  0.00    +0.000 A 
ATOM      9  C   UNL     1       1.921   3.654  17.964  0.00  0.00    +0.000 A 
ATOM     10  C   UNL     1       2.215   4.802  18.726  0.00  0.00    +0.000 A 
ATOM     11  H   UNL     1       1.796   6.466  21.427  0.00  0.00    +0.000 HD
ENDBRANCH   1   2
BRANCH   1  12
ATOM     12  C   UNL     1       5.079   5.430  17.208  0.00  0.00    +0.000 C 
ATOM     13  O   UNL     1       5.065   4.230  17.499  0.00  0.00    +0.000 OA
BRANCH  12  14
ATOM     14  C   UNL     1       6.366   6.143  16.772  0.00  0.00    +0.000 C 
BRANCH  14  15
ATOM     15  C   UNL     1       7.089   6.836  17.951  0.00  0.00    +0.000 C 
ATOM     16  C   UNL     1       7.924   5.834  18.757  0.00  0.00    +0.000 C 
ATOM     17  C   UNL     1       7.999   7.971  17.471  0.00  0.00    +0.000 C 
ENDBRANCH  14  15
BRANCH  14  18
ATOM     18  O   UNL     1       7.223   5.116  16.241  0.00  0.00    +0.000 OA
BRANCH  18  20
ATOM     19  C   UNL     1       6.305   3.914  14.440  0.00  0.00    +0.000 C 
ATOM     20  C   UNL     1       7.261   4.979  14.894  0.00  0.00    +0.000 C 
ATOM     21  O   UNL     1       7.967   5.629  14.138  0.00  0.00    +0.000 OA
ENDBRANCH  18  20
ENDBRANCH  14  18
ENDBRANCH  12  14
ENDBRANCH   1  12
TORSDOF 6
ENDMDL
MODEL 3
REMARK VINA RESULT:      -7.1      1.605      2.937
REMARK  Name = 
REMARK  9 active torsions:
REMARK  status: ('A' for Active; 'I' for Inactive)
REMARK    1  A    between atoms: C_1  and  C_2
REMARK    2  A    between atoms: C_2  and  O_4
REMARK    3  A    between atoms: O_4  and  C_5
REMARK    4  A    between atoms: C_5  and  C_6
REMARK    5  A    between atoms: C_5  and  C_18
REMARK    6  A    between atoms: C_6  and  C_8
REMARK    7  A    between atoms: C_8  and  C_9
REMARK    8  A    between atoms: C_18  and  C_19
REMARK    9  A    between atoms: C_18  and  C_20
REMARK                            x       y       z     vdW  Elec       q    Type
REMARK                         _______ _______ _______ _____ _____    ______ ____
ROOT
ATOM      1  C   UNL     1       3.971   4.586  16.408  0.00  0.00    +0.000 C 
ENDROOT
BRANCH   1   2
ATOM      2  C   UNL     1       3.649   4.858  17.841  0.00  0.00    +0.000 A 
ATOM      3  C   UNL     1       4.265   5.783  18.663  0.00  0.00    +0.000 A 
ATOM      4  N   UNL     1       3.707   5.697  19.909  0.00  0.00    +0.000 N 
ATOM      5  C   UNL     1       2.730   4.729  19.925  0.00  0.00    +0.000 A 
ATOM      6  C   UNL     1       1.920   4.278  20.976  0.00  0.00    +0.000 A 
ATOM      7  C   UNL     1       1.002   3.260  20.698  0.00  0.00    +0.000 A 
ATOM      8  C   UNL     1       0.877   2.741  19.414  0.00  0.00    +0.000 A 
ATOM      9  C   UNL     1       1.676   3.224  18.374  0.00  0.00    +0.000 A 
ATOM     10  C   UNL     1       2.647   4.211  18.634  0.00  0.00    +0.000 A 
ATOM     11  H   UNL     1       3.978   6.251  20.709  0.00  0.00    +0.000 HD
ENDBRANCH   1   2
BRANCH   1  12
ATOM     12  C   UNL     1       5.205   5.346  15.937  0.00  0.00    +0.000 C 
ATOM     13  O   UNL     1       5.147   6.538  15.619  0.00  0.00    +0.000 OA
BRANCH  12  14
ATOM     14  C   UNL     1       6.512   4.548  15.857  0.00  0.00    +0.000 C 
BRANCH  14  15
ATOM     15  C   UNL     1       6.904   4.196  14.404  0.00  0.00    +0.000 C 
ATOM     16  C   UNL     1       5.672   3.827  13.569  0.00  0.00    +0.000 C 
ATOM     17  C   UNL     1       7.643   5.350  13.718  0.00  0.00    +0.000 C 
ENDBRANCH  14  15
BRANCH  14  18
ATOM     18  O   UNL     1       7.527   5.401  16.418  0.00  0.00    +0.000 OA
BRANCH  18  20
ATOM     19  C   UNL     1       7.786   6.847  18.254  0.00  0.00    +0.000 C 
ATOM     20  C   UNL     1       7.627   5.435  17.769  0.00  0.00    +0.000 C 
ATOM     21  O   UNL     1       7.591   4.461  18.505  0.00  0.00    +0.000 OA
ENDBRANCH  18  20
ENDBRANCH  14  18
ENDBRANCH  12  14
ENDBRANCH   1  12
TORSDOF 6
ENDMDL
MODEL 4
REMARK VINA RESULT:      -7.1      1.236      1.913
REMARK  Name = 
REMARK  9 active torsions:
REMARK  status: ('A' for Active; 'I' for Inactive)
REMARK    1  A    between atoms: C_1  and  C_2
REMARK    2  A    between atoms: C_2  and  O_4
REMARK    3  A    between atoms: O_4  and  C_5
REMARK    4  A    between atoms: C_5  and  C_6
REMARK    5  A    between atoms: C_5  and  C_18
REMARK    6  A    between atoms: C_6  and  C_8
REMARK    7  A    between atoms: C_8  and  C_9
REMARK    8  A    between atoms: C_18  and  C_19
REMARK    9  A    between atoms: C_18  and  C_20
REMARK                            x       y       z     vdW  Elec       q    Type
REMARK                         _______ _______ _______ _____ _____    ______ ____
ROOT
ATOM      1  C   UNL     1       4.761   4.093  17.496  0.00  0.00    +0.000 C 
ENDROOT
BRANCH   1   2
ATOM      2  C   UNL     1       3.353   3.907  17.958  0.00  0.00    +0.000 A 
ATOM      3  C   UNL     1       2.206   4.186  17.237  0.00  0.00    +0.000 A 
ATOM      4  N   UNL     1       1.122   3.915  18.026  0.00  0.00    +0.000 N 
ATOM      5  C   UNL     1       1.532   3.461  19.258  0.00  0.00    +0.000 A 
ATOM      6  C   UNL     1       0.782   3.091  20.382  0.00  0.00    +0.000 A 
ATOM      7  C   UNL     1       1.480   2.666  21.517  0.00  0.00    +0.000 A 
ATOM      8  C   UNL     1       2.868   2.581  21.514  0.00  0.00    +0.000 A 
ATOM      9  C   UNL     1       3.595   2.929  20.372  0.00  0.00    +0.000 A 
ATOM     10  C   UNL     1       2.925   3.411  19.231  0.00  0.00    +0.000 A 
ATOM     11  H   UNL     1       0.157   4.041  17.754  0.00  0.00    +0.000 HD
ENDBRANCH   1   2
BRANCH   1  12
ATOM     12  C   UNL     1       5.199   5.552  17.545  0.00  0.00    +0.000 C 
ATOM     13  O   UNL     1       4.581   6.390  18.209  0.00  0.00    +0.000 OA
BRANCH  12  14
ATOM     14  C   UNL     1       6.430   5.926  16.710  0.00  0.00    +0.000 C 
BRANCH  14  15
ATOM     15  C   UNL     1       7.620   6.388  17.581  0.00  0.00    +0.000 C 
ATOM     16  C   UNL     1       7.658   7.916  17.707  0.00  0.00    +0.000 C 
ATOM     17  C   UNL     1       7.572   5.774  18.984  0.00  0.00    +0.000 C 
ENDBRANCH  14  15
BRANCH  14  18
ATOM     18  O   UNL     1       6.806   4.727  16.007  0.00  0.00    +0.000 OA
BRANCH  18  20
ATOM     19  C   UNL     1       6.195   3.925  13.883  0.00  0.00    +0.000 C 
ATOM     20  C   UNL     1       7.071   4.844  14.684  0.00  0.00    +0.000 C 
ATOM     21  O   UNL     1       7.902   5.593  14.194  0.00  0.00    +0.000 OA
ENDBRANCH  18  20
ENDBRANCH  14  18
ENDBRANCH  12  14
ENDBRANCH   1  12
TORSDOF 6
ENDMDL
MODEL 5
REMARK VINA RESULT:      -7.1      1.432      1.598
REMARK  Name = 
REMARK  9 active torsions:
REMARK  status: ('A' for Active; 'I' for Inactive)
REMARK    1  A    between atoms: C_1  and  C_2
REMARK    2  A    between atoms: C_2  and  O_4
REMARK    3  A    between atoms: O_4  and  C_5
REMARK    4  A    between atoms: C_5  and  C_6
REMARK    5  A    between atoms: C_5  and  C_18
REMARK    6  A    between atoms: C_6  and  C_8
REMARK    7  A    between atoms: C_8  and  C_9
REMARK    8  A    between atoms: C_18  and  C_19
REMARK    9  A    between atoms: C_18  and  C_20
REMARK                            x       y       z     vdW  Elec       q    Type
REMARK                         _______ _______ _______ _____ _____    ______ ____
ROOT
ATOM      1  C   UNL     1       4.162   5.008  16.875  0.00  0.00    +0.000 C 
ENDROOT
BRANCH   1   2
ATOM      2  C   UNL     1       3.543   5.092  18.232  0.00  0.00    +0.000 A 
ATOM      3  C   UNL     1       3.744   6.088  19.169  0.00  0.00    +0.000 A 
ATOM      4  N   UNL     1       3.029   5.777  20.293  0.00  0.00    +0.000 N 
ATOM      5  C   UNL     1       2.356   4.590  20.115  0.00  0.00    +0.000 A 
ATOM      6  C   UNL     1       1.531   3.877  20.994  0.00  0.00    +0.000 A 
ATOM      7  C   UNL     1       0.977   2.677  20.536  0.00  0.00    +0.000 A 
ATOM      8  C   UNL     1       1.212   2.230  19.239  0.00  0.00    +0.000 A 
ATOM      9  C   UNL     1       2.016   2.971  18.370  0.00  0.00    +0.000 A 
ATOM     10  C   UNL     1       2.631   4.156  18.819  0.00  0.00    +0.000 A 
ATOM     11  H   UNL     1       3.004   6.328  21.139  0.00  0.00    +0.000 HD
ENDBRANCH   1   2
BRANCH   1  12
ATOM     12  C   UNL     1       4.940   6.267  16.514  0.00  0.00    +0.000 C 
ATOM     13  O   UNL     1       4.365   7.319  16.215  0.00  0.00    +0.000 OA
BRANCH  12  14
ATOM     14  C   UNL     1       6.469   6.153  16.520  0.00  0.00    +0.000 C 
BRANCH  14  15
ATOM     15  C   UNL     1       7.062   6.190  17.947  0.00  0.00    +0.000 C 
ATOM     16  C   UNL     1       7.841   4.907  18.259  0.00  0.00    +0.000 C 
ATOM     17  C   UNL     1       7.987   7.395  18.148  0.00  0.00    +0.000 C 
ENDBRANCH  14  15
BRANCH  14  18
ATOM     18  O   UNL     1       6.769   4.876  15.925  0.00  0.00    +0.000 OA
BRANCH  18  20
ATOM     19  C   UNL     1       6.163   3.938  13.856  0.00  0.00    +0.000 C 
ATOM     20  C   UNL     1       7.074   4.866  14.606  0.00  0.00    +0.000 C 
ATOM     21  O   UNL     1       7.963   5.520  14.081  0.00  0.00    +0.000 OA
ENDBRANCH  18  20
ENDBRANCH  14  18
ENDBRANCH  12  14
ENDBRANCH   1  12
TORSDOF 6
ENDMDL
MODEL 6
REMARK VINA RESULT:      -7.0      1.483      1.778
REMARK  Name = 
REMARK  9 active torsions:
REMARK  status: ('A' for Active; 'I' for Inactive)
REMARK    1  A    between atoms: C_1  and  C_2
REMARK    2  A    between atoms: C_2  and  O_4
REMARK    3  A    between atoms: O_4  and  C_5
REMARK    4  A    between atoms: C_5  and  C_6
REMARK    5  A    between atoms: C_5  and  C_18
REMARK    6  A    between atoms: C_6  and  C_8
REMARK    7  A    between atoms: C_8  and  C_9
REMARK    8  A    between atoms: C_18  and  C_19
REMARK    9  A    between atoms: C_18  and  C_20
REMARK                            x       y       z     vdW  Elec       q    Type
REMARK                         _______ _______ _______ _____ _____    ______ ____
ROOT
ATOM      1  C   UNL     1       4.227   4.928  17.192  0.00  0.00    +0.000 C 
ENDROOT
BRANCH   1   2
ATOM      2  C   UNL     1       3.370   3.845  17.762  0.00  0.00    +0.000 A 
ATOM      3  C   UNL     1       2.962   2.692  17.117  0.00  0.00    +0.000 A 
ATOM      4  N   UNL     1       2.160   1.981  17.967  0.00  0.00    +0.000 N 
ATOM      5  C   UNL     1       2.031   2.644  19.165  0.00  0.00    +0.000 A 
ATOM      6  C   UNL     1       1.294   2.311  20.308  0.00  0.00    +0.000 A 
ATOM      7  C   UNL     1       1.347   3.191  21.394  0.00  0.00    +0.000 A 
ATOM      8  C   UNL     1       2.133   4.338  21.348  0.00  0.00    +0.000 A 
ATOM      9  C   UNL     1       2.882   4.637  20.207  0.00  0.00    +0.000 A 
ATOM     10  C   UNL     1       2.808   3.798  19.078  0.00  0.00    +0.000 A 
ATOM     11  H   UNL     1       1.713   1.102  17.748  0.00  0.00    +0.000 HD
ENDBRANCH   1   2
BRANCH   1  12
ATOM     12  C   UNL     1       5.700   4.739  17.529  0.00  0.00    +0.000 C 
ATOM     13  O   UNL     1       6.068   3.941  18.397  0.00  0.00    +0.000 OA
BRANCH  12  14
ATOM     14  C   UNL     1       6.697   5.609  16.753  0.00  0.00    +0.000 C 
BRANCH  14  15
ATOM     15  C   UNL     1       7.706   6.327  17.680  0.00  0.00    +0.000 C 
ATOM     16  C   UNL     1       7.607   7.850  17.535  0.00  0.00    +0.000 C 
ATOM     17  C   UNL     1       7.494   5.952  19.151  0.00  0.00    +0.000 C 
ENDBRANCH  14  15
BRANCH  14  18
ATOM     18  O   UNL     1       7.418   4.707  15.893  0.00  0.00    +0.000 OA
BRANCH  18  20
ATOM     19  C   UNL     1       6.159   3.948  14.058  0.00  0.00    +0.000 C 
ATOM     20  C   UNL     1       7.245   4.857  14.558  0.00  0.00    +0.000 C 
ATOM     21  O   UNL     1       7.875   5.623  13.846  0.00  0.00    +0.000 OA
ENDBRANCH  18  20
ENDBRANCH  14  18
ENDBRANCH  12  14
ENDBRANCH   1  12
TORSDOF 6
ENDMDL
MODEL 7
REMARK VINA RESULT:      -6.9      1.829      3.103
REMARK  Name = 
REMARK  9 active torsions:
REMARK  status: ('A' for Active; 'I' for Inactive)
REMARK    1  A    between atoms: C_1  and  C_2
REMARK    2  A    between atoms: C_2  and  O_4
REMARK    3  A    between atoms: O_4  and  C_5
REMARK    4  A    between atoms: C_5  and  C_6
REMARK    5  A    between atoms: C_5  and  C_18
REMARK    6  A    between atoms: C_6  and  C_8
REMARK    7  A    between atoms: C_8  and  C_9
REMARK    8  A    between atoms: C_18  and  C_19
REMARK    9  A    between atoms: C_18  and  C_20
REMARK                            x       y       z     vdW  Elec       q    Type
REMARK                         _______ _______ _______ _____ _____    ______ ____
ROOT
ATOM      1  C   UNL     1       4.120   5.191  16.732  0.00  0.00    +0.000 C 
ENDROOT
BRANCH   1   2
ATOM      2  C   UNL     1       3.568   5.195  18.121  0.00  0.00    +0.000 A 
ATOM      3  C   UNL     1       3.989   5.989  19.172  0.00  0.00    +0.000 A 
ATOM      4  N   UNL     1       3.258   5.662  20.281  0.00  0.00    +0.000 N 
ATOM      5  C   UNL     1       2.359   4.665  19.981  0.00  0.00    +0.000 A 
ATOM      6  C   UNL     1       1.435   4.004  20.800  0.00  0.00    +0.000 A 
ATOM      7  C   UNL     1       0.642   3.012  20.215  0.00  0.00    +0.000 A 
ATOM      8  C   UNL     1       0.746   2.719  18.859  0.00  0.00    +0.000 A 
ATOM      9  C   UNL     1       1.656   3.410  18.055  0.00  0.00    +0.000 A 
ATOM     10  C   UNL     1       2.506   4.377  18.625  0.00  0.00    +0.000 A 
ATOM     11  H   UNL     1       3.367   6.080  21.194  0.00  0.00    +0.000 HD
ENDBRANCH   1   2
BRANCH   1  12
ATOM     12  C   UNL     1       5.072   4.027  16.491  0.00  0.00    +0.000 C 
ATOM     13  O   UNL     1       4.777   2.872  16.816  0.00  0.00    +0.000 OA
BRANCH  12  14
ATOM     14  C   UNL     1       6.422   4.368  15.847  0.00  0.00    +0.000 C 
BRANCH  14  15
ATOM     15  C   UNL     1       6.280   4.819  14.375  0.00  0.00    +0.000 C 
ATOM     16  C   UNL     1       7.636   5.224  13.784  0.00  0.00    +0.000 C 
ATOM     17  C   UNL     1       5.663   3.722  13.500  0.00  0.00    +0.000 C 
ENDBRANCH  14  15
BRANCH  14  18
ATOM     18  O   UNL     1       6.959   5.459  16.618  0.00  0.00    +0.000 OA
BRANCH  18  20
ATOM     19  C   UNL     1       7.721   6.253  18.695  0.00  0.00    +0.000 C 
ATOM     20  C   UNL     1       7.725   5.140  17.688  0.00  0.00    +0.000 C 
ATOM     21  O   UNL     1       8.338   4.093  17.831  0.00  0.00    +0.000 OA
ENDBRANCH  18  20
ENDBRANCH  14  18
ENDBRANCH  12  14
ENDBRANCH   1  12
TORSDOF 6
ENDMDL
MODEL 8
REMARK VINA RESULT:      -6.9      2.720      3.993
REMARK  Name = 
REMARK  9 active torsions:
REMARK  status: ('A' for Active; 'I' for Inactive)
REMARK    1  A    between atoms: C_1  and  C_2
REMARK    2  A    between atoms: C_2  and  O_4
REMARK    3  A    between atoms: O_4  and  C_5
REMARK    4  A    between atoms: C_5  and  C_6
REMARK    5  A    between atoms: C_5  and  C_18
REMARK    6  A    between atoms: C_6  and  C_8
REMARK    7  A    between atoms: C_8  and  C_9
REMARK    8  A    between atoms: C_18  and  C_19
REMARK    9  A    between atoms: C_18  and  C_20
REMARK                            x       y       z     vdW  Elec       q    Type
REMARK                         _______ _______ _______ _____ _____    ______ ____
ROOT
ATOM      1  C   UNL     1       2.957   4.454  17.534  0.00  0.00    +0.000 C 
ENDROOT
BRANCH   1   2
ATOM      2  C   UNL     1       2.637   5.294  18.727  0.00  0.00    +0.000 A 
ATOM      3  C   UNL     1       2.607   4.875  20.044  0.00  0.00    +0.000 A 
ATOM      4  N   UNL     1       2.234   5.934  20.827  0.00  0.00    +0.000 N 
ATOM      5  C   UNL     1       2.017   7.047  20.048  0.00  0.00    +0.000 A 
ATOM      6  C   UNL     1       1.599   8.334  20.408  0.00  0.00    +0.000 A 
ATOM      7  C   UNL     1       1.456   9.279  19.387  0.00  0.00    +0.000 A 
ATOM      8  C   UNL     1       1.751   8.957  18.066  0.00  0.00    +0.000 A 
ATOM      9  C   UNL     1       2.193   7.673  17.734  0.00  0.00    +0.000 A 
ATOM     10  C   UNL     1       2.296   6.685  18.731  0.00  0.00    +0.000 A 
ATOM     11  H   UNL     1       2.120   5.905  21.830  0.00  0.00    +0.000 HD
ENDBRANCH   1   2
BRANCH   1  12
ATOM     12  C   UNL     1       4.228   3.636  17.725  0.00  0.00    +0.000 C 
ATOM     13  O   UNL     1       4.238   2.608  18.409  0.00  0.00    +0.000 OA
BRANCH  12  14
ATOM     14  C   UNL     1       5.495   4.169  17.044  0.00  0.00    +0.000 C 
BRANCH  14  15
ATOM     15  C   UNL     1       5.189   4.938  15.738  0.00  0.00    +0.000 C 
ATOM     16  C   UNL     1       5.232   6.454  15.961  0.00  0.00    +0.000 C 
ATOM     17  C   UNL     1       6.169   4.570  14.619  0.00  0.00    +0.000 C 
ENDBRANCH  14  15
BRANCH  14  18
ATOM     18  O   UNL     1       6.094   5.078  17.987  0.00  0.00    +0.000 OA
BRANCH  18  20
ATOM     19  C   UNL     1       7.941   6.248  18.852  0.00  0.00    +0.000 C 
ATOM     20  C   UNL     1       7.443   5.046  18.103  0.00  0.00    +0.000 C 
ATOM     21  O   UNL     1       8.169   4.166  17.666  0.00  0.00    +0.000 OA
ENDBRANCH  18  20
ENDBRANCH  14  18
ENDBRANCH  12  14
ENDBRANCH   1  12
TORSDOF 6
ENDMDL
MODEL 9
REMARK VINA RESULT:      -6.9      2.076      3.374
REMARK  Name = 
REMARK  9 active torsions:
REMARK  status: ('A' for Active; 'I' for Inactive)
REMARK    1  A    between atoms: C_1  and  C_2
REMARK    2  A    between atoms: C_2  and  O_4
REMARK    3  A    between atoms: O_4  and  C_5
REMARK    4  A    between atoms: C_5  and  C_6
REMARK    5  A    between atoms: C_5  and  C_18
REMARK    6  A    between atoms: C_6  and  C_8
REMARK    7  A    between atoms: C_8  and  C_9
REMARK    8  A    between atoms: C_18  and  C_19
REMARK    9  A    between atoms: C_18  and  C_20
REMARK                            x       y       z     vdW  Elec       q    Type
REMARK                         _______ _______ _______ _____ _____    ______ ____
ROOT
ATOM      1  C   UNL     1       4.287   6.284  17.774  0.00  0.00    +0.000 C 
ENDROOT
BRANCH   1   2
ATOM      2  C   UNL     1       3.195   5.845  18.694  0.00  0.00    +0.000 A 
ATOM      3  C   UNL     1       2.650   6.577  19.733  0.00  0.00    +0.000 A 
ATOM      4  N   UNL     1       1.705   5.807  20.355  0.00  0.00    +0.000 N 
ATOM      5  C   UNL     1       1.616   4.578  19.745  0.00  0.00    +0.000 A 
ATOM      6  C   UNL     1       0.815   3.471  20.053  0.00  0.00    +0.000 A 
ATOM      7  C   UNL     1       0.942   2.333  19.250  0.00  0.00    +0.000 A 
ATOM      8  C   UNL     1       1.809   2.319  18.162  0.00  0.00    +0.000 A 
ATOM      9  C   UNL     1       2.579   3.444  17.856  0.00  0.00    +0.000 A 
ATOM     10  C   UNL     1       2.513   4.586  18.678  0.00  0.00    +0.000 A 
ATOM     11  H   UNL     1       1.158   6.091  21.156  0.00  0.00    +0.000 HD
ENDBRANCH   1   2
BRANCH   1  12
ATOM     12  C   UNL     1       5.617   5.613  18.091  0.00  0.00    +0.000 C 
ATOM     13  O   UNL     1       5.829   5.083  19.186  0.00  0.00    +0.000 OA
BRANCH  12  14
ATOM     14  C   UNL     1       6.684   5.652  16.990  0.00  0.00    +0.000 C 
BRANCH  14  15
ATOM     15  C   UNL     1       6.158   5.123  15.635  0.00  0.00    +0.000 C 
ATOM     16  C   UNL     1       7.242   5.195  14.552  0.00  0.00    +0.000 C 
ATOM     17  C   UNL     1       5.657   3.680  15.743  0.00  0.00    +0.000 C 
ENDBRANCH  14  15
BRANCH  14  18
ATOM     18  O   UNL     1       7.043   7.038  16.840  0.00  0.00    +0.000 OA
BRANCH  18  20
ATOM     19  C   UNL     1       7.879   9.078  17.658  0.00  0.00    +0.000 C 
ATOM     20  C   UNL     1       7.806   7.587  17.816  0.00  0.00    +0.000 C 
ATOM     21  O   UNL     1       8.362   6.967  18.710  0.00  0.00    +0.000 OA
ENDBRANCH  18  20
ENDBRANCH  14  18
ENDBRANCH  12  14
ENDBRANCH   1  12
TORSDOF 6
ENDMDL
