MODEL 1
REMARK VINA RESULT:      -6.9      0.000      0.000
REMARK  Name = 
REMARK  6 active torsions:
REMARK  status: ('A' for Active; 'I' for Inactive)
REMARK    1  A    between atoms: C_1  and  N_2
REMARK    2  A    between atoms: N_2  and  C_3
REMARK    3  A    between atoms: N_2  and  C_4
REMARK    4  A    between atoms: C_4  and  C_5
REMARK    5  A    between atoms: C_5  and  S_6
REMARK    6  A    between atoms: S_6  and  C_7
REMARK                            x       y       z     vdW  Elec       q    Type
REMARK                         _______ _______ _______ _____ _____    ______ ____
ROOT
ATOM      1  C   UNL     1       3.197   5.347  19.829  0.00  0.00    +0.000 C 
ATOM      2  C   UNL     1       4.460   4.922  19.624  0.00  0.00    +0.000 C 
ATOM      3  C   UNL     1       5.556   5.640  18.946  0.00  0.00    +0.000 A 
ATOM      4  C   UNL     1       6.831   5.580  19.534  0.00  0.00    +0.000 A 
ATOM      5  C   UNL     1       7.920   6.232  18.952  0.00  0.00    +0.000 A 
ATOM      6  C   UNL     1       7.752   6.949  17.771  0.00  0.00    +0.000 A 
ATOM      7  C   UNL     1       6.500   6.993  17.159  0.00  0.00    +0.000 A 
ATOM      8  C   UNL     1       5.404   6.331  17.732  0.00  0.00    +0.000 A 
ATOM      9  S   UNL     1       3.839   6.403  16.871  0.00  0.00    +0.000 S 
ATOM     10  C   UNL     1       2.896   7.236  18.144  0.00  0.00    +0.000 A 
ATOM     11  C   UNL     1       2.404   8.512  17.818  0.00  0.00    +0.000 A 
ATOM     12  C   UNL     1       1.672   9.250  18.745  0.00  0.00    +0.000 A 
ATOM     13  C   UNL     1       1.423   8.715  20.002  0.00  0.00    +0.000 A 
ATOM     14  C   UNL     1       1.918   7.451  20.338  0.00  0.00    +0.000 A 
ATOM     15  C   UNL     1       2.667   6.682  19.422  0.00  0.00    +0.000 A 
ENDROOT
BRANCH   1  16
ATOM     16  S   UNL     1       2.148   4.303  20.764  0.00  0.00    +0.000 S 
BRANCH  16  17
ATOM     17  C   UNL     1       1.084   3.600  19.457  0.00  0.00    +0.000 C 
BRANCH  17  18
ATOM     18  C   UNL     1       1.450   2.120  19.237  0.00  0.00    +0.000 C 
BRANCH  18  20
ATOM     19  C   UNL     1       2.372   3.072  17.225  0.00  0.00    +0.000 C 
ATOM     20  N   UNL     1       2.313   1.869  18.061  0.00  0.00    +0.000 NA
ATOM     21  C   UNL     1       3.670   1.475  18.445  0.00  0.00    +0.000 C 
ENDBRANCH  18  20
ENDBRANCH  17  18
ENDBRANCH  16  17
ENDBRANCH   1  16
TORSDOF 4
ENDMDL
MODEL 2
REMARK VINA RESULT:      -6.8      2.748      6.071
REMARK  Name = 
REMARK  6 active torsions:
REMARK  status: ('A' for Active; 'I' for Inactive)
REMARK    1  A    between atoms: C_1  and  N_2
REMARK    2  A    between atoms: N_2  and  C_3
REMARK    3  A    between atoms: N_2  and  C_4
REMARK    4  A    between atoms: C_4  and  C_5
REMARK    5  A    between atoms: C_5  and  S_6
REMARK    6  A    between atoms: S_6  and  C_7
REMARK                            x       y       z     vdW  Elec       q    Type
REMARK                         _______ _______ _______ _____ _____    ______ ____
ROOT
ATOM      1  C   UNL     1       3.030   6.676  18.158  0.00  0.00    +0.000 C 
ATOM      2  C   UNL     1       2.228   6.159  19.110  0.00  0.00    +0.000 C 
ATOM      3  C   UNL     1       2.296   4.817  19.719  0.00  0.00    +0.000 A 
ATOM      4  C   UNL     1       2.116   4.726  21.109  0.00  0.00    +0.000 A 
ATOM      5  C   UNL     1       2.166   3.491  21.760  0.00  0.00    +0.000 A 
ATOM      6  C   UNL     1       2.391   2.328  21.029  0.00  0.00    +0.000 A 
ATOM      7  C   UNL     1       2.540   2.399  19.644  0.00  0.00    +0.000 A 
ATOM      8  C   UNL     1       2.481   3.634  18.983  0.00  0.00    +0.000 A 
ATOM      9  S   UNL     1       2.646   3.640  17.203  0.00  0.00    +0.000 S 
ATOM     10  C   UNL     1       4.130   4.635  17.097  0.00  0.00    +0.000 A 
ATOM     11  C   UNL     1       5.265   4.005  16.559  0.00  0.00    +0.000 A 
ATOM     12  C   UNL     1       6.473   4.688  16.449  0.00  0.00    +0.000 A 
ATOM     13  C   UNL     1       6.554   6.008  16.871  0.00  0.00    +0.000 A 
ATOM     14  C   UNL     1       5.432   6.640  17.418  0.00  0.00    +0.000 A 
ATOM     15  C   UNL     1       4.196   5.972  17.547  0.00  0.00    +0.000 A 
ENDROOT
BRANCH   1  16
ATOM     16  S   UNL     1       2.759   8.347  17.710  0.00  0.00    +0.000 S 
BRANCH  16  17
ATOM     17  C   UNL     1       1.555   8.867  18.979  0.00  0.00    +0.000 C 
BRANCH  17  18
ATOM     18  C   UNL     1       0.834  10.145  18.510  0.00  0.00    +0.000 C 
BRANCH  18  20
ATOM     19  C   UNL     1      -0.875  11.440  19.610  0.00  0.00    +0.000 C 
ATOM     20  N   UNL     1      -0.602  10.206  18.866  0.00  0.00    +0.000 NA
ATOM     21  C   UNL     1      -1.466  10.147  17.685  0.00  0.00    +0.000 C 
ENDBRANCH  18  20
ENDBRANCH  17  18
ENDBRANCH  16  17
ENDBRANCH   1  16
TORSDOF 4
ENDMDL
MODEL 3
REMARK VINA RESULT:      -6.8      2.744      5.362
REMARK  Name = 
REMARK  6 active torsions:
REMARK  status: ('A' for Active; 'I' for Inactive)
REMARK    1  A    between atoms: C_1  and  N_2
REMARK    2  A    between atoms: N_2  and  C_3
REMARK    3  A    between atoms: N_2  and  C_4
REMARK    4  A    between atoms: C_4  and  C_5
REMARK    5  A    between atoms: C_5  and  S_6
REMARK    6  A    between atoms: S_6  and  C_7
REMARK                            x       y       z     vdW  Elec       q    Type
REMARK                         _______ _______ _______ _____ _____    ______ ____
ROOT
ATOM      1  C   UNL     1       3.124   6.305  18.479  0.00  0.00    +0.000 C 
ATOM      2  C   UNL     1       4.051   6.708  17.586  0.00  0.00    +0.000 C 
ATOM      3  C   UNL     1       4.956   5.866  16.781  0.00  0.00    +0.000 A 
ATOM      4  C   UNL     1       5.141   6.219  15.433  0.00  0.00    +0.000 A 
ATOM      5  C   UNL     1       5.982   5.472  14.606  0.00  0.00    +0.000 A 
ATOM      6  C   UNL     1       6.656   4.365  15.114  0.00  0.00    +0.000 A 
ATOM      7  C   UNL     1       6.507   4.021  16.457  0.00  0.00    +0.000 A 
ATOM      8  C   UNL     1       5.672   4.772  17.297  0.00  0.00    +0.000 A 
ATOM      9  S   UNL     1       5.560   4.291  19.015  0.00  0.00    +0.000 S 
ATOM     10  C   UNL     1       3.810   3.917  19.052  0.00  0.00    +0.000 A 
ATOM     11  C   UNL     1       3.464   2.582  19.319  0.00  0.00    +0.000 A 
ATOM     12  C   UNL     1       2.130   2.185  19.354  0.00  0.00    +0.000 A 
ATOM     13  C   UNL     1       1.132   3.122  19.126  0.00  0.00    +0.000 A 
ATOM     14  C   UNL     1       1.467   4.451  18.848  0.00  0.00    +0.000 A 
ATOM     15  C   UNL     1       2.809   4.882  18.801  0.00  0.00    +0.000 A 
ENDROOT
BRANCH   1  16
ATOM     16  S   UNL     1       2.126   7.547  19.205  0.00  0.00    +0.000 S 
BRANCH  16  17
ATOM     17  C   UNL     1       1.877   8.677  17.794  0.00  0.00    +0.000 C 
BRANCH  17  18
ATOM     18  C   UNL     1       1.504  10.078  18.317  0.00  0.00    +0.000 C 
BRANCH  18  20
ATOM     19  C   UNL     1       0.642  11.028  20.356  0.00  0.00    +0.000 C 
ATOM     20  N   UNL     1       0.362  10.098  19.257  0.00  0.00    +0.000 NA
ATOM     21  C   UNL     1      -0.889  10.483  18.601  0.00  0.00    +0.000 C 
ENDBRANCH  18  20
ENDBRANCH  17  18
ENDBRANCH  16  17
ENDBRANCH   1  16
TORSDOF 4
ENDMDL
MODEL 4
REMARK VINA RESULT:      -6.7      1.977      5.229
REMARK  Name = 
REMARK  6 active torsions:
REMARK  status: ('A' for Active; 'I' for Inactive)
REMARK    1  A    between atoms: C_1  and  N_2
REMARK    2  A    between atoms: N_2  and  C_3
REMARK    3  A    between atoms: N_2  and  C_4
REMARK    4  A    between atoms: C_4  and  C_5
REMARK    5  A    between atoms: C_5  and  S_6
REMARK    6  A    between atoms: S_6  and  C_7
REMARK                            x       y       z     vdW  Elec       q    Type
REMARK                         _______ _______ _______ _____ _____    ______ ____
ROOT
ATOM      1  C   UNL     1       3.531   6.427  17.657  0.00  0.00    +0.000 C 
ATOM      2  C   UNL     1       3.389   5.089  17.740  0.00  0.00    +0.000 C 
ATOM      3  C   UNL     1       2.387   4.333  18.515  0.00  0.00    +0.000 A 
ATOM      4  C   UNL     1       1.788   3.224  17.893  0.00  0.00    +0.000 A 
ATOM      5  C   UNL     1       0.831   2.457  18.561  0.00  0.00    +0.000 A 
ATOM      6  C   UNL     1       0.463   2.784  19.864  0.00  0.00    +0.000 A 
ATOM      7  C   UNL     1       1.072   3.861  20.506  0.00  0.00    +0.000 A 
ATOM      8  C   UNL     1       2.041   4.630  19.845  0.00  0.00    +0.000 A 
ATOM      9  S   UNL     1       2.802   5.973  20.745  0.00  0.00    +0.000 S 
ATOM     10  C   UNL     1       2.267   7.313  19.686  0.00  0.00    +0.000 A 
ATOM     11  C   UNL     1       1.407   8.261  20.267  0.00  0.00    +0.000 A 
ATOM     12  C   UNL     1       0.921   9.332  19.522  0.00  0.00    +0.000 A 
ATOM     13  C   UNL     1       1.297   9.467  18.192  0.00  0.00    +0.000 A 
ATOM     14  C   UNL     1       2.144   8.523  17.603  0.00  0.00    +0.000 A 
ATOM     15  C   UNL     1       2.648   7.424  18.330  0.00  0.00    +0.000 A 
ENDROOT
BRANCH   1  16
ATOM     16  S   UNL     1       4.759   7.030  16.565  0.00  0.00    +0.000 S 
BRANCH  16  17
ATOM     17  C   UNL     1       5.804   5.550  16.348  0.00  0.00    +0.000 C 
BRANCH  17  18
ATOM     18  C   UNL     1       7.220   5.837  16.885  0.00  0.00    +0.000 C 
BRANCH  18  20
ATOM     19  C   UNL     1       7.796   5.777  19.223  0.00  0.00    +0.000 C 
ATOM     20  N   UNL     1       7.254   6.611  18.145  0.00  0.00    +0.000 NA
ATOM     21  C   UNL     1       8.054   7.831  18.024  0.00  0.00    +0.000 C 
ENDBRANCH  18  20
ENDBRANCH  17  18
ENDBRANCH  16  17
ENDBRANCH   1  16
TORSDOF 4
ENDMDL
MODEL 5
REMARK VINA RESULT:      -6.7      2.770      6.142
REMARK  Name = 
REMARK  6 active torsions:
REMARK  status: ('A' for Active; 'I' for Inactive)
REMARK    1  A    between atoms: C_1  and  N_2
REMARK    2  A    between atoms: N_2  and  C_3
REMARK    3  A    between atoms: N_2  and  C_4
REMARK    4  A    between atoms: C_4  and  C_5
REMARK    5  A    between atoms: C_5  and  S_6
REMARK    6  A    between atoms: S_6  and  C_7
REMARK                            x       y       z     vdW  Elec       q    Type
REMARK                         _______ _______ _______ _____ _____    ______ ____
ROOT
ATOM      1  C   UNL     1       3.057   6.683  18.150  0.00  0.00    +0.000 C 
ATOM      2  C   UNL     1       2.253   6.167  19.101  0.00  0.00    +0.000 C 
ATOM      3  C   UNL     1       2.324   4.827  19.714  0.00  0.00    +0.000 A 
ATOM      4  C   UNL     1       2.138   4.740  21.104  0.00  0.00    +0.000 A 
ATOM      5  C   UNL     1       2.189   3.507  21.758  0.00  0.00    +0.000 A 
ATOM      6  C   UNL     1       2.421   2.343  21.032  0.00  0.00    +0.000 A 
ATOM      7  C   UNL     1       2.575   2.409  19.648  0.00  0.00    +0.000 A 
ATOM      8  C   UNL     1       2.515   3.642  18.982  0.00  0.00    +0.000 A 
ATOM      9  S   UNL     1       2.687   3.643  17.203  0.00  0.00    +0.000 S 
ATOM     10  C   UNL     1       4.168   4.643  17.100  0.00  0.00    +0.000 A 
ATOM     11  C   UNL     1       5.307   4.014  16.568  0.00  0.00    +0.000 A 
ATOM     12  C   UNL     1       6.514   4.701  16.461  0.00  0.00    +0.000 A 
ATOM     13  C   UNL     1       6.588   6.022  16.879  0.00  0.00    +0.000 A 
ATOM     14  C   UNL     1       5.463   6.652  17.420  0.00  0.00    +0.000 A 
ATOM     15  C   UNL     1       4.228   5.982  17.546  0.00  0.00    +0.000 A 
ENDROOT
BRANCH   1  16
ATOM     16  S   UNL     1       2.783   8.352  17.696  0.00  0.00    +0.000 S 
BRANCH  16  17
ATOM     17  C   UNL     1       1.575   8.873  18.960  0.00  0.00    +0.000 C 
BRANCH  17  18
ATOM     18  C   UNL     1       1.047  10.280  18.618  0.00  0.00    +0.000 C 
BRANCH  18  20
ATOM     19  C   UNL     1       0.772  10.281  21.012  0.00  0.00    +0.000 C 
ATOM     20  N   UNL     1       0.631  11.081  19.791  0.00  0.00    +0.000 NA
ATOM     21  C   UNL     1       1.411  12.314  19.923  0.00  0.00    +0.000 C 
ENDBRANCH  18  20
ENDBRANCH  17  18
ENDBRANCH  16  17
ENDBRANCH   1  16
TORSDOF 4
ENDMDL
MODEL 6
REMARK VINA RESULT:      -6.6      2.765      5.143
REMARK  Name = 
REMARK  6 active torsions:
REMARK  status: ('A' for Active; 'I' for Inactive)
REMARK    1  A    between atoms: C_1  and  N_2
REMARK    2  A    between atoms: N_2  and  C_3
REMARK    3  A    between atoms: N_2  and  C_4
REMARK    4  A    between atoms: C_4  and  C_5
REMARK    5  A    between atoms: C_5  and  S_6
REMARK    6  A    between atoms: S_6  and  C_7
REMARK                            x       y       z     vdW  Elec       q    Type
REMARK                         _______ _______ _______ _____ _____    ______ ____
ROOT
ATOM      1  C   UNL     1       3.099   6.582  18.270  0.00  0.00    +0.000 C 
ATOM      2  C   UNL     1       4.024   6.908  17.345  0.00  0.00    +0.000 C 
ATOM      3  C   UNL     1       5.056   6.035  16.753  0.00  0.00    +0.000 A 
ATOM      4  C   UNL     1       5.274   6.138  15.368  0.00  0.00    +0.000 A 
ATOM      5  C   UNL     1       6.234   5.348  14.733  0.00  0.00    +0.000 A 
ATOM      6  C   UNL     1       6.993   4.446  15.473  0.00  0.00    +0.000 A 
ATOM      7  C   UNL     1       6.810   4.354  16.852  0.00  0.00    +0.000 A 
ATOM      8  C   UNL     1       5.855   5.153  17.499  0.00  0.00    +0.000 A 
ATOM      9  S   UNL     1       5.703   5.005  19.274  0.00  0.00    +0.000 S 
ATOM     10  C   UNL     1       4.004   4.446  19.328  0.00  0.00    +0.000 A 
ATOM     11  C   UNL     1       3.789   3.157  19.846  0.00  0.00    +0.000 A 
ATOM     12  C   UNL     1       2.505   2.623  19.916  0.00  0.00    +0.000 A 
ATOM     13  C   UNL     1       1.425   3.377  19.475  0.00  0.00    +0.000 A 
ATOM     14  C   UNL     1       1.631   4.657  18.948  0.00  0.00    +0.000 A 
ATOM     15  C   UNL     1       2.921   5.222  18.859  0.00  0.00    +0.000 A 
ENDROOT
BRANCH   1  16
ATOM     16  S   UNL     1       1.936   7.818  18.703  0.00  0.00    +0.000 S 
BRANCH  16  17
ATOM     17  C   UNL     1       1.976   7.725  20.525  0.00  0.00    +0.000 C 
BRANCH  17  18
ATOM     18  C   UNL     1       0.677   8.322  21.099  0.00  0.00    +0.000 C 
BRANCH  18  20
ATOM     19  C   UNL     1       0.770  10.728  21.175  0.00  0.00    +0.000 C 
ATOM     20  N   UNL     1       0.875   9.500  21.971  0.00  0.00    +0.000 NA
ATOM     21  C   UNL     1      -0.095   9.546  23.067  0.00  0.00    +0.000 C 
ENDBRANCH  18  20
ENDBRANCH  17  18
ENDBRANCH  16  17
ENDBRANCH   1  16
TORSDOF 4
ENDMDL
MODEL 7
REMARK VINA RESULT:      -6.6      2.045      4.917
REMARK  Name = 
REMARK  6 active torsions:
REMARK  status: ('A' for Active; 'I' for Inactive)
REMARK    1  A    between atoms: C_1  and  N_2
REMARK    2  A    between atoms: N_2  and  C_3
REMARK    3  A    between atoms: N_2  and  C_4
REMARK    4  A    between atoms: C_4  and  C_5
REMARK    5  A    between atoms: C_5  and  S_6
REMARK    6  A    between atoms: S_6  and  C_7
REMARK                            x       y       z     vdW  Elec       q    Type
REMARK                         _______ _______ _______ _____ _____    ______ ____
ROOT
ATOM      1  C   UNL     1       3.822   6.295  17.780  0.00  0.00    +0.000 C 
ATOM      2  C   UNL     1       3.645   4.962  17.868  0.00  0.00    +0.000 C 
ATOM      3  C   UNL     1       2.539   4.239  18.525  0.00  0.00    +0.000 A 
ATOM      4  C   UNL     1       2.001   3.129  17.852  0.00  0.00    +0.000 A 
ATOM      5  C   UNL     1       0.953   2.392  18.409  0.00  0.00    +0.000 A 
ATOM      6  C   UNL     1       0.432   2.750  19.649  0.00  0.00    +0.000 A 
ATOM      7  C   UNL     1       0.977   3.829  20.343  0.00  0.00    +0.000 A 
ATOM      8  C   UNL     1       2.036   4.568  19.796  0.00  0.00    +0.000 A 
ATOM      9  S   UNL     1       2.705   5.915  20.761  0.00  0.00    +0.000 S 
ATOM     10  C   UNL     1       2.333   7.243  19.620  0.00  0.00    +0.000 A 
ATOM     11  C   UNL     1       1.426   8.216  20.072  0.00  0.00    +0.000 A 
ATOM     12  C   UNL     1       1.058   9.281  19.254  0.00  0.00    +0.000 A 
ATOM     13  C   UNL     1       1.599   9.383  17.980  0.00  0.00    +0.000 A 
ATOM     14  C   UNL     1       2.494   8.413  17.517  0.00  0.00    +0.000 A 
ATOM     15  C   UNL     1       2.882   7.320  18.321  0.00  0.00    +0.000 A 
ENDROOT
BRANCH   1  16
ATOM     16  S   UNL     1       5.189   6.856  16.840  0.00  0.00    +0.000 S 
BRANCH  16  17
ATOM     17  C   UNL     1       6.560   5.936  17.617  0.00  0.00    +0.000 C 
BRANCH  17  18
ATOM     18  C   UNL     1       7.199   4.992  16.580  0.00  0.00    +0.000 C 
BRANCH  18  20
ATOM     19  C   UNL     1       7.238   5.012  14.172  0.00  0.00    +0.000 C 
ATOM     20  N   UNL     1       6.396   4.795  15.353  0.00  0.00    +0.000 NA
ATOM     21  C   UNL     1       5.804   3.457  15.289  0.00  0.00    +0.000 C 
ENDBRANCH  18  20
ENDBRANCH  17  18
ENDBRANCH  16  17
ENDBRANCH   1  16
TORSDOF 4
ENDMDL
MODEL 8
REMARK VINA RESULT:      -6.6      2.150      4.880
REMARK  Name = 
REMARK  6 active torsions:
REMARK  status: ('A' for Active; 'I' for Inactive)
REMARK    1  A    between atoms: C_1  and  N_2
REMARK    2  A    between atoms: N_2  and  C_3
REMARK    3  A    between atoms: N_2  and  C_4
REMARK    4  A    between atoms: C_4  and  C_5
REMARK    5  A    between atoms: C_5  and  S_6
REMARK    6  A    between atoms: S_6  and  C_7
REMARK                            x       y       z     vdW  Elec       q    Type
REMARK                         _______ _______ _______ _____ _____    ______ ____
ROOT
ATOM      1  C   UNL     1       4.983   5.224  19.045  0.00  0.00    +0.000 C 
ATOM      2  C   UNL     1       4.638   3.936  19.243  0.00  0.00    +0.000 C 
ATOM      3  C   UNL     1       3.287   3.344  19.191  0.00  0.00    +0.000 A 
ATOM      4  C   UNL     1       3.148   2.104  18.545  0.00  0.00    +0.000 A 
ATOM      5  C   UNL     1       1.903   1.478  18.454  0.00  0.00    +0.000 A 
ATOM      6  C   UNL     1       0.780   2.079  19.014  0.00  0.00    +0.000 A 
ATOM      7  C   UNL     1       0.907   3.294  19.687  0.00  0.00    +0.000 A 
ATOM      8  C   UNL     1       2.156   3.924  19.790  0.00  0.00    +0.000 A 
ATOM      9  S   UNL     1       2.246   5.461  20.698  0.00  0.00    +0.000 S 
ATOM     10  C   UNL     1       2.801   6.506  19.356  0.00  0.00    +0.000 A 
ATOM     11  C   UNL     1       1.925   7.532  18.963  0.00  0.00    +0.000 A 
ATOM     12  C   UNL     1       2.256   8.390  17.918  0.00  0.00    +0.000 A 
ATOM     13  C   UNL     1       3.469   8.231  17.261  0.00  0.00    +0.000 A 
ATOM     14  C   UNL     1       4.342   7.206  17.638  0.00  0.00    +0.000 A 
ATOM     15  C   UNL     1       4.032   6.319  18.689  0.00  0.00    +0.000 A 
ENDROOT
BRANCH   1  16
ATOM     16  S   UNL     1       6.692   5.603  19.072  0.00  0.00    +0.000 S 
BRANCH  16  17
ATOM     17  C   UNL     1       7.326   4.490  17.772  0.00  0.00    +0.000 C 
BRANCH  17  18
ATOM     18  C   UNL     1       7.146   5.155  16.393  0.00  0.00    +0.000 C 
BRANCH  18  20
ATOM     19  C   UNL     1       5.130   4.153  15.537  0.00  0.00    +0.000 C 
ATOM     20  N   UNL     1       6.580   4.268  15.353  0.00  0.00    +0.000 NA
ATOM     21  C   UNL     1       6.862   4.753  14.000  0.00  0.00    +0.000 C 
ENDBRANCH  18  20
ENDBRANCH  17  18
ENDBRANCH  16  17
ENDBRANCH   1  16
TORSDOF 4
ENDMDL
MODEL 9
REMARK VINA RESULT:      -6.5      2.403      5.034
REMARK  Name = 
REMARK  6 active torsions:
REMARK  status: ('A' for Active; 'I' for Inactive)
REMARK    1  A    between atoms: C_1  and  N_2
REMARK    2  A    between atoms: N_2  and  C_3
REMARK    3  A    between atoms: N_2  and  C_4
REMARK    4  A    between atoms: C_4  and  C_5
REMARK    5  A    between atoms: C_5  and  S_6
REMARK    6  A    between atoms: S_6  and  C_7
REMARK                            x       y       z     vdW  Elec       q    Type
REMARK                         _______ _______ _______ _____ _____    ______ ____
ROOT
ATOM      1  C   UNL     1       3.788   6.138  17.684  0.00  0.00    +0.000 C 
ATOM      2  C   UNL     1       3.581   4.811  17.797  0.00  0.00    +0.000 C 
ATOM      3  C   UNL     1       2.495   4.124  18.521  0.00  0.00    +0.000 A 
ATOM      4  C   UNL     1       1.893   3.021  17.891  0.00  0.00    +0.000 A 
ATOM      5  C   UNL     1       0.858   2.318  18.512  0.00  0.00    +0.000 A 
ATOM      6  C   UNL     1       0.415   2.703  19.774  0.00  0.00    +0.000 A 
ATOM      7  C   UNL     1       1.024   3.774  20.425  0.00  0.00    +0.000 A 
ATOM      8  C   UNL     1       2.070   4.479  19.812  0.00  0.00    +0.000 A 
ATOM      9  S   UNL     1       2.824   5.819  20.724  0.00  0.00    +0.000 S 
ATOM     10  C   UNL     1       2.425   7.144  19.589  0.00  0.00    +0.000 A 
ATOM     11  C   UNL     1       1.569   8.145  20.078  0.00  0.00    +0.000 A 
ATOM     12  C   UNL     1       1.185   9.211  19.269  0.00  0.00    +0.000 A 
ATOM     13  C   UNL     1       1.659   9.285  17.966  0.00  0.00    +0.000 A 
ATOM     14  C   UNL     1       2.502   8.288  17.467  0.00  0.00    +0.000 A 
ATOM     15  C   UNL     1       2.905   7.193  18.262  0.00  0.00    +0.000 A 
ENDROOT
BRANCH   1  16
ATOM     16  S   UNL     1       5.115   6.653  16.664  0.00  0.00    +0.000 S 
BRANCH  16  17
ATOM     17  C   UNL     1       5.947   5.063  16.330  0.00  0.00    +0.000 C 
BRANCH  17  18
ATOM     18  C   UNL     1       5.439   4.489  14.993  0.00  0.00    +0.000 C 
BRANCH  18  20
ATOM     19  C   UNL     1       5.911   3.540  12.830  0.00  0.00    +0.000 C 
ATOM     20  N   UNL     1       6.506   4.017  14.083  0.00  0.00    +0.000 NA
ATOM     21  C   UNL     1       7.486   5.064  13.789  0.00  0.00    +0.000 C 
ENDBRANCH  18  20
ENDBRANCH  17  18
ENDBRANCH  16  17
ENDBRANCH   1  16
TORSDOF 4
ENDMDL
