MODEL 1
REMARK VINA RESULT:      -8.9      0.000      0.000
REMARK  Name = 
REMARK  3 active torsions:
REMARK  status: ('A' for Active; 'I' for Inactive)
REMARK    1  A    between atoms: C_2  and  C_25
REMARK    2  A    between atoms: N_3  and  C_4
REMARK    3  A    between atoms: C_6  and  C_7
REMARK                            x       y       z     vdW  Elec       q    Type
REMARK                         _______ _______ _______ _____ _____    ______ ____
ROOT
ATOM      1  C   UNL     1       2.231   7.329  18.420  0.00  0.00    +0.000 C 
ATOM      2  N   UNL     1       3.492   6.975  17.776  0.00  0.00    +0.000 NA
ATOM      3  C   UNL     1       3.786   5.744  17.510  0.00  0.00    +0.000 C 
ATOM      4  C   UNL     1       2.902   4.576  17.821  0.00  0.00    +0.000 A 
ATOM      5  C   UNL     1       2.867   3.453  16.977  0.00  0.00    +0.000 A 
ATOM      6  C   UNL     1       2.214   2.273  17.372  0.00  0.00    +0.000 A 
ATOM      7  C   UNL     1       1.564   2.196  18.605  0.00  0.00    +0.000 A 
ATOM      8  C   UNL     1       1.568   3.317  19.418  0.00  0.00    +0.000 A 
ATOM      9  C   UNL     1       2.195   4.497  19.014  0.00  0.00    +0.000 A 
ATOM     10  N   UNL     1       2.019   5.465  20.007  0.00  0.00    +0.000 N 
ATOM     11  C   UNL     1       1.494   4.835  21.213  0.00  0.00    +0.000 C 
ATOM     12  C   UNL     1       0.914   3.488  20.757  0.00  0.00    +0.000 C 
ATOM     13  C   UNL     1       2.230   6.820  19.886  0.00  0.00    +0.000 C 
ATOM     14  O   UNL     1       2.324   7.556  20.871  0.00  0.00    +0.000 OA
ENDROOT
BRANCH   3  15
ATOM     15  C   UNL     1       5.130   5.507  16.869  0.00  0.00    +0.000 A 
ATOM     16  C   UNL     1       5.285   5.740  15.494  0.00  0.00    +0.000 A 
ATOM     17  C   UNL     1       6.521   5.523  14.873  0.00  0.00    +0.000 A 
ATOM     18  C   UNL     1       7.611   5.066  15.615  0.00  0.00    +0.000 A 
ATOM     19  C   UNL     1       7.472   4.855  16.983  0.00  0.00    +0.000 A 
ATOM     20  C   UNL     1       6.247   5.097  17.604  0.00  0.00    +0.000 A 
ATOM     21  F   UNL     1       6.188   4.937  18.934  0.00  0.00    +0.000 F 
ENDBRANCH   3  15
BRANCH   1  24
ATOM     22  O   UNL     1      -0.017   9.037  17.893  0.00  0.00    +0.000 OA
ATOM     23  C   UNL     1       1.083   9.519  18.151  0.00  0.00    +0.000 C 
ATOM     24  N   UNL     1       2.201   8.763  18.390  0.00  0.00    +0.000 N 
ATOM     25  H   UNL     1       3.048   9.185  18.727  0.00  0.00    +0.000 HD
BRANCH  23  26
ATOM     26  C   UNL     1       1.350  10.945  18.165  0.00  0.00    +0.000 A 
ATOM     27  C   UNL     1       0.539  11.994  18.566  0.00  0.00    +0.000 A 
ATOM     28  C   UNL     1       1.327  13.162  18.662  0.00  0.00    +0.000 A 
ATOM     29  C   UNL     1       1.080  14.445  19.179  0.00  0.00    +0.000 A 
ATOM     30  C   UNL     1       2.092  15.403  19.130  0.00  0.00    +0.000 A 
ATOM     31  C   UNL     1       3.316  15.105  18.530  0.00  0.00    +0.000 A 
ATOM     32  C   UNL     1       3.583  13.829  18.011  0.00  0.00    +0.000 A 
ATOM     33  C   UNL     1       2.577  12.860  18.127  0.00  0.00    +0.000 A 
ATOM     34  N   UNL     1       2.557  11.513  17.807  0.00  0.00    +0.000 N 
ATOM     35  H   UNL     1       3.349  10.989  17.455  0.00  0.00    +0.000 HD
ENDBRANCH  23  26
ENDBRANCH   1  24
TORSDOF 3
ENDMDL
MODEL 2
REMARK VINA RESULT:      -8.7      3.699      9.289
REMARK  Name = 
REMARK  3 active torsions:
REMARK  status: ('A' for Active; 'I' for Inactive)
REMARK    1  A    between atoms: C_2  and  C_25
REMARK    2  A    between atoms: N_3  and  C_4
REMARK    3  A    between atoms: C_6  and  C_7
REMARK                            x       y       z     vdW  Elec       q    Type
REMARK                         _______ _______ _______ _____ _____    ______ ____
ROOT
ATOM      1  C   UNL     1       0.401  10.118  20.461  0.00  0.00    +0.000 C 
ATOM      2  N   UNL     1      -0.562  10.049  19.366  0.00  0.00    +0.000 NA
ATOM      3  C   UNL     1      -1.108  11.117  18.886  0.00  0.00    +0.000 C 
ATOM      4  C   UNL     1      -0.831  12.505  19.378  0.00  0.00    +0.000 A 
ATOM      5  C   UNL     1      -0.837  13.597  18.494  0.00  0.00    +0.000 A 
ATOM      6  C   UNL     1      -0.795  14.917  18.977  0.00  0.00    +0.000 A 
ATOM      7  C   UNL     1      -0.725  15.173  20.348  0.00  0.00    +0.000 A 
ATOM      8  C   UNL     1      -0.680  14.093  21.213  0.00  0.00    +0.000 A 
ATOM      9  C   UNL     1      -0.695  12.782  20.731  0.00  0.00    +0.000 A 
ATOM     10  N   UNL     1      -0.612  11.902  21.814  0.00  0.00    +0.000 N 
ATOM     11  C   UNL     1      -0.814  12.638  23.057  0.00  0.00    +0.000 C 
ATOM     12  C   UNL     1      -0.567  14.113  22.709  0.00  0.00    +0.000 C 
ATOM     13  C   UNL     1      -0.318  10.558  21.765  0.00  0.00    +0.000 C 
ATOM     14  O   UNL     1      -0.539   9.806  22.717  0.00  0.00    +0.000 OA
ENDROOT
BRANCH   3  15
ATOM     15  C   UNL     1      -2.107  10.911  17.776  0.00  0.00    +0.000 A 
ATOM     16  C   UNL     1      -1.759  10.103  16.682  0.00  0.00    +0.000 A 
ATOM     17  C   UNL     1      -2.667   9.898  15.635  0.00  0.00    +0.000 A 
ATOM     18  C   UNL     1      -3.925  10.500  15.667  0.00  0.00    +0.000 A 
ATOM     19  C   UNL     1      -4.286  11.283  16.759  0.00  0.00    +0.000 A 
ATOM     20  C   UNL     1      -3.390  11.465  17.812  0.00  0.00    +0.000 A 
ATOM     21  F   UNL     1      -3.815  12.177  18.866  0.00  0.00    +0.000 F 
ENDBRANCH   3  15
BRANCH   1  24
ATOM     22  O   UNL     1       2.165   8.704  18.689  0.00  0.00    +0.000 OA
ATOM     23  C   UNL     1       1.755   8.169  19.715  0.00  0.00    +0.000 C 
ATOM     24  N   UNL     1       0.894   8.778  20.593  0.00  0.00    +0.000 N 
ATOM     25  H   UNL     1       0.686   8.363  21.483  0.00  0.00    +0.000 HD
BRANCH  23  26
ATOM     26  C   UNL     1       2.074   6.804  20.089  0.00  0.00    +0.000 A 
ATOM     27  C   UNL     1       1.363   5.912  20.875  0.00  0.00    +0.000 A 
ATOM     28  C   UNL     1       1.928   4.627  20.722  0.00  0.00    +0.000 A 
ATOM     29  C   UNL     1       1.520   3.345  21.129  0.00  0.00    +0.000 A 
ATOM     30  C   UNL     1       2.317   2.246  20.809  0.00  0.00    +0.000 A 
ATOM     31  C   UNL     1       3.527   2.423  20.139  0.00  0.00    +0.000 A 
ATOM     32  C   UNL     1       3.950   3.694  19.721  0.00  0.00    +0.000 A 
ATOM     33  C   UNL     1       3.106   4.780  19.994  0.00  0.00    +0.000 A 
ATOM     34  N   UNL     1       3.186   6.116  19.644  0.00  0.00    +0.000 N 
ATOM     35  H   UNL     1       3.906   6.520  19.057  0.00  0.00    +0.000 HD
ENDBRANCH  23  26
ENDBRANCH   1  24
TORSDOF 3
ENDMDL
MODEL 3
REMARK VINA RESULT:      -8.6      3.817      8.906
REMARK  Name = 
REMARK  3 active torsions:
REMARK  status: ('A' for Active; 'I' for Inactive)
REMARK    1  A    between atoms: C_2  and  C_25
REMARK    2  A    between atoms: N_3  and  C_4
REMARK    3  A    between atoms: C_6  and  C_7
REMARK                            x       y       z     vdW  Elec       q    Type
REMARK                         _______ _______ _______ _____ _____    ______ ____
ROOT
ATOM      1  C   UNL     1       0.448   9.862  19.771  0.00  0.00    +0.000 C 
ATOM      2  N   UNL     1      -0.569   9.980  18.731  0.00  0.00    +0.000 NA
ATOM      3  C   UNL     1      -1.403  10.967  18.718  0.00  0.00    +0.000 C 
ATOM      4  C   UNL     1      -1.429  12.068  19.733  0.00  0.00    +0.000 A 
ATOM      5  C   UNL     1      -1.787  13.377  19.368  0.00  0.00    +0.000 A 
ATOM      6  C   UNL     1      -2.025  14.359  20.345  0.00  0.00    +0.000 A 
ATOM      7  C   UNL     1      -1.890  14.062  21.703  0.00  0.00    +0.000 A 
ATOM      8  C   UNL     1      -1.499  12.782  22.057  0.00  0.00    +0.000 A 
ATOM      9  C   UNL     1      -1.238  11.814  21.084  0.00  0.00    +0.000 A 
ATOM     10  N   UNL     1      -0.839  10.634  21.718  0.00  0.00    +0.000 N 
ATOM     11  C   UNL     1      -1.096  10.738  23.150  0.00  0.00    +0.000 C 
ATOM     12  C   UNL     1      -1.252  12.240  23.434  0.00  0.00    +0.000 C 
ATOM     13  C   UNL     1      -0.230   9.547  21.132  0.00  0.00    +0.000 C 
ATOM     14  O   UNL     1      -0.169   8.451  21.695  0.00  0.00    +0.000 OA
ENDROOT
BRANCH   3  15
ATOM     15  C   UNL     1      -2.422  10.960  17.606  0.00  0.00    +0.000 A 
ATOM     16  C   UNL     1      -2.021  10.601  16.310  0.00  0.00    +0.000 A 
ATOM     17  C   UNL     1      -2.946  10.591  15.259  0.00  0.00    +0.000 A 
ATOM     18  C   UNL     1      -4.276  10.943  15.489  0.00  0.00    +0.000 A 
ATOM     19  C   UNL     1      -4.687  11.277  16.775  0.00  0.00    +0.000 A 
ATOM     20  C   UNL     1      -3.770  11.261  17.826  0.00  0.00    +0.000 A 
ATOM     21  F   UNL     1      -4.235  11.530  19.054  0.00  0.00    +0.000 F 
ENDBRANCH   3  15
BRANCH   1  24
ATOM     22  O   UNL     1       2.169   9.709  17.478  0.00  0.00    +0.000 OA
ATOM     23  C   UNL     1       2.083   8.762  18.255  0.00  0.00    +0.000 C 
ATOM     24  N   UNL     1       1.265   8.760  19.355  0.00  0.00    +0.000 N 
ATOM     25  H   UNL     1       1.319   8.025  20.037  0.00  0.00    +0.000 HD
BRANCH  23  26
ATOM     26  C   UNL     1       2.781   7.504  18.065  0.00  0.00    +0.000 A 
ATOM     27  C   UNL     1       2.427   6.226  18.463  0.00  0.00    +0.000 A 
ATOM     28  C   UNL     1       3.272   5.300  17.812  0.00  0.00    +0.000 A 
ATOM     29  C   UNL     1       3.256   3.900  17.703  0.00  0.00    +0.000 A 
ATOM     30  C   UNL     1       4.255   3.265  16.965  0.00  0.00    +0.000 A 
ATOM     31  C   UNL     1       5.283   4.008  16.386  0.00  0.00    +0.000 A 
ATOM     32  C   UNL     1       5.315   5.408  16.480  0.00  0.00    +0.000 A 
ATOM     33  C   UNL     1       4.268   6.034  17.171  0.00  0.00    +0.000 A 
ATOM     34  N   UNL     1       3.963   7.370  17.363  0.00  0.00    +0.000 N 
ATOM     35  H   UNL     1       4.475   8.145  16.959  0.00  0.00    +0.000 HD
ENDBRANCH  23  26
ENDBRANCH   1  24
TORSDOF 3
ENDMDL
MODEL 4
REMARK VINA RESULT:      -8.5      3.370      9.125
REMARK  Name = 
REMARK  3 active torsions:
REMARK  status: ('A' for Active; 'I' for Inactive)
REMARK    1  A    between atoms: C_2  and  C_25
REMARK    2  A    between atoms: N_3  and  C_4
REMARK    3  A    between atoms: C_6  and  C_7
REMARK                            x       y       z     vdW  Elec       q    Type
REMARK                         _______ _______ _______ _____ _____    ______ ____
ROOT
ATOM      1  C   UNL     1      -0.237  10.448  19.410  0.00  0.00    +0.000 C 
ATOM      2  N   UNL     1       0.597  11.646  19.443  0.00  0.00    +0.000 NA
ATOM      3  C   UNL     1       0.132  12.773  19.871  0.00  0.00    +0.000 C 
ATOM      4  C   UNL     1      -1.266  12.982  20.365  0.00  0.00    +0.000 A 
ATOM      5  C   UNL     1      -1.537  13.891  21.401  0.00  0.00    +0.000 A 
ATOM      6  C   UNL     1      -2.859  14.251  21.718  0.00  0.00    +0.000 A 
ATOM      7  C   UNL     1      -3.936  13.697  21.024  0.00  0.00    +0.000 A 
ATOM      8  C   UNL     1      -3.666  12.771  20.030  0.00  0.00    +0.000 A 
ATOM      9  C   UNL     1      -2.354  12.394  19.733  0.00  0.00    +0.000 A 
ATOM     10  N   UNL     1      -2.379  11.434  18.717  0.00  0.00    +0.000 N 
ATOM     11  C   UNL     1      -3.719  11.367  18.143  0.00  0.00    +0.000 C 
ATOM     12  C   UNL     1      -4.646  12.018  19.180  0.00  0.00    +0.000 C 
ATOM     13  C   UNL     1      -1.345  10.610  18.334  0.00  0.00    +0.000 C 
ATOM     14  O   UNL     1      -1.359  10.001  17.262  0.00  0.00    +0.000 OA
ENDROOT
BRANCH   3  15
ATOM     15  C   UNL     1       1.084  13.942  19.829  0.00  0.00    +0.000 A 
ATOM     16  C   UNL     1       2.295  13.866  20.535  0.00  0.00    +0.000 A 
ATOM     17  C   UNL     1       3.195  14.939  20.516  0.00  0.00    +0.000 A 
ATOM     18  C   UNL     1       2.895  16.097  19.800  0.00  0.00    +0.000 A 
ATOM     19  C   UNL     1       1.708  16.171  19.078  0.00  0.00    +0.000 A 
ATOM     20  C   UNL     1       0.824  15.092  19.076  0.00  0.00    +0.000 A 
ATOM     21  F   UNL     1      -0.273  15.195  18.313  0.00  0.00    +0.000 F 
ENDBRANCH   3  15
BRANCH   1  24
ATOM     22  O   UNL     1       1.319   8.773  21.148  0.00  0.00    +0.000 OA
ATOM     23  C   UNL     1       1.361   8.615  19.930  0.00  0.00    +0.000 C 
ATOM     24  N   UNL     1       0.662   9.393  19.043  0.00  0.00    +0.000 N 
ATOM     25  H   UNL     1       0.616   9.151  18.070  0.00  0.00    +0.000 HD
BRANCH  23  26
ATOM     26  C   UNL     1       2.208   7.634  19.278  0.00  0.00    +0.000 A 
ATOM     27  C   UNL     1       2.692   7.604  17.981  0.00  0.00    +0.000 A 
ATOM     28  C   UNL     1       3.693   6.611  17.896  0.00  0.00    +0.000 A 
ATOM     29  C   UNL     1       4.624   6.271  16.900  0.00  0.00    +0.000 A 
ATOM     30  C   UNL     1       5.506   5.214  17.128  0.00  0.00    +0.000 A 
ATOM     31  C   UNL     1       5.429   4.474  18.307  0.00  0.00    +0.000 A 
ATOM     32  C   UNL     1       4.509   4.799  19.315  0.00  0.00    +0.000 A 
ATOM     33  C   UNL     1       3.674   5.905  19.097  0.00  0.00    +0.000 A 
ATOM     34  N   UNL     1       2.744   6.528  19.910  0.00  0.00    +0.000 N 
ATOM     35  H   UNL     1       2.553   6.276  20.872  0.00  0.00    +0.000 HD
ENDBRANCH  23  26
ENDBRANCH   1  24
TORSDOF 3
ENDMDL
MODEL 5
REMARK VINA RESULT:      -8.5      0.827      1.168
REMARK  Name = 
REMARK  3 active torsions:
REMARK  status: ('A' for Active; 'I' for Inactive)
REMARK    1  A    between atoms: C_2  and  C_25
REMARK    2  A    between atoms: N_3  and  C_4
REMARK    3  A    between atoms: C_6  and  C_7
REMARK                            x       y       z     vdW  Elec       q    Type
REMARK                         _______ _______ _______ _____ _____    ______ ____
ROOT
ATOM      1  C   UNL     1       2.282   7.408  18.390  0.00  0.00    +0.000 C 
ATOM      2  N   UNL     1       3.577   7.042  17.824  0.00  0.00    +0.000 NA
ATOM      3  C   UNL     1       3.873   5.809  17.571  0.00  0.00    +0.000 C 
ATOM      4  C   UNL     1       2.959   4.650  17.821  0.00  0.00    +0.000 A 
ATOM      5  C   UNL     1       2.964   3.531  16.970  0.00  0.00    +0.000 A 
ATOM      6  C   UNL     1       2.275   2.356  17.318  0.00  0.00    +0.000 A 
ATOM      7  C   UNL     1       1.550   2.281  18.509  0.00  0.00    +0.000 A 
ATOM      8  C   UNL     1       1.515   3.398  19.325  0.00  0.00    +0.000 A 
ATOM      9  C   UNL     1       2.179   4.574  18.966  0.00  0.00    +0.000 A 
ATOM     10  N   UNL     1       1.952   5.539  19.951  0.00  0.00    +0.000 N 
ATOM     11  C   UNL     1       1.345   4.910  21.120  0.00  0.00    +0.000 C 
ATOM     12  C   UNL     1       0.780   3.571  20.622  0.00  0.00    +0.000 C 
ATOM     13  C   UNL     1       2.184   6.892  19.851  0.00  0.00    +0.000 C 
ATOM     14  O   UNL     1       2.224   7.623  20.843  0.00  0.00    +0.000 OA
ENDROOT
BRANCH   3  15
ATOM     15  C   UNL     1       5.251   5.560  17.013  0.00  0.00    +0.000 A 
ATOM     16  C   UNL     1       6.189   4.862  17.790  0.00  0.00    +0.000 A 
ATOM     17  C   UNL     1       7.478   4.621  17.298  0.00  0.00    +0.000 A 
ATOM     18  C   UNL     1       7.844   5.076  16.031  0.00  0.00    +0.000 A 
ATOM     19  C   UNL     1       6.913   5.747  15.245  0.00  0.00    +0.000 A 
ATOM     20  C   UNL     1       5.622   5.964  15.727  0.00  0.00    +0.000 A 
ATOM     21  F   UNL     1       4.749   6.560  14.902  0.00  0.00    +0.000 F 
ENDBRANCH   3  15
BRANCH   1  24
ATOM     22  O   UNL     1       0.047   9.145  17.905  0.00  0.00    +0.000 OA
ATOM     23  C   UNL     1       1.156   9.612  18.147  0.00  0.00    +0.000 C 
ATOM     24  N   UNL     1       2.269   8.841  18.366  0.00  0.00    +0.000 N 
ATOM     25  H   UNL     1       3.126   9.252  18.690  0.00  0.00    +0.000 HD
BRANCH  23  26
ATOM     26  C   UNL     1       1.441  11.035  18.162  0.00  0.00    +0.000 A 
ATOM     27  C   UNL     1       0.667  12.088  18.619  0.00  0.00    +0.000 A 
ATOM     28  C   UNL     1       1.473  13.246  18.683  0.00  0.00    +0.000 A 
ATOM     29  C   UNL     1       1.272  14.525  19.227  0.00  0.00    +0.000 A 
ATOM     30  C   UNL     1       2.292  15.472  19.131  0.00  0.00    +0.000 A 
ATOM     31  C   UNL     1       3.475  15.167  18.459  0.00  0.00    +0.000 A 
ATOM     32  C   UNL     1       3.697  13.894  17.912  0.00  0.00    +0.000 A 
ATOM     33  C   UNL     1       2.687  12.935  18.074  0.00  0.00    +0.000 A 
ATOM     34  N   UNL     1       2.633  11.593  17.741  0.00  0.00    +0.000 N 
ATOM     35  H   UNL     1       3.396  11.064  17.338  0.00  0.00    +0.000 HD
ENDBRANCH  23  26
ENDBRANCH   1  24
TORSDOF 3
ENDMDL
MODEL 6
REMARK VINA RESULT:      -8.5      3.745      9.264
REMARK  Name = 
REMARK  3 active torsions:
REMARK  status: ('A' for Active; 'I' for Inactive)
REMARK    1  A    between atoms: C_2  and  C_25
REMARK    2  A    between atoms: N_3  and  C_4
REMARK    3  A    between atoms: C_6  and  C_7
REMARK                            x       y       z     vdW  Elec       q    Type
REMARK                         _______ _______ _______ _____ _____    ______ ____
ROOT
ATOM      1  C   UNL     1       0.331   9.822  20.326  0.00  0.00    +0.000 C 
ATOM      2  N   UNL     1      -0.621   9.863  19.221  0.00  0.00    +0.000 NA
ATOM      3  C   UNL     1      -1.183  10.971  18.862  0.00  0.00    +0.000 C 
ATOM      4  C   UNL     1      -0.937  12.296  19.515  0.00  0.00    +0.000 A 
ATOM      5  C   UNL     1      -0.956  13.484  18.765  0.00  0.00    +0.000 A 
ATOM      6  C   UNL     1      -0.945  14.739  19.399  0.00  0.00    +0.000 A 
ATOM      7  C   UNL     1      -0.892  14.834  20.790  0.00  0.00    +0.000 A 
ATOM      8  C   UNL     1      -0.834  13.662  21.524  0.00  0.00    +0.000 A 
ATOM      9  C   UNL     1      -0.819  12.416  20.893  0.00  0.00    +0.000 A 
ATOM     10  N   UNL     1      -0.729  11.417  21.866  0.00  0.00    +0.000 N 
ATOM     11  C   UNL     1      -0.957  11.999  23.184  0.00  0.00    +0.000 C 
ATOM     12  C   UNL     1      -0.735  13.509  23.014  0.00  0.00    +0.000 C 
ATOM     13  C   UNL     1      -0.408  10.094  21.664  0.00  0.00    +0.000 C 
ATOM     14  O   UNL     1      -0.624   9.232  22.520  0.00  0.00    +0.000 OA
ENDROOT
BRANCH   3  15
ATOM     15  C   UNL     1      -2.168  10.877  17.724  0.00  0.00    +0.000 A 
ATOM     16  C   UNL     1      -1.812  10.169  16.566  0.00  0.00    +0.000 A 
ATOM     17  C   UNL     1      -2.706  10.070  15.492  0.00  0.00    +0.000 A 
ATOM     18  C   UNL     1      -3.959  10.680  15.562  0.00  0.00    +0.000 A 
ATOM     19  C   UNL     1      -4.329  11.363  16.716  0.00  0.00    +0.000 A 
ATOM     20  C   UNL     1      -3.447  11.438  17.794  0.00  0.00    +0.000 A 
ATOM     21  F   UNL     1      -3.880  12.055  18.903  0.00  0.00    +0.000 F 
ENDBRANCH   3  15
BRANCH   1  24
ATOM     22  O   UNL     1       2.381   8.749  18.625  0.00  0.00    +0.000 OA
ATOM     23  C   UNL     1       1.848   8.043  19.477  0.00  0.00    +0.000 C 
ATOM     24  N   UNL     1       0.849   8.485  20.307  0.00  0.00    +0.000 N 
ATOM     25  H   UNL     1       0.531   7.924  21.076  0.00  0.00    +0.000 HD
BRANCH  23  26
ATOM     26  C   UNL     1       2.159   6.638  19.664  0.00  0.00    +0.000 A 
ATOM     27  C   UNL     1       3.023   5.821  18.955  0.00  0.00    +0.000 A 
ATOM     28  C   UNL     1       3.202   4.620  19.676  0.00  0.00    +0.000 A 
ATOM     29  C   UNL     1       4.082   3.535  19.528  0.00  0.00    +0.000 A 
ATOM     30  C   UNL     1       4.011   2.474  20.432  0.00  0.00    +0.000 A 
ATOM     31  C   UNL     1       3.045   2.470  21.438  0.00  0.00    +0.000 A 
ATOM     32  C   UNL     1       2.160   3.546  21.605  0.00  0.00    +0.000 A 
ATOM     33  C   UNL     1       2.289   4.632  20.728  0.00  0.00    +0.000 A 
ATOM     34  N   UNL     1       1.647   5.858  20.682  0.00  0.00    +0.000 N 
ATOM     35  H   UNL     1       0.969   6.183  21.361  0.00  0.00    +0.000 HD
ENDBRANCH  23  26
ENDBRANCH   1  24
TORSDOF 3
ENDMDL
MODEL 7
REMARK VINA RESULT:      -8.4      0.606      1.088
REMARK  Name = 
REMARK  3 active torsions:
REMARK  status: ('A' for Active; 'I' for Inactive)
REMARK    1  A    between atoms: C_2  and  C_25
REMARK    2  A    between atoms: N_3  and  C_4
REMARK    3  A    between atoms: C_6  and  C_7
REMARK                            x       y       z     vdW  Elec       q    Type
REMARK                         _______ _______ _______ _____ _____    ______ ____
ROOT
ATOM      1  C   UNL     1       2.205   7.188  18.697  0.00  0.00    +0.000 C 
ATOM      2  N   UNL     1       3.463   6.879  18.024  0.00  0.00    +0.000 NA
ATOM      3  C   UNL     1       3.752   5.670  17.668  0.00  0.00    +0.000 C 
ATOM      4  C   UNL     1       2.867   4.484  17.897  0.00  0.00    +0.000 A 
ATOM      5  C   UNL     1       2.826   3.426  16.973  0.00  0.00    +0.000 A 
ATOM      6  C   UNL     1       2.172   2.221  17.283  0.00  0.00    +0.000 A 
ATOM      7  C   UNL     1       1.527   2.055  18.511  0.00  0.00    +0.000 A 
ATOM      8  C   UNL     1       1.536   3.114  19.402  0.00  0.00    +0.000 A 
ATOM      9  C   UNL     1       2.165   4.320  19.083  0.00  0.00    +0.000 A 
ATOM     10  N   UNL     1       1.995   5.213  20.145  0.00  0.00    +0.000 N 
ATOM     11  C   UNL     1       1.473   4.498  21.304  0.00  0.00    +0.000 C 
ATOM     12  C   UNL     1       0.888   3.189  20.754  0.00  0.00    +0.000 C 
ATOM     13  C   UNL     1       2.208   6.573  20.122  0.00  0.00    +0.000 C 
ATOM     14  O   UNL     1       2.308   7.235  21.158  0.00  0.00    +0.000 OA
ENDROOT
BRANCH   3  15
ATOM     15  C   UNL     1       5.093   5.477  17.006  0.00  0.00    +0.000 A 
ATOM     16  C   UNL     1       5.234   5.775  15.642  0.00  0.00    +0.000 A 
ATOM     17  C   UNL     1       6.467   5.601  15.001  0.00  0.00    +0.000 A 
ATOM     18  C   UNL     1       7.568   5.123  15.712  0.00  0.00    +0.000 A 
ATOM     19  C   UNL     1       7.443   4.847  17.070  0.00  0.00    +0.000 A 
ATOM     20  C   UNL     1       6.221   5.046  17.712  0.00  0.00    +0.000 A 
ATOM     21  F   UNL     1       6.175   4.825  19.033  0.00  0.00    +0.000 F 
ENDBRANCH   3  15
BRANCH   1  24
ATOM     22  O   UNL     1       0.350   8.987  17.443  0.00  0.00    +0.000 OA
ATOM     23  C   UNL     1       1.247   9.420  18.162  0.00  0.00    +0.000 C 
ATOM     24  N   UNL     1       2.178   8.619  18.772  0.00  0.00    +0.000 N 
ATOM     25  H   UNL     1       2.812   8.994  19.455  0.00  0.00    +0.000 HD
BRANCH  23  26
ATOM     26  C   UNL     1       1.473  10.834  18.396  0.00  0.00    +0.000 A 
ATOM     27  C   UNL     1       2.578  11.614  18.100  0.00  0.00    +0.000 A 
ATOM     28  C   UNL     1       2.225  12.973  18.257  0.00  0.00    +0.000 A 
ATOM     29  C   UNL     1       2.873  14.176  17.931  0.00  0.00    +0.000 A 
ATOM     30  C   UNL     1       2.242  15.387  18.217  0.00  0.00    +0.000 A 
ATOM     31  C   UNL     1       1.006  15.402  18.863  0.00  0.00    +0.000 A 
ATOM     32  C   UNL     1       0.341  14.211  19.193  0.00  0.00    +0.000 A 
ATOM     33  C   UNL     1       0.961  13.004  18.841  0.00  0.00    +0.000 A 
ATOM     34  N   UNL     1       0.537  11.691  18.941  0.00  0.00    +0.000 N 
ATOM     35  H   UNL     1      -0.375  11.399  19.271  0.00  0.00    +0.000 HD
ENDBRANCH  23  26
ENDBRANCH   1  24
TORSDOF 3
ENDMDL
MODEL 8
REMARK VINA RESULT:      -8.4      3.718      9.132
REMARK  Name = 
REMARK  3 active torsions:
REMARK  status: ('A' for Active; 'I' for Inactive)
REMARK    1  A    between atoms: C_2  and  C_25
REMARK    2  A    between atoms: N_3  and  C_4
REMARK    3  A    between atoms: C_6  and  C_7
REMARK                            x       y       z     vdW  Elec       q    Type
REMARK                         _______ _______ _______ _____ _____    ______ ____
ROOT
ATOM      1  C   UNL     1       0.354   9.698  20.077  0.00  0.00    +0.000 C 
ATOM      2  N   UNL     1      -0.615   9.793  18.989  0.00  0.00    +0.000 NA
ATOM      3  C   UNL     1      -1.265  10.887  18.765  0.00  0.00    +0.000 C 
ATOM      4  C   UNL     1      -1.113  12.143  19.565  0.00  0.00    +0.000 A 
ATOM      5  C   UNL     1      -1.234  13.405  18.958  0.00  0.00    +0.000 A 
ATOM      6  C   UNL     1      -1.310  14.575  19.733  0.00  0.00    +0.000 A 
ATOM      7  C   UNL     1      -1.244  14.513  21.126  0.00  0.00    +0.000 A 
ATOM      8  C   UNL     1      -1.084  13.272  21.719  0.00  0.00    +0.000 A 
ATOM      9  C   UNL     1      -0.984  12.113  20.947  0.00  0.00    +0.000 A 
ATOM     10  N   UNL     1      -0.802  11.018  21.798  0.00  0.00    +0.000 N 
ATOM     11  C   UNL     1      -1.054  11.425  23.176  0.00  0.00    +0.000 C 
ATOM     12  C   UNL     1      -0.952  12.958  23.180  0.00  0.00    +0.000 C 
ATOM     13  C   UNL     1      -0.384   9.756  21.442  0.00  0.00    +0.000 C 
ATOM     14  O   UNL     1      -0.520   8.787  22.193  0.00  0.00    +0.000 OA
ENDROOT
BRANCH   3  15
ATOM     15  C   UNL     1      -2.257  10.848  17.629  0.00  0.00    +0.000 A 
ATOM     16  C   UNL     1      -1.887  10.248  16.416  0.00  0.00    +0.000 A 
ATOM     17  C   UNL     1      -2.788  10.202  15.344  0.00  0.00    +0.000 A 
ATOM     18  C   UNL     1      -4.060  10.759  15.470  0.00  0.00    +0.000 A 
ATOM     19  C   UNL     1      -4.443  11.335  16.677  0.00  0.00    +0.000 A 
ATOM     20  C   UNL     1      -3.554  11.356  17.752  0.00  0.00    +0.000 A 
ATOM     21  F   UNL     1      -3.999  11.867  18.909  0.00  0.00    +0.000 F 
ENDBRANCH   3  15
BRANCH   1  24
ATOM     22  O   UNL     1       2.449   8.990  18.245  0.00  0.00    +0.000 OA
ATOM     23  C   UNL     1       1.987   8.152  19.016  0.00  0.00    +0.000 C 
ATOM     24  N   UNL     1       0.973   8.417  19.899  0.00  0.00    +0.000 N 
ATOM     25  H   UNL     1       0.713   7.749  20.602  0.00  0.00    +0.000 HD
BRANCH  23  26
ATOM     26  C   UNL     1       2.409   6.764  19.037  0.00  0.00    +0.000 A 
ATOM     27  C   UNL     1       2.276   5.813  20.034  0.00  0.00    +0.000 A 
ATOM     28  C   UNL     1       2.582   4.545  19.493  0.00  0.00    +0.000 A 
ATOM     29  C   UNL     1       2.446   3.236  19.982  0.00  0.00    +0.000 A 
ATOM     30  C   UNL     1       2.845   2.166  19.180  0.00  0.00    +0.000 A 
ATOM     31  C   UNL     1       3.418   2.398  17.930  0.00  0.00    +0.000 A 
ATOM     32  C   UNL     1       3.559   3.699  17.422  0.00  0.00    +0.000 A 
ATOM     33  C   UNL     1       3.093   4.757  18.214  0.00  0.00    +0.000 A 
ATOM     34  N   UNL     1       3.003   6.117  17.971  0.00  0.00    +0.000 N 
ATOM     35  H   UNL     1       3.243   6.566  17.096  0.00  0.00    +0.000 HD
ENDBRANCH  23  26
ENDBRANCH   1  24
TORSDOF 3
ENDMDL
MODEL 9
REMARK VINA RESULT:      -8.3      3.207      8.983
REMARK  Name = 
REMARK  3 active torsions:
REMARK  status: ('A' for Active; 'I' for Inactive)
REMARK    1  A    between atoms: C_2  and  C_25
REMARK    2  A    between atoms: N_3  and  C_4
REMARK    3  A    between atoms: C_6  and  C_7
REMARK                            x       y       z     vdW  Elec       q    Type
REMARK                         _______ _______ _______ _____ _____    ______ ____
ROOT
ATOM      1  C   UNL     1       0.082  10.369  19.226  0.00  0.00    +0.000 C 
ATOM      2  N   UNL     1       0.875  11.595  19.221  0.00  0.00    +0.000 NA
ATOM      3  C   UNL     1       0.387  12.709  19.657  0.00  0.00    +0.000 C 
ATOM      4  C   UNL     1      -1.000  12.874  20.198  0.00  0.00    +0.000 A 
ATOM      5  C   UNL     1      -1.266  13.783  21.236  0.00  0.00    +0.000 A 
ATOM      6  C   UNL     1      -2.587  14.101  21.596  0.00  0.00    +0.000 A 
ATOM      7  C   UNL     1      -3.668  13.504  20.945  0.00  0.00    +0.000 A 
ATOM      8  C   UNL     1      -3.401  12.580  19.949  0.00  0.00    +0.000 A 
ATOM      9  C   UNL     1      -2.088  12.245  19.608  0.00  0.00    +0.000 A 
ATOM     10  N   UNL     1      -2.115  11.276  18.601  0.00  0.00    +0.000 N 
ATOM     11  C   UNL     1      -3.471  11.158  18.075  0.00  0.00    +0.000 C 
ATOM     12  C   UNL     1      -4.384  11.786  19.139  0.00  0.00    +0.000 C 
ATOM     13  C   UNL     1      -1.068  10.485  18.189  0.00  0.00    +0.000 C 
ATOM     14  O   UNL     1      -1.098   9.866  17.122  0.00  0.00    +0.000 OA
ENDROOT
BRANCH   3  15
ATOM     15  C   UNL     1       1.297  13.909  19.573  0.00  0.00    +0.000 A 
ATOM     16  C   UNL     1       2.572  13.845  20.156  0.00  0.00    +0.000 A 
ATOM     17  C   UNL     1       3.435  14.946  20.097  0.00  0.00    +0.000 A 
ATOM     18  C   UNL     1       3.033  16.121  19.462  0.00  0.00    +0.000 A 
ATOM     19  C   UNL     1       1.780  16.185  18.861  0.00  0.00    +0.000 A 
ATOM     20  C   UNL     1       0.932  15.078  18.899  0.00  0.00    +0.000 A 
ATOM     21  F   UNL     1      -0.237  15.175  18.249  0.00  0.00    +0.000 F 
ENDBRANCH   3  15
BRANCH   1  24
ATOM     22  O   UNL     1       1.288   8.359  20.885  0.00  0.00    +0.000 OA
ATOM     23  C   UNL     1       1.527   8.397  19.680  0.00  0.00    +0.000 C 
ATOM     24  N   UNL     1       1.003   9.341  18.836  0.00  0.00    +0.000 N 
ATOM     25  H   UNL     1       1.113   9.262  17.841  0.00  0.00    +0.000 HD
BRANCH  23  26
ATOM     26  C   UNL     1       2.446   7.491  19.017  0.00  0.00    +0.000 A 
ATOM     27  C   UNL     1       2.593   6.121  19.155  0.00  0.00    +0.000 A 
ATOM     28  C   UNL     1       3.413   5.648  18.107  0.00  0.00    +0.000 A 
ATOM     29  C   UNL     1       3.746   4.359  17.657  0.00  0.00    +0.000 A 
ATOM     30  C   UNL     1       4.599   4.221  16.562  0.00  0.00    +0.000 A 
ATOM     31  C   UNL     1       5.155   5.348  15.956  0.00  0.00    +0.000 A 
ATOM     32  C   UNL     1       4.833   6.643  16.388  0.00  0.00    +0.000 A 
ATOM     33  C   UNL     1       3.923   6.764  17.448  0.00  0.00    +0.000 A 
ATOM     34  N   UNL     1       3.341   7.873  18.037  0.00  0.00    +0.000 N 
ATOM     35  H   UNL     1       3.472   8.829  17.729  0.00  0.00    +0.000 HD
ENDBRANCH  23  26
ENDBRANCH   1  24
TORSDOF 3
ENDMDL
