MODEL 1
REMARK VINA RESULT:      -9.0      0.000      0.000
REMARK  Name = 
REMARK  8 active torsions:
REMARK  status: ('A' for Active; 'I' for Inactive)
REMARK    1  A    between atoms: C_1  and  C_2
REMARK    2  A    between atoms: C_2  and  C_3
REMARK    3  A    between atoms: C_6  and  C_7
REMARK    4  A    between atoms: C_6  and  C_8
REMARK    5  A    between atoms: C_11  and  C_12
REMARK    6  A    between atoms: C_15  and  C_16
REMARK    7  A    between atoms: C_19  and  C_20
REMARK    8  A    between atoms: C_20  and  O_22
REMARK                            x       y       z     vdW  Elec       q    Type
REMARK                         _______ _______ _______ _____ _____    ______ ____
ROOT
ATOM      1  C   UNL     1       1.395   8.247  20.170  0.00  0.00    +0.000 A 
ATOM      2  C   UNL     1       1.610   6.996  20.718  0.00  0.00    +0.000 A 
ATOM      3  C   UNL     1       2.416   6.162  19.897  0.00  0.00    +0.000 A 
ATOM      4  C   UNL     1       2.829   6.784  18.739  0.00  0.00    +0.000 A 
ATOM      5  S   UNL     1       2.252   8.395  18.685  0.00  0.00    +0.000 S 
ENDROOT
BRANCH   1  16
ATOM      6  C   UNL     1      -2.852  12.155  22.949  0.00  0.00    +0.000 C 
ATOM      7  C   UNL     1      -1.683  12.667  22.082  0.00  0.00    +0.000 C 
ATOM      8  C   UNL     1      -0.781  13.558  22.962  0.00  0.00    +0.000 C 
ATOM      9  C   UNL     1      -2.232  13.546  20.939  0.00  0.00    +0.000 C 
ATOM     10  C   UNL     1      -2.857  12.698  19.839  0.00  0.00    +0.000 C 
ATOM     11  C   UNL     1      -1.812  11.771  19.178  0.00  0.00    +0.000 C 
ATOM     12  C   UNL     1      -2.583  10.743  18.323  0.00  0.00    +0.000 C 
ATOM     13  C   UNL     1      -0.909  12.602  18.243  0.00  0.00    +0.000 C 
ATOM     14  C   UNL     1      -0.949  11.053  20.216  0.00  0.00    +0.000 A 
ATOM     15  N   UNL     1      -0.208   9.988  19.778  0.00  0.00    +0.000 NA
ATOM     16  C   UNL     1       0.544   9.324  20.697  0.00  0.00    +0.000 A 
ATOM     17  C   UNL     1       0.548   9.723  22.021  0.00  0.00    +0.000 A 
ATOM     18  N   UNL     1      -0.159  10.787  22.473  0.00  0.00    +0.000 NA
ATOM     19  C   UNL     1      -0.898  11.470  21.556  0.00  0.00    +0.000 A 
ENDBRANCH   1  16
BRANCH   4  20
ATOM     20  C   UNL     1       3.690   6.236  17.680  0.00  0.00    +0.000 A 
ATOM     21  C   UNL     1       4.486   7.054  16.871  0.00  0.00    +0.000 A 
ATOM     22  C   UNL     1       5.387   6.493  15.957  0.00  0.00    +0.000 A 
ATOM     23  C   UNL     1       5.482   5.101  15.796  0.00  0.00    +0.000 A 
ATOM     24  C   UNL     1       4.663   4.278  16.575  0.00  0.00    +0.000 A 
ATOM     25  C   UNL     1       3.770   4.845  17.499  0.00  0.00    +0.000 A 
BRANCH  23  26
ATOM     26  C   UNL     1       6.505   4.588  14.842  0.00  0.00    +0.000 C 
ATOM     27  O   UNL     1       7.516   5.228  14.565  0.00  0.00    +0.000 OA
BRANCH  26  28
ATOM     28  O   UNL     1       6.239   3.399  14.267  0.00  0.00    +0.000 OA
ATOM     29  H   UNL     1       5.962   2.676  14.854  0.00  0.00    +0.000 HD
ENDBRANCH  26  28
ENDBRANCH  23  26
ENDBRANCH   4  20
TORSDOF 4
ENDMDL
MODEL 2
REMARK VINA RESULT:      -8.5      0.215      1.102
REMARK  Name = 
REMARK  8 active torsions:
REMARK  status: ('A' for Active; 'I' for Inactive)
REMARK    1  A    between atoms: C_1  and  C_2
REMARK    2  A    between atoms: C_2  and  C_3
REMARK    3  A    between atoms: C_6  and  C_7
REMARK    4  A    between atoms: C_6  and  C_8
REMARK    5  A    between atoms: C_11  and  C_12
REMARK    6  A    between atoms: C_15  and  C_16
REMARK    7  A    between atoms: C_19  and  C_20
REMARK    8  A    between atoms: C_20  and  O_22
REMARK                            x       y       z     vdW  Elec       q    Type
REMARK                         _______ _______ _______ _____ _____    ______ ____
ROOT
ATOM      1  C   UNL     1       1.344   8.205  20.279  0.00  0.00    +0.000 A 
ATOM      2  C   UNL     1       1.480   6.927  20.789  0.00  0.00    +0.000 A 
ATOM      3  C   UNL     1       2.316   6.098  19.994  0.00  0.00    +0.000 A 
ATOM      4  C   UNL     1       2.830   6.750  18.894  0.00  0.00    +0.000 A 
ATOM      5  S   UNL     1       2.309   8.380  18.865  0.00  0.00    +0.000 S 
ENDROOT
BRANCH   1  16
ATOM      6  C   UNL     1      -2.922  12.150  22.974  0.00  0.00    +0.000 C 
ATOM      7  C   UNL     1      -1.735  12.652  22.126  0.00  0.00    +0.000 C 
ATOM      8  C   UNL     1      -0.841  13.539  23.018  0.00  0.00    +0.000 C 
ATOM      9  C   UNL     1      -2.258  13.531  20.971  0.00  0.00    +0.000 C 
ATOM     10  C   UNL     1      -2.870  12.684  19.863  0.00  0.00    +0.000 C 
ATOM     11  C   UNL     1      -1.821  11.747  19.222  0.00  0.00    +0.000 C 
ATOM     12  C   UNL     1      -2.584  10.722  18.358  0.00  0.00    +0.000 C 
ATOM     13  C   UNL     1      -0.897  12.569  18.300  0.00  0.00    +0.000 C 
ATOM     14  C   UNL     1      -0.981  11.027  20.277  0.00  0.00    +0.000 A 
ATOM     15  N   UNL     1      -0.239   9.956  19.855  0.00  0.00    +0.000 NA
ATOM     16  C   UNL     1       0.492   9.290  20.788  0.00  0.00    +0.000 A 
ATOM     17  C   UNL     1       0.476   9.693  22.111  0.00  0.00    +0.000 A 
ATOM     18  N   UNL     1      -0.231  10.762  22.548  0.00  0.00    +0.000 NA
ATOM     19  C   UNL     1      -0.950  11.448  21.616  0.00  0.00    +0.000 A 
ENDBRANCH   1  16
BRANCH   4  20
ATOM     20  C   UNL     1       3.747   6.213  17.876  0.00  0.00    +0.000 A 
ATOM     21  C   UNL     1       3.819   4.846  17.589  0.00  0.00    +0.000 A 
ATOM     22  C   UNL     1       4.610   4.381  16.530  0.00  0.00    +0.000 A 
ATOM     23  C   UNL     1       5.382   5.266  15.760  0.00  0.00    +0.000 A 
ATOM     24  C   UNL     1       5.343   6.630  16.065  0.00  0.00    +0.000 A 
ATOM     25  C   UNL     1       4.539   7.093  17.120  0.00  0.00    +0.000 A 
BRANCH  23  26
ATOM     26  C   UNL     1       6.150   4.694  14.619  0.00  0.00    +0.000 C 
ATOM     27  O   UNL     1       5.674   3.838  13.878  0.00  0.00    +0.000 OA
BRANCH  26  28
ATOM     28  O   UNL     1       7.413   5.138  14.470  0.00  0.00    +0.000 OA
ATOM     29  H   UNL     1       7.578   6.076  14.660  0.00  0.00    +0.000 HD
ENDBRANCH  26  28
ENDBRANCH  23  26
ENDBRANCH   4  20
TORSDOF 4
ENDMDL
MODEL 3
REMARK VINA RESULT:      -8.4      4.965      9.958
REMARK  Name = 
REMARK  8 active torsions:
REMARK  status: ('A' for Active; 'I' for Inactive)
REMARK    1  A    between atoms: C_1  and  C_2
REMARK    2  A    between atoms: C_2  and  C_3
REMARK    3  A    between atoms: C_6  and  C_7
REMARK    4  A    between atoms: C_6  and  C_8
REMARK    5  A    between atoms: C_11  and  C_12
REMARK    6  A    between atoms: C_15  and  C_16
REMARK    7  A    between atoms: C_19  and  C_20
REMARK    8  A    between atoms: C_20  and  O_22
REMARK                            x       y       z     vdW  Elec       q    Type
REMARK                         _______ _______ _______ _____ _____    ______ ____
ROOT
ATOM      1  C   UNL     1       1.705   8.663  18.679  0.00  0.00    +0.000 A 
ATOM      2  C   UNL     1       1.154   9.632  17.861  0.00  0.00    +0.000 A 
ATOM      3  C   UNL     1       0.267  10.502  18.552  0.00  0.00    +0.000 A 
ATOM      4  C   UNL     1       0.160  10.206  19.894  0.00  0.00    +0.000 A 
ATOM      5  S   UNL     1       1.172   8.887  20.300  0.00  0.00    +0.000 S 
ENDROOT
BRANCH   1  16
ATOM      6  C   UNL     1       5.218   4.038  15.979  0.00  0.00    +0.000 C 
ATOM      7  C   UNL     1       5.249   4.339  17.492  0.00  0.00    +0.000 C 
ATOM      8  C   UNL     1       6.685   4.754  17.875  0.00  0.00    +0.000 C 
ATOM      9  C   UNL     1       4.908   3.059  18.283  0.00  0.00    +0.000 C 
ATOM     10  C   UNL     1       3.416   2.758  18.233  0.00  0.00    +0.000 C 
ATOM     11  C   UNL     1       2.590   3.883  18.898  0.00  0.00    +0.000 C 
ATOM     12  C   UNL     1       1.112   3.654  18.520  0.00  0.00    +0.000 C 
ATOM     13  C   UNL     1       2.722   3.776  20.431  0.00  0.00    +0.000 C 
ATOM     14  C   UNL     1       3.044   5.269  18.441  0.00  0.00    +0.000 A 
ATOM     15  N   UNL     1       2.207   6.318  18.712  0.00  0.00    +0.000 NA
ATOM     16  C   UNL     1       2.586   7.553  18.288  0.00  0.00    +0.000 A 
ATOM     17  C   UNL     1       3.778   7.725  17.608  0.00  0.00    +0.000 A 
ATOM     18  N   UNL     1       4.634   6.708  17.348  0.00  0.00    +0.000 NA
ATOM     19  C   UNL     1       4.271   5.471  17.788  0.00  0.00    +0.000 A 
ENDBRANCH   1  16
BRANCH   4  20
ATOM     20  C   UNL     1      -0.640  10.909  20.909  0.00  0.00    +0.000 A 
ATOM     21  C   UNL     1      -1.514  11.949  20.577  0.00  0.00    +0.000 A 
ATOM     22  C   UNL     1      -2.352  12.513  21.547  0.00  0.00    +0.000 A 
ATOM     23  C   UNL     1      -2.307  12.081  22.883  0.00  0.00    +0.000 A 
ATOM     24  C   UNL     1      -1.408  11.066  23.229  0.00  0.00    +0.000 A 
ATOM     25  C   UNL     1      -0.579  10.496  22.251  0.00  0.00    +0.000 A 
BRANCH  23  26
ATOM     26  C   UNL     1      -3.271  12.696  23.838  0.00  0.00    +0.000 C 
ATOM     27  O   UNL     1      -3.153  13.856  24.225  0.00  0.00    +0.000 OA
BRANCH  26  28
ATOM     28  O   UNL     1      -4.257  11.896  24.286  0.00  0.00    +0.000 OA
ATOM     29  H   UNL     1      -4.334  11.017  23.878  0.00  0.00    +0.000 HD
ENDBRANCH  26  28
ENDBRANCH  23  26
ENDBRANCH   4  20
TORSDOF 4
ENDMDL
MODEL 4
REMARK VINA RESULT:      -7.9      5.071     10.017
REMARK  Name = 
REMARK  8 active torsions:
REMARK  status: ('A' for Active; 'I' for Inactive)
REMARK    1  A    between atoms: C_1  and  C_2
REMARK    2  A    between atoms: C_2  and  C_3
REMARK    3  A    between atoms: C_6  and  C_7
REMARK    4  A    between atoms: C_6  and  C_8
REMARK    5  A    between atoms: C_11  and  C_12
REMARK    6  A    between atoms: C_15  and  C_16
REMARK    7  A    between atoms: C_19  and  C_20
REMARK    8  A    between atoms: C_20  and  O_22
REMARK                            x       y       z     vdW  Elec       q    Type
REMARK                         _______ _______ _______ _____ _____    ______ ____
ROOT
ATOM      1  C   UNL     1       1.447   8.807  19.119  0.00  0.00    +0.000 A 
ATOM      2  C   UNL     1       1.100   9.840  18.269  0.00  0.00    +0.000 A 
ATOM      3  C   UNL     1       0.209  10.773  18.865  0.00  0.00    +0.000 A 
ATOM      4  C   UNL     1      -0.105  10.459  20.170  0.00  0.00    +0.000 A 
ATOM      5  S   UNL     1       0.722   9.044  20.662  0.00  0.00    +0.000 S 
ENDROOT
BRANCH   1  16
ATOM      6  C   UNL     1       4.599   3.734  16.803  0.00  0.00    +0.000 C 
ATOM      7  C   UNL     1       4.807   4.269  18.235  0.00  0.00    +0.000 C 
ATOM      8  C   UNL     1       6.281   4.705  18.381  0.00  0.00    +0.000 C 
ATOM      9  C   UNL     1       4.555   3.136  19.253  0.00  0.00    +0.000 C 
ATOM     10  C   UNL     1       3.066   2.866  19.423  0.00  0.00    +0.000 C 
ATOM     11  C   UNL     1       2.328   4.101  19.991  0.00  0.00    +0.000 C 
ATOM     12  C   UNL     1       0.815   3.850  19.825  0.00  0.00    +0.000 C 
ATOM     13  C   UNL     1       2.638   4.233  21.496  0.00  0.00    +0.000 C 
ATOM     14  C   UNL     1       2.733   5.387  19.271  0.00  0.00    +0.000 A 
ATOM     15  N   UNL     1       1.938   6.485  19.467  0.00  0.00    +0.000 NA
ATOM     16  C   UNL     1       2.271   7.629  18.811  0.00  0.00    +0.000 A 
ATOM     17  C   UNL     1       3.376   7.664  17.981  0.00  0.00    +0.000 A 
ATOM     18  N   UNL     1       4.191   6.599  17.789  0.00  0.00    +0.000 NA
ATOM     19  C   UNL     1       3.876   5.456  18.459  0.00  0.00    +0.000 A 
ENDBRANCH   1  16
BRANCH   4  20
ATOM     20  C   UNL     1      -0.969  11.210  21.094  0.00  0.00    +0.000 A 
ATOM     21  C   UNL     1      -0.948  10.990  22.476  0.00  0.00    +0.000 A 
ATOM     22  C   UNL     1      -1.691  11.806  23.338  0.00  0.00    +0.000 A 
ATOM     23  C   UNL     1      -2.507  12.834  22.839  0.00  0.00    +0.000 A 
ATOM     24  C   UNL     1      -2.561  13.036  21.456  0.00  0.00    +0.000 A 
ATOM     25  C   UNL     1      -1.806  12.223  20.596  0.00  0.00    +0.000 A 
BRANCH  23  26
ATOM     26  C   UNL     1      -3.219  13.689  23.830  0.00  0.00    +0.000 C 
ATOM     27  O   UNL     1      -3.139  14.915  23.808  0.00  0.00    +0.000 OA
BRANCH  26  28
ATOM     28  O   UNL     1      -3.923  13.042  24.778  0.00  0.00    +0.000 OA
ATOM     29  H   UNL     1      -4.878  13.221  24.820  0.00  0.00    +0.000 HD
ENDBRANCH  26  28
ENDBRANCH  23  26
ENDBRANCH   4  20
TORSDOF 4
ENDMDL
MODEL 5
REMARK VINA RESULT:      -7.8      1.003      1.245
REMARK  Name = 
REMARK  8 active torsions:
REMARK  status: ('A' for Active; 'I' for Inactive)
REMARK    1  A    between atoms: C_1  and  C_2
REMARK    2  A    between atoms: C_2  and  C_3
REMARK    3  A    between atoms: C_6  and  C_7
REMARK    4  A    between atoms: C_6  and  C_8
REMARK    5  A    between atoms: C_11  and  C_12
REMARK    6  A    between atoms: C_15  and  C_16
REMARK    7  A    between atoms: C_19  and  C_20
REMARK    8  A    between atoms: C_20  and  O_22
REMARK                            x       y       z     vdW  Elec       q    Type
REMARK                         _______ _______ _______ _____ _____    ______ ____
ROOT
ATOM      1  C   UNL     1       1.206   8.671  20.258  0.00  0.00    +0.000 A 
ATOM      2  C   UNL     1       1.423   7.466  20.901  0.00  0.00    +0.000 A 
ATOM      3  C   UNL     1       2.208   6.562  20.135  0.00  0.00    +0.000 A 
ATOM      4  C   UNL     1       2.603   7.086  18.923  0.00  0.00    +0.000 A 
ATOM      5  S   UNL     1       2.035   8.691  18.750  0.00  0.00    +0.000 S 
ENDROOT
BRANCH   1  16
ATOM      6  C   UNL     1      -3.251  12.906  22.052  0.00  0.00    +0.000 C 
ATOM      7  C   UNL     1      -1.739  13.204  22.114  0.00  0.00    +0.000 C 
ATOM      8  C   UNL     1      -1.358  13.476  23.585  0.00  0.00    +0.000 C 
ATOM      9  C   UNL     1      -1.428  14.483  21.309  0.00  0.00    +0.000 C 
ATOM     10  C   UNL     1      -1.453  14.214  19.811  0.00  0.00    +0.000 C 
ATOM     11  C   UNL     1      -0.364  13.197  19.400  0.00  0.00    +0.000 C 
ATOM     12  C   UNL     1      -0.671  12.750  17.955  0.00  0.00    +0.000 C 
ATOM     13  C   UNL     1       1.014  13.890  19.413  0.00  0.00    +0.000 C 
ATOM     14  C   UNL     1      -0.336  11.985  20.333  0.00  0.00    +0.000 A 
ATOM     15  N   UNL     1       0.361  10.888  19.904  0.00  0.00    +0.000 NA
ATOM     16  C   UNL     1       0.372   9.794  20.711  0.00  0.00    +0.000 A 
ATOM     17  C   UNL     1      -0.301   9.807  21.919  0.00  0.00    +0.000 A 
ATOM     18  N   UNL     1      -0.978  10.888  22.376  0.00  0.00    +0.000 NA
ATOM     19  C   UNL     1      -0.976  11.995  21.582  0.00  0.00    +0.000 A 
ENDBRANCH   1  16
BRANCH   4  20
ATOM     20  C   UNL     1       3.439   6.447  17.896  0.00  0.00    +0.000 A 
ATOM     21  C   UNL     1       4.300   7.184  17.074  0.00  0.00    +0.000 A 
ATOM     22  C   UNL     1       5.173   6.534  16.193  0.00  0.00    +0.000 A 
ATOM     23  C   UNL     1       5.178   5.135  16.078  0.00  0.00    +0.000 A 
ATOM     24  C   UNL     1       4.295   4.394  16.871  0.00  0.00    +0.000 A 
ATOM     25  C   UNL     1       3.430   5.048  17.761  0.00  0.00    +0.000 A 
BRANCH  23  26
ATOM     26  C   UNL     1       6.177   4.524  15.158  0.00  0.00    +0.000 C 
ATOM     27  O   UNL     1       5.841   3.862  14.178  0.00  0.00    +0.000 OA
BRANCH  26  28
ATOM     28  O   UNL     1       7.472   4.701  15.481  0.00  0.00    +0.000 OA
ATOM     29  H   UNL     1       7.781   4.298  16.311  0.00  0.00    +0.000 HD
ENDBRANCH  26  28
ENDBRANCH  23  26
ENDBRANCH   4  20
TORSDOF 4
ENDMDL
MODEL 6
REMARK VINA RESULT:      -7.8      1.336      1.720
REMARK  Name = 
REMARK  8 active torsions:
REMARK  status: ('A' for Active; 'I' for Inactive)
REMARK    1  A    between atoms: C_1  and  C_2
REMARK    2  A    between atoms: C_2  and  C_3
REMARK    3  A    between atoms: C_6  and  C_7
REMARK    4  A    between atoms: C_6  and  C_8
REMARK    5  A    between atoms: C_11  and  C_12
REMARK    6  A    between atoms: C_15  and  C_16
REMARK    7  A    between atoms: C_19  and  C_20
REMARK    8  A    between atoms: C_20  and  O_22
REMARK                            x       y       z     vdW  Elec       q    Type
REMARK                         _______ _______ _______ _____ _____    ______ ____
ROOT
ATOM      1  C   UNL     1       1.572   8.514  19.796  0.00  0.00    +0.000 A 
ATOM      2  C   UNL     1       1.720   7.290  20.422  0.00  0.00    +0.000 A 
ATOM      3  C   UNL     1       2.492   6.369  19.664  0.00  0.00    +0.000 A 
ATOM      4  C   UNL     1       2.945   6.898  18.475  0.00  0.00    +0.000 A 
ATOM      5  S   UNL     1       2.448   8.528  18.315  0.00  0.00    +0.000 S 
ENDROOT
BRANCH   1  16
ATOM      6  C   UNL     1      -2.678  13.124  21.106  0.00  0.00    +0.000 C 
ATOM      7  C   UNL     1      -1.292  13.045  21.779  0.00  0.00    +0.000 C 
ATOM      8  C   UNL     1      -1.500  12.876  23.299  0.00  0.00    +0.000 C 
ATOM      9  C   UNL     1      -0.532  14.370  21.558  0.00  0.00    +0.000 C 
ATOM     10  C   UNL     1       0.010  14.468  20.139  0.00  0.00    +0.000 C 
ATOM     11  C   UNL     1       1.040  13.351  19.849  0.00  0.00    +0.000 C 
ATOM     12  C   UNL     1       1.283  13.333  18.326  0.00  0.00    +0.000 C 
ATOM     13  C   UNL     1       2.371  13.689  20.551  0.00  0.00    +0.000 C 
ATOM     14  C   UNL     1       0.545  11.984  20.322  0.00  0.00    +0.000 A 
ATOM     15  N   UNL     1       1.216  10.886  19.854  0.00  0.00    +0.000 NA
ATOM     16  C   UNL     1       0.770   9.662  20.245  0.00  0.00    +0.000 A 
ATOM     17  C   UNL     1      -0.322   9.549  21.085  0.00  0.00    +0.000 A 
ATOM     18  N   UNL     1      -0.988  10.621  21.580  0.00  0.00    +0.000 NA
ATOM     19  C   UNL     1      -0.534  11.850  21.209  0.00  0.00    +0.000 A 
ENDBRANCH   1  16
BRANCH   4  20
ATOM     20  C   UNL     1       3.787   6.243  17.462  0.00  0.00    +0.000 A 
ATOM     21  C   UNL     1       4.549   6.975  16.544  0.00  0.00    +0.000 A 
ATOM     22  C   UNL     1       5.435   6.324  15.675  0.00  0.00    +0.000 A 
ATOM     23  C   UNL     1       5.549   4.925  15.671  0.00  0.00    +0.000 A 
ATOM     24  C   UNL     1       4.763   4.185  16.561  0.00  0.00    +0.000 A 
ATOM     25  C   UNL     1       3.885   4.842  17.438  0.00  0.00    +0.000 A 
BRANCH  23  26
ATOM     26  C   UNL     1       6.555   4.320  14.754  0.00  0.00    +0.000 C 
ATOM     27  O   UNL     1       7.706   4.743  14.680  0.00  0.00    +0.000 OA
BRANCH  26  28
ATOM     28  O   UNL     1       6.121   3.308  13.979  0.00  0.00    +0.000 OA
ATOM     29  H   UNL     1       6.508   2.431  14.138  0.00  0.00    +0.000 HD
ENDBRANCH  26  28
ENDBRANCH  23  26
ENDBRANCH   4  20
TORSDOF 4
ENDMDL
MODEL 7
REMARK VINA RESULT:      -7.8      5.003     10.024
REMARK  Name = 
REMARK  8 active torsions:
REMARK  status: ('A' for Active; 'I' for Inactive)
REMARK    1  A    between atoms: C_1  and  C_2
REMARK    2  A    between atoms: C_2  and  C_3
REMARK    3  A    between atoms: C_6  and  C_7
REMARK    4  A    between atoms: C_6  and  C_8
REMARK    5  A    between atoms: C_11  and  C_12
REMARK    6  A    between atoms: C_15  and  C_16
REMARK    7  A    between atoms: C_19  and  C_20
REMARK    8  A    between atoms: C_20  and  O_22
REMARK                            x       y       z     vdW  Elec       q    Type
REMARK                         _______ _______ _______ _____ _____    ______ ____
ROOT
ATOM      1  C   UNL     1       1.882   8.546  19.183  0.00  0.00    +0.000 A 
ATOM      2  C   UNL     1       1.716   9.580  18.281  0.00  0.00    +0.000 A 
ATOM      3  C   UNL     1       1.039  10.699  18.838  0.00  0.00    +0.000 A 
ATOM      4  C   UNL     1       0.710  10.523  20.164  0.00  0.00    +0.000 A 
ATOM      5  S   UNL     1       1.262   9.002  20.723  0.00  0.00    +0.000 S 
ENDROOT
BRANCH   1  16
ATOM      6  C   UNL     1       4.605   2.749  19.119  0.00  0.00    +0.000 C 
ATOM      7  C   UNL     1       3.964   3.388  17.870  0.00  0.00    +0.000 C 
ATOM      8  C   UNL     1       2.801   2.486  17.405  0.00  0.00    +0.000 C 
ATOM      9  C   UNL     1       4.999   3.440  16.726  0.00  0.00    +0.000 C 
ATOM     10  C   UNL     1       6.012   4.554  16.946  0.00  0.00    +0.000 C 
ATOM     11  C   UNL     1       5.334   5.943  16.948  0.00  0.00    +0.000 C 
ATOM     12  C   UNL     1       6.362   6.958  17.490  0.00  0.00    +0.000 C 
ATOM     13  C   UNL     1       4.974   6.340  15.501  0.00  0.00    +0.000 C 
ATOM     14  C   UNL     1       4.072   5.959  17.811  0.00  0.00    +0.000 A 
ATOM     15  N   UNL     1       3.560   7.186  18.140  0.00  0.00    +0.000 NA
ATOM     16  C   UNL     1       2.453   7.215  18.929  0.00  0.00    +0.000 A 
ATOM     17  C   UNL     1       1.878   6.039  19.374  0.00  0.00    +0.000 A 
ATOM     18  N   UNL     1       2.352   4.813  19.043  0.00  0.00    +0.000 NA
ATOM     19  C   UNL     1       3.448   4.775  18.236  0.00  0.00    +0.000 A 
ENDBRANCH   1  16
BRANCH   4  20
ATOM     20  C   UNL     1       0.035  11.476  21.058  0.00  0.00    +0.000 A 
ATOM     21  C   UNL     1      -0.803  11.054  22.097  0.00  0.00    +0.000 A 
ATOM     22  C   UNL     1      -1.331  11.980  23.006  0.00  0.00    +0.000 A 
ATOM     23  C   UNL     1      -1.071  13.353  22.875  0.00  0.00    +0.000 A 
ATOM     24  C   UNL     1      -0.263  13.785  21.818  0.00  0.00    +0.000 A 
ATOM     25  C   UNL     1       0.273  12.853  20.915  0.00  0.00    +0.000 A 
BRANCH  23  26
ATOM     26  C   UNL     1      -1.626  14.261  23.918  0.00  0.00    +0.000 C 
ATOM     27  O   UNL     1      -2.836  14.384  24.096  0.00  0.00    +0.000 OA
BRANCH  26  28
ATOM     28  O   UNL     1      -0.730  14.973  24.627  0.00  0.00    +0.000 OA
ATOM     29  H   UNL     1      -0.779  14.908  25.595  0.00  0.00    +0.000 HD
ENDBRANCH  26  28
ENDBRANCH  23  26
ENDBRANCH   4  20
TORSDOF 4
ENDMDL
MODEL 8
REMARK VINA RESULT:      -7.7      2.706      3.673
REMARK  Name = 
REMARK  8 active torsions:
REMARK  status: ('A' for Active; 'I' for Inactive)
REMARK    1  A    between atoms: C_1  and  C_2
REMARK    2  A    between atoms: C_2  and  C_3
REMARK    3  A    between atoms: C_6  and  C_7
REMARK    4  A    between atoms: C_6  and  C_8
REMARK    5  A    between atoms: C_11  and  C_12
REMARK    6  A    between atoms: C_15  and  C_16
REMARK    7  A    between atoms: C_19  and  C_20
REMARK    8  A    between atoms: C_20  and  O_22
REMARK                            x       y       z     vdW  Elec       q    Type
REMARK                         _______ _______ _______ _____ _____    ______ ____
ROOT
ATOM      1  C   UNL     1       1.223   9.686  19.377  0.00  0.00    +0.000 A 
ATOM      2  C   UNL     1       1.714   9.545  18.092  0.00  0.00    +0.000 A 
ATOM      3  C   UNL     1       2.288   8.267  17.855  0.00  0.00    +0.000 A 
ATOM      4  C   UNL     1       2.215   7.433  18.949  0.00  0.00    +0.000 A 
ATOM      5  S   UNL     1       1.415   8.213  20.246  0.00  0.00    +0.000 S 
ENDROOT
BRANCH   1  16
ATOM      6  C   UNL     1      -2.015  14.873  21.284  0.00  0.00    +0.000 C 
ATOM      7  C   UNL     1      -0.780  14.333  22.034  0.00  0.00    +0.000 C 
ATOM      8  C   UNL     1      -1.211  13.942  23.463  0.00  0.00    +0.000 C 
ATOM      9  C   UNL     1       0.280  15.449  22.157  0.00  0.00    +0.000 C 
ATOM     10  C   UNL     1       1.006  15.671  20.838  0.00  0.00    +0.000 C 
ATOM     11  C   UNL     1       1.787  14.410  20.402  0.00  0.00    +0.000 C 
ATOM     12  C   UNL     1       2.212  14.614  18.933  0.00  0.00    +0.000 C 
ATOM     13  C   UNL     1       3.060  14.274  21.263  0.00  0.00    +0.000 C 
ATOM     14  C   UNL     1       0.943  13.142  20.536  0.00  0.00    +0.000 A 
ATOM     15  N   UNL     1       1.404  12.019  19.903  0.00  0.00    +0.000 NA
ATOM     16  C   UNL     1       0.649  10.892  19.992  0.00  0.00    +0.000 A 
ATOM     17  C   UNL     1      -0.539  10.897  20.700  0.00  0.00    +0.000 A 
ATOM     18  N   UNL     1      -1.004  11.989  21.354  0.00  0.00    +0.000 NA
ATOM     19  C   UNL     1      -0.243  13.116  21.287  0.00  0.00    +0.000 A 
ENDBRANCH   1  16
BRANCH   4  20
ATOM     20  C   UNL     1       2.680   6.041  19.053  0.00  0.00    +0.000 A 
ATOM     21  C   UNL     1       3.567   5.483  18.125  0.00  0.00    +0.000 A 
ATOM     22  C   UNL     1       4.086   4.197  18.321  0.00  0.00    +0.000 A 
ATOM     23  C   UNL     1       3.700   3.420  19.425  0.00  0.00    +0.000 A 
ATOM     24  C   UNL     1       2.786   3.958  20.337  0.00  0.00    +0.000 A 
ATOM     25  C   UNL     1       2.276   5.252  20.143  0.00  0.00    +0.000 A 
BRANCH  23  26
ATOM     26  C   UNL     1       4.343   2.086  19.586  0.00  0.00    +0.000 C 
ATOM     27  O   UNL     1       5.071   1.826  20.541  0.00  0.00    +0.000 OA
BRANCH  26  28
ATOM     28  O   UNL     1       4.115   1.193  18.605  0.00  0.00    +0.000 OA
ATOM     29  H   UNL     1       4.851   0.607  18.359  0.00  0.00    +0.000 HD
ENDBRANCH  26  28
ENDBRANCH  23  26
ENDBRANCH   4  20
TORSDOF 4
ENDMDL
MODEL 9
REMARK VINA RESULT:      -7.7      2.626      3.743
REMARK  Name = 
REMARK  8 active torsions:
REMARK  status: ('A' for Active; 'I' for Inactive)
REMARK    1  A    between atoms: C_1  and  C_2
REMARK    2  A    between atoms: C_2  and  C_3
REMARK    3  A    between atoms: C_6  and  C_7
REMARK    4  A    between atoms: C_6  and  C_8
REMARK    5  A    between atoms: C_11  and  C_12
REMARK    6  A    between atoms: C_15  and  C_16
REMARK    7  A    between atoms: C_19  and  C_20
REMARK    8  A    between atoms: C_20  and  O_22
REMARK                            x       y       z     vdW  Elec       q    Type
REMARK                         _______ _______ _______ _____ _____    ______ ____
ROOT
ATOM      1  C   UNL     1       1.082   9.907  19.548  0.00  0.00    +0.000 A 
ATOM      2  C   UNL     1       1.445   9.751  18.223  0.00  0.00    +0.000 A 
ATOM      3  C   UNL     1       2.060   8.498  17.960  0.00  0.00    +0.000 A 
ATOM      4  C   UNL     1       2.147   7.696  19.078  0.00  0.00    +0.000 A 
ATOM      5  S   UNL     1       1.444   8.474  20.430  0.00  0.00    +0.000 S 
ENDROOT
BRANCH   1  16
ATOM      6  C   UNL     1      -2.169  15.037  21.583  0.00  0.00    +0.000 C 
ATOM      7  C   UNL     1      -0.909  14.505  22.297  0.00  0.00    +0.000 C 
ATOM      8  C   UNL     1      -1.302  14.095  23.733  0.00  0.00    +0.000 C 
ATOM      9  C   UNL     1       0.140  15.632  22.406  0.00  0.00    +0.000 C 
ATOM     10  C   UNL     1       0.832  15.875  21.071  0.00  0.00    +0.000 C 
ATOM     11  C   UNL     1       1.617  14.627  20.605  0.00  0.00    +0.000 C 
ATOM     12  C   UNL     1       2.003  14.851  19.128  0.00  0.00    +0.000 C 
ATOM     13  C   UNL     1       2.912  14.499  21.434  0.00  0.00    +0.000 C 
ATOM     14  C   UNL     1       0.790  13.349  20.747  0.00  0.00    +0.000 A 
ATOM     15  N   UNL     1       1.249  12.237  20.092  0.00  0.00    +0.000 NA
ATOM     16  C   UNL     1       0.509  11.100  20.188  0.00  0.00    +0.000 A 
ATOM     17  C   UNL     1      -0.661  11.085  20.925  0.00  0.00    +0.000 A 
ATOM     18  N   UNL     1      -1.123  12.164  21.601  0.00  0.00    +0.000 NA
ATOM     19  C   UNL     1      -0.377  13.301  21.526  0.00  0.00    +0.000 A 
ENDBRANCH   1  16
BRANCH   4  20
ATOM     20  C   UNL     1       2.696   6.334  19.168  0.00  0.00    +0.000 A 
ATOM     21  C   UNL     1       2.276   5.428  20.149  0.00  0.00    +0.000 A 
ATOM     22  C   UNL     1       2.726   4.102  20.131  0.00  0.00    +0.000 A 
ATOM     23  C   UNL     1       3.639   3.658  19.161  0.00  0.00    +0.000 A 
ATOM     24  C   UNL     1       4.090   4.569  18.200  0.00  0.00    +0.000 A 
ATOM     25  C   UNL     1       3.628   5.895  18.213  0.00  0.00    +0.000 A 
BRANCH  23  26
ATOM     26  C   UNL     1       4.022   2.219  19.183  0.00  0.00    +0.000 C 
ATOM     27  O   UNL     1       3.401   1.371  18.546  0.00  0.00    +0.000 OA
BRANCH  26  28
ATOM     28  O   UNL     1       5.062   1.891  19.973  0.00  0.00    +0.000 OA
ATOM     29  H   UNL     1       5.767   1.353  19.575  0.00  0.00    +0.000 HD
ENDBRANCH  26  28
ENDBRANCH  23  26
ENDBRANCH   4  20
TORSDOF 4
ENDMDL
