MODEL 1
REMARK VINA RESULT:      -7.1      0.000      0.000
REMARK  Name = 
REMARK  5 active torsions:
REMARK  status: ('A' for Active; 'I' for Inactive)
REMARK    1  A    between atoms: C_1  and  C_2
REMARK    2  A    between atoms: C_7  and  C_8
REMARK    3  A    between atoms: N_10  and  C_11
REMARK    4  A    between atoms: C_15  and  C_16
REMARK    5  A    between atoms: C_16  and  O_17
REMARK                            x       y       z     vdW  Elec       q    Type
REMARK                         _______ _______ _______ _____ _____    ______ ____
ROOT
ATOM      1  C   UNL     1       3.508   5.352  18.816  0.00  0.00    +0.000 C 
ATOM      2  O   UNL     1       3.091   4.238  19.122  0.00  0.00    +0.000 OA
ATOM      3  N   UNL     1       4.720   5.543  18.180  0.00  0.00    +0.000 N 
ATOM      4  H   UNL     1       5.034   6.475  17.957  0.00  0.00    +0.000 HD
ENDROOT
BRANCH   1  11
ATOM      5  C   UNL     1      -0.150  10.649  20.763  0.00  0.00    +0.000 C 
ATOM      6  C   UNL     1       0.687  10.134  19.657  0.00  0.00    +0.000 A 
ATOM      7  C   UNL     1       1.012  10.687  18.435  0.00  0.00    +0.000 A 
ATOM      8  N   UNL     1       1.807   9.841  17.699  0.00  0.00    +0.000 NA
ATOM      9  C   UNL     1       1.981   8.780  18.456  0.00  0.00    +0.000 A 
ATOM     10  C   UNL     1       2.700   7.570  18.223  0.00  0.00    +0.000 A 
ATOM     11  C   UNL     1       2.729   6.595  19.163  0.00  0.00    +0.000 A 
ATOM     12  C   UNL     1       2.068   6.800  20.454  0.00  0.00    +0.000 A 
ATOM     13  C   UNL     1       1.379   7.936  20.671  0.00  0.00    +0.000 A 
ATOM     14  N   UNL     1       1.326   8.911  19.676  0.00  0.00    +0.000 N 
ENDBRANCH   1  11
BRANCH   3  15
ATOM     15  C   UNL     1       5.561   4.411  17.787  0.00  0.00    +0.000 C 
ATOM     16  C   UNL     1       5.155   3.865  16.415  0.00  0.00    +0.000 C 
ATOM     17  C   UNL     1       5.957   4.666  15.387  0.00  0.00    +0.000 C 
ATOM     18  C   UNL     1       7.077   5.367  16.155  0.00  0.00    +0.000 C 
ATOM     19  C   UNL     1       7.038   4.767  17.563  0.00  0.00    +0.000 C 
BRANCH  19  20
ATOM     20  C   UNL     1       7.671   5.645  18.632  0.00  0.00    +0.000 C 
BRANCH  20  21
ATOM     21  O   UNL     1       7.130   5.331  19.912  0.00  0.00    +0.000 OA
ATOM     22  H   UNL     1       7.452   4.449  20.168  0.00  0.00    +0.000 HD
ENDBRANCH  20  21
ENDBRANCH  19  20
ENDBRANCH   3  15
TORSDOF 4
ENDMDL
MODEL 2
REMARK VINA RESULT:      -7.1      0.650      1.658
REMARK  Name = 
REMARK  5 active torsions:
REMARK  status: ('A' for Active; 'I' for Inactive)
REMARK    1  A    between atoms: C_1  and  C_2
REMARK    2  A    between atoms: C_7  and  C_8
REMARK    3  A    between atoms: N_10  and  C_11
REMARK    4  A    between atoms: C_15  and  C_16
REMARK    5  A    between atoms: C_16  and  O_17
REMARK                            x       y       z     vdW  Elec       q    Type
REMARK                         _______ _______ _______ _____ _____    ______ ____
ROOT
ATOM      1  C   UNL     1       3.388   5.558  18.629  0.00  0.00    +0.000 C 
ATOM      2  O   UNL     1       2.895   4.483  18.958  0.00  0.00    +0.000 OA
ATOM      3  N   UNL     1       4.644   5.658  18.061  0.00  0.00    +0.000 N 
ATOM      4  H   UNL     1       5.019   6.561  17.817  0.00  0.00    +0.000 HD
ENDROOT
BRANCH   1  11
ATOM      5  C   UNL     1       0.302  11.500  19.270  0.00  0.00    +0.000 C 
ATOM      6  C   UNL     1       0.630  10.254  19.999  0.00  0.00    +0.000 A 
ATOM      7  C   UNL     1       0.372   9.872  21.299  0.00  0.00    +0.000 A 
ATOM      8  N   UNL     1       0.884   8.625  21.565  0.00  0.00    +0.000 NA
ATOM      9  C   UNL     1       1.446   8.232  20.443  0.00  0.00    +0.000 A 
ATOM     10  C   UNL     1       2.146   7.034  20.114  0.00  0.00    +0.000 A 
ATOM     11  C   UNL     1       2.656   6.853  18.871  0.00  0.00    +0.000 A 
ATOM     12  C   UNL     1       2.440   7.866  17.836  0.00  0.00    +0.000 A 
ATOM     13  C   UNL     1       1.790   9.003  18.147  0.00  0.00    +0.000 A 
ATOM     14  N   UNL     1       1.308   9.189  19.442  0.00  0.00    +0.000 N 
ENDBRANCH   1  11
BRANCH   3  15
ATOM     15  C   UNL     1       5.446   4.469  17.773  0.00  0.00    +0.000 C 
ATOM     16  C   UNL     1       5.055   3.846  16.429  0.00  0.00    +0.000 C 
ATOM     17  C   UNL     1       5.919   4.540  15.374  0.00  0.00    +0.000 C 
ATOM     18  C   UNL     1       7.046   5.246  16.126  0.00  0.00    +0.000 C 
ATOM     19  C   UNL     1       6.943   4.747  17.570  0.00  0.00    +0.000 C 
BRANCH  19  20
ATOM     20  C   UNL     1       7.583   5.671  18.595  0.00  0.00    +0.000 C 
BRANCH  20  21
ATOM     21  O   UNL     1       7.083   5.383  19.897  0.00  0.00    +0.000 OA
ATOM     22  H   UNL     1       6.113   5.452  19.871  0.00  0.00    +0.000 HD
ENDBRANCH  20  21
ENDBRANCH  19  20
ENDBRANCH   3  15
TORSDOF 4
ENDMDL
MODEL 3
REMARK VINA RESULT:      -6.9      2.749      4.151
REMARK  Name = 
REMARK  5 active torsions:
REMARK  status: ('A' for Active; 'I' for Inactive)
REMARK    1  A    between atoms: C_1  and  C_2
REMARK    2  A    between atoms: C_7  and  C_8
REMARK    3  A    between atoms: N_10  and  C_11
REMARK    4  A    between atoms: C_15  and  C_16
REMARK    5  A    between atoms: C_16  and  O_17
REMARK                            x       y       z     vdW  Elec       q    Type
REMARK                         _______ _______ _______ _____ _____    ______ ____
ROOT
ATOM      1  C   UNL     1       2.974   6.372  19.246  0.00  0.00    +0.000 C 
ATOM      2  O   UNL     1       4.080   6.243  18.728  0.00  0.00    +0.000 OA
ATOM      3  N   UNL     1       2.315   5.325  19.862  0.00  0.00    +0.000 N 
ATOM      4  H   UNL     1       1.401   5.469  20.263  0.00  0.00    +0.000 HD
ENDROOT
BRANCH   1  11
ATOM      5  C   UNL     1      -0.063  12.337  18.585  0.00  0.00    +0.000 C 
ATOM      6  C   UNL     1       0.176  11.233  19.540  0.00  0.00    +0.000 A 
ATOM      7  C   UNL     1      -0.207  11.076  20.856  0.00  0.00    +0.000 A 
ATOM      8  N   UNL     1       0.259   9.892  21.376  0.00  0.00    +0.000 NA
ATOM      9  C   UNL     1       0.916   9.315  20.393  0.00  0.00    +0.000 A 
ATOM     10  C   UNL     1       1.624   8.078  20.338  0.00  0.00    +0.000 A 
ATOM     11  C   UNL     1       2.244   7.690  19.197  0.00  0.00    +0.000 A 
ATOM     12  C   UNL     1       2.141   8.513  17.990  0.00  0.00    +0.000 A 
ATOM     13  C   UNL     1       1.483   9.686  18.043  0.00  0.00    +0.000 A 
ATOM     14  N   UNL     1       0.886  10.088  19.237  0.00  0.00    +0.000 N 
ENDBRANCH   1  11
BRANCH   3  15
ATOM     15  C   UNL     1       2.926   4.001  19.975  0.00  0.00    +0.000 C 
ATOM     16  C   UNL     1       2.569   3.335  21.307  0.00  0.00    +0.000 C 
ATOM     17  C   UNL     1       1.260   2.580  21.065  0.00  0.00    +0.000 C 
ATOM     18  C   UNL     1       1.084   2.485  19.550  0.00  0.00    +0.000 C 
ATOM     19  C   UNL     1       2.408   2.974  18.958  0.00  0.00    +0.000 C 
BRANCH  19  20
ATOM     20  C   UNL     1       2.304   3.467  17.523  0.00  0.00    +0.000 C 
BRANCH  20  21
ATOM     21  O   UNL     1       1.064   4.139  17.322  0.00  0.00    +0.000 OA
ATOM     22  H   UNL     1       1.111   4.613  16.473  0.00  0.00    +0.000 HD
ENDBRANCH  20  21
ENDBRANCH  19  20
ENDBRANCH   3  15
TORSDOF 4
ENDMDL
MODEL 4
REMARK VINA RESULT:      -6.6      2.251      3.789
REMARK  Name = 
REMARK  5 active torsions:
REMARK  status: ('A' for Active; 'I' for Inactive)
REMARK    1  A    between atoms: C_1  and  C_2
REMARK    2  A    between atoms: C_7  and  C_8
REMARK    3  A    between atoms: N_10  and  C_11
REMARK    4  A    between atoms: C_15  and  C_16
REMARK    5  A    between atoms: C_16  and  O_17
REMARK                            x       y       z     vdW  Elec       q    Type
REMARK                         _______ _______ _______ _____ _____    ______ ____
ROOT
ATOM      1  C   UNL     1       2.948   6.233  18.061  0.00  0.00    +0.000 C 
ATOM      2  O   UNL     1       3.888   6.327  17.277  0.00  0.00    +0.000 OA
ATOM      3  N   UNL     1       2.404   5.017  18.429  0.00  0.00    +0.000 N 
ATOM      4  H   UNL     1       1.623   4.983  19.065  0.00  0.00    +0.000 HD
ENDROOT
BRANCH   1  11
ATOM      5  C   UNL     1       0.133  11.954  20.203  0.00  0.00    +0.000 C 
ATOM      6  C   UNL     1       0.555  10.607  20.646  0.00  0.00    +0.000 A 
ATOM      7  C   UNL     1       0.515  10.010  21.890  0.00  0.00    +0.000 A 
ATOM      8  N   UNL     1       1.041   8.741  21.852  0.00  0.00    +0.000 NA
ATOM      9  C   UNL     1       1.395   8.547  20.600  0.00  0.00    +0.000 A 
ATOM     10  C   UNL     1       2.006   7.428  19.961  0.00  0.00    +0.000 A 
ATOM     11  C   UNL     1       2.293   7.463  18.638  0.00  0.00    +0.000 A 
ATOM     12  C   UNL     1       1.924   8.633  17.838  0.00  0.00    +0.000 A 
ATOM     13  C   UNL     1       1.359   9.696  18.441  0.00  0.00    +0.000 A 
ATOM     14  N   UNL     1       1.108   9.657  19.812  0.00  0.00    +0.000 N 
ENDBRANCH   1  11
BRANCH   3  15
ATOM     15  C   UNL     1       2.959   3.755  17.938  0.00  0.00    +0.000 C 
ATOM     16  C   UNL     1       4.443   3.625  18.291  0.00  0.00    +0.000 C 
ATOM     17  C   UNL     1       4.493   2.972  19.675  0.00  0.00    +0.000 C 
ATOM     18  C   UNL     1       3.107   2.384  19.931  0.00  0.00    +0.000 C 
ATOM     19  C   UNL     1       2.365   2.502  18.597  0.00  0.00    +0.000 C 
BRANCH  19  20
ATOM     20  C   UNL     1       0.849   2.484  18.724  0.00  0.00    +0.000 C 
BRANCH  20  21
ATOM     21  O   UNL     1       0.448   3.119  19.935  0.00  0.00    +0.000 OA
ATOM     22  H   UNL     1       1.242   3.266  20.477  0.00  0.00    +0.000 HD
ENDBRANCH  20  21
ENDBRANCH  19  20
ENDBRANCH   3  15
TORSDOF 4
ENDMDL
MODEL 5
REMARK VINA RESULT:      -6.6      1.330      2.314
REMARK  Name = 
REMARK  5 active torsions:
REMARK  status: ('A' for Active; 'I' for Inactive)
REMARK    1  A    between atoms: C_1  and  C_2
REMARK    2  A    between atoms: C_7  and  C_8
REMARK    3  A    between atoms: N_10  and  C_11
REMARK    4  A    between atoms: C_15  and  C_16
REMARK    5  A    between atoms: C_16  and  O_17
REMARK                            x       y       z     vdW  Elec       q    Type
REMARK                         _______ _______ _______ _____ _____    ______ ____
ROOT
ATOM      1  C   UNL     1       2.803   6.239  17.975  0.00  0.00    +0.000 C 
ATOM      2  O   UNL     1       2.145   5.210  17.854  0.00  0.00    +0.000 OA
ATOM      3  N   UNL     1       4.126   6.326  17.587  0.00  0.00    +0.000 N 
ATOM      4  H   UNL     1       4.637   7.186  17.715  0.00  0.00    +0.000 HD
ENDROOT
BRANCH   1  11
ATOM      5  C   UNL     1       0.243  11.984  20.360  0.00  0.00    +0.000 C 
ATOM      6  C   UNL     1       0.628  10.610  20.751  0.00  0.00    +0.000 A 
ATOM      7  C   UNL     1       0.596   9.976  21.977  0.00  0.00    +0.000 A 
ATOM      8  N   UNL     1       1.076   8.691  21.887  0.00  0.00    +0.000 NA
ATOM      9  C   UNL     1       1.394   8.525  20.622  0.00  0.00    +0.000 A 
ATOM     10  C   UNL     1       1.949   7.405  19.934  0.00  0.00    +0.000 A 
ATOM     11  C   UNL     1       2.206   7.472  18.605  0.00  0.00    +0.000 A 
ATOM     12  C   UNL     1       1.859   8.678  17.851  0.00  0.00    +0.000 A 
ATOM     13  C   UNL     1       1.346   9.740  18.500  0.00  0.00    +0.000 A 
ATOM     14  N   UNL     1       1.127   9.667  19.875  0.00  0.00    +0.000 N 
ENDBRANCH   1  11
BRANCH   3  15
ATOM     15  C   UNL     1       4.811   5.196  16.958  0.00  0.00    +0.000 C 
ATOM     16  C   UNL     1       5.769   5.667  15.860  0.00  0.00    +0.000 C 
ATOM     17  C   UNL     1       7.106   5.939  16.553  0.00  0.00    +0.000 C 
ATOM     18  C   UNL     1       7.033   5.268  17.924  0.00  0.00    +0.000 C 
ATOM     19  C   UNL     1       5.755   4.426  17.894  0.00  0.00    +0.000 C 
BRANCH  19  20
ATOM     20  C   UNL     1       5.193   4.099  19.269  0.00  0.00    +0.000 C 
BRANCH  20  21
ATOM     21  O   UNL     1       5.138   2.688  19.455  0.00  0.00    +0.000 OA
ATOM     22  H   UNL     1       5.640   2.469  20.259  0.00  0.00    +0.000 HD
ENDBRANCH  20  21
ENDBRANCH  19  20
ENDBRANCH   3  15
TORSDOF 4
ENDMDL
MODEL 6
REMARK VINA RESULT:      -6.6      2.295      3.410
REMARK  Name = 
REMARK  5 active torsions:
REMARK  status: ('A' for Active; 'I' for Inactive)
REMARK    1  A    between atoms: C_1  and  C_2
REMARK    2  A    between atoms: C_7  and  C_8
REMARK    3  A    between atoms: N_10  and  C_11
REMARK    4  A    between atoms: C_15  and  C_16
REMARK    5  A    between atoms: C_16  and  O_17
REMARK                            x       y       z     vdW  Elec       q    Type
REMARK                         _______ _______ _______ _____ _____    ______ ____
ROOT
ATOM      1  C   UNL     1       2.442   7.770  18.276  0.00  0.00    +0.000 C 
ATOM      2  O   UNL     1       2.726   8.266  17.190  0.00  0.00    +0.000 OA
ATOM      3  N   UNL     1       2.800   6.480  18.622  0.00  0.00    +0.000 N 
ATOM      4  H   UNL     1       2.535   6.104  19.519  0.00  0.00    +0.000 HD
ENDROOT
BRANCH   1  11
ATOM      5  C   UNL     1      -1.126  10.794  23.110  0.00  0.00    +0.000 C 
ATOM      6  C   UNL     1      -0.705  10.922  21.697  0.00  0.00    +0.000 A 
ATOM      7  C   UNL     1      -1.001  11.878  20.748  0.00  0.00    +0.000 A 
ATOM      8  N   UNL     1      -0.409  11.587  19.542  0.00  0.00    +0.000 NA
ATOM      9  C   UNL     1       0.253  10.468  19.741  0.00  0.00    +0.000 A 
ATOM     10  C   UNL     1       1.046   9.678  18.857  0.00  0.00    +0.000 A 
ATOM     11  C   UNL     1       1.633   8.537  19.291  0.00  0.00    +0.000 A 
ATOM     12  C   UNL     1       1.505   8.134  20.694  0.00  0.00    +0.000 A 
ATOM     13  C   UNL     1       0.747   8.871  21.527  0.00  0.00    +0.000 A 
ATOM     14  N   UNL     1       0.117  10.021  21.051  0.00  0.00    +0.000 N 
ENDBRANCH   1  11
BRANCH   3  15
ATOM     15  C   UNL     1       3.590   5.642  17.720  0.00  0.00    +0.000 C 
ATOM     16  C   UNL     1       5.091   5.876  17.914  0.00  0.00    +0.000 C 
ATOM     17  C   UNL     1       5.532   4.906  19.013  0.00  0.00    +0.000 C 
ATOM     18  C   UNL     1       4.414   3.876  19.162  0.00  0.00    +0.000 C 
ATOM     19  C   UNL     1       3.468   4.134  17.987  0.00  0.00    +0.000 C 
BRANCH  19  20
ATOM     20  C   UNL     1       2.053   3.618  18.202  0.00  0.00    +0.000 C 
BRANCH  20  21
ATOM     21  O   UNL     1       1.150   4.275  17.317  0.00  0.00    +0.000 OA
ATOM     22  H   UNL     1       0.769   3.606  16.722  0.00  0.00    +0.000 HD
ENDBRANCH  20  21
ENDBRANCH  19  20
ENDBRANCH   3  15
TORSDOF 4
ENDMDL
MODEL 7
REMARK VINA RESULT:      -6.5      3.638      6.761
REMARK  Name = 
REMARK  5 active torsions:
REMARK  status: ('A' for Active; 'I' for Inactive)
REMARK    1  A    between atoms: C_1  and  C_2
REMARK    2  A    between atoms: C_7  and  C_8
REMARK    3  A    between atoms: N_10  and  C_11
REMARK    4  A    between atoms: C_15  and  C_16
REMARK    5  A    between atoms: C_16  and  O_17
REMARK                            x       y       z     vdW  Elec       q    Type
REMARK                         _______ _______ _______ _____ _____    ______ ____
ROOT
ATOM      1  C   UNL     1       4.937   4.916  18.603  0.00  0.00    +0.000 C 
ATOM      2  O   UNL     1       5.458   5.381  19.613  0.00  0.00    +0.000 OA
ATOM      3  N   UNL     1       3.711   4.278  18.625  0.00  0.00    +0.000 N 
ATOM      4  H   UNL     1       3.322   3.898  17.776  0.00  0.00    +0.000 HD
ENDROOT
BRANCH   1  11
ATOM      5  C   UNL     1       8.310   5.593  12.823  0.00  0.00    +0.000 C 
ATOM      6  C   UNL     1       7.206   4.846  13.467  0.00  0.00    +0.000 A 
ATOM      7  C   UNL     1       6.347   3.890  12.964  0.00  0.00    +0.000 A 
ATOM      8  N   UNL     1       5.447   3.476  13.916  0.00  0.00    +0.000 NA
ATOM      9  C   UNL     1       5.747   4.159  15.000  0.00  0.00    +0.000 A 
ATOM     10  C   UNL     1       5.156   4.165  16.298  0.00  0.00    +0.000 A 
ATOM     11  C   UNL     1       5.638   4.976  17.270  0.00  0.00    +0.000 A 
ATOM     12  C   UNL     1       6.812   5.813  17.012  0.00  0.00    +0.000 A 
ATOM     13  C   UNL     1       7.365   5.817  15.784  0.00  0.00    +0.000 A 
ATOM     14  N   UNL     1       6.829   5.006  14.785  0.00  0.00    +0.000 N 
ENDBRANCH   1  11
BRANCH   3  15
ATOM     15  C   UNL     1       2.933   4.164  19.859  0.00  0.00    +0.000 C 
ATOM     16  C   UNL     1       1.438   4.363  19.596  0.00  0.00    +0.000 C 
ATOM     17  C   UNL     1       0.880   2.979  19.256  0.00  0.00    +0.000 C 
ATOM     18  C   UNL     1       1.932   1.963  19.699  0.00  0.00    +0.000 C 
ATOM     19  C   UNL     1       2.960   2.767  20.498  0.00  0.00    +0.000 C 
BRANCH  19  20
ATOM     20  C   UNL     1       4.330   2.113  20.587  0.00  0.00    +0.000 C 
BRANCH  20  21
ATOM     21  O   UNL     1       4.648   1.466  19.358  0.00  0.00    +0.000 OA
ATOM     22  H   UNL     1       3.826   1.365  18.848  0.00  0.00    +0.000 HD
ENDBRANCH  20  21
ENDBRANCH  19  20
ENDBRANCH   3  15
TORSDOF 4
ENDMDL
MODEL 8
REMARK VINA RESULT:      -6.5      3.325      4.609
REMARK  Name = 
REMARK  5 active torsions:
REMARK  status: ('A' for Active; 'I' for Inactive)
REMARK    1  A    between atoms: C_1  and  C_2
REMARK    2  A    between atoms: C_7  and  C_8
REMARK    3  A    between atoms: N_10  and  C_11
REMARK    4  A    between atoms: C_15  and  C_16
REMARK    5  A    between atoms: C_16  and  O_17
REMARK                            x       y       z     vdW  Elec       q    Type
REMARK                         _______ _______ _______ _____ _____    ______ ____
ROOT
ATOM      1  C   UNL     1       2.289   7.002  20.089  0.00  0.00    +0.000 C 
ATOM      2  O   UNL     1       3.276   7.079  19.363  0.00  0.00    +0.000 OA
ATOM      3  N   UNL     1       1.853   5.807  20.629  0.00  0.00    +0.000 N 
ATOM      4  H   UNL     1       1.030   5.784  21.210  0.00  0.00    +0.000 HD
ENDROOT
BRANCH   1  11
ATOM      5  C   UNL     1      -1.288  12.621  21.023  0.00  0.00    +0.000 C 
ATOM      6  C   UNL     1      -0.793  11.408  21.711  0.00  0.00    +0.000 A 
ATOM      7  C   UNL     1      -0.920  10.995  23.021  0.00  0.00    +0.000 A 
ATOM      8  N   UNL     1      -0.276   9.801  23.235  0.00  0.00    +0.000 NA
ATOM      9  C   UNL     1       0.239   9.470  22.070  0.00  0.00    +0.000 A 
ATOM     10  C   UNL     1       1.023   8.345  21.677  0.00  0.00    +0.000 A 
ATOM     11  C   UNL     1       1.458   8.221  20.400  0.00  0.00    +0.000 A 
ATOM     12  C   UNL     1       1.075   9.216  19.395  0.00  0.00    +0.000 A 
ATOM     13  C   UNL     1       0.344  10.284  19.766  0.00  0.00    +0.000 A 
ATOM     14  N   UNL     1      -0.059  10.415  21.094  0.00  0.00    +0.000 N 
ENDBRANCH   1  11
BRANCH   3  15
ATOM     15  C   UNL     1       2.582   4.558  20.402  0.00  0.00    +0.000 C 
ATOM     16  C   UNL     1       2.488   3.630  21.617  0.00  0.00    +0.000 C 
ATOM     17  C   UNL     1       1.223   2.792  21.411  0.00  0.00    +0.000 C 
ATOM     18  C   UNL     1       0.827   2.950  19.944  0.00  0.00    +0.000 C 
ATOM     19  C   UNL     1       2.001   3.679  19.285  0.00  0.00    +0.000 C 
BRANCH  19  20
ATOM     20  C   UNL     1       1.639   4.407  17.999  0.00  0.00    +0.000 C 
BRANCH  20  21
ATOM     21  O   UNL     1       2.779   5.083  17.478  0.00  0.00    +0.000 OA
ATOM     22  H   UNL     1       2.630   6.040  17.566  0.00  0.00    +0.000 HD
ENDBRANCH  20  21
ENDBRANCH  19  20
ENDBRANCH   3  15
TORSDOF 4
ENDMDL
MODEL 9
REMARK VINA RESULT:      -6.4      2.125      3.516
REMARK  Name = 
REMARK  5 active torsions:
REMARK  status: ('A' for Active; 'I' for Inactive)
REMARK    1  A    between atoms: C_1  and  C_2
REMARK    2  A    between atoms: C_7  and  C_8
REMARK    3  A    between atoms: N_10  and  C_11
REMARK    4  A    between atoms: C_15  and  C_16
REMARK    5  A    between atoms: C_16  and  O_17
REMARK                            x       y       z     vdW  Elec       q    Type
REMARK                         _______ _______ _______ _____ _____    ______ ____
ROOT
ATOM      1  C   UNL     1       3.464   6.565  18.047  0.00  0.00    +0.000 C 
ATOM      2  O   UNL     1       4.160   6.775  17.057  0.00  0.00    +0.000 OA
ATOM      3  N   UNL     1       3.454   5.350  18.705  0.00  0.00    +0.000 N 
ATOM      4  H   UNL     1       2.858   5.212  19.506  0.00  0.00    +0.000 HD
ENDROOT
BRANCH   1  11
ATOM      5  C   UNL     1      -0.600  11.554  20.005  0.00  0.00    +0.000 C 
ATOM      6  C   UNL     1       0.047  10.306  20.469  0.00  0.00    +0.000 A 
ATOM      7  C   UNL     1       0.028   9.680  21.698  0.00  0.00    +0.000 A 
ATOM      8  N   UNL     1       0.798   8.542  21.692  0.00  0.00    +0.000 NA
ATOM      9  C   UNL     1       1.283   8.456  20.472  0.00  0.00    +0.000 A 
ATOM     10  C   UNL     1       2.154   7.498  19.874  0.00  0.00    +0.000 A 
ATOM     11  C   UNL     1       2.533   7.624  18.580  0.00  0.00    +0.000 A 
ATOM     12  C   UNL     1       2.003   8.719  17.764  0.00  0.00    +0.000 A 
ATOM     13  C   UNL     1       1.190   9.632  18.329  0.00  0.00    +0.000 A 
ATOM     14  N   UNL     1       0.843   9.507  19.674  0.00  0.00    +0.000 N 
ENDBRANCH   1  11
BRANCH   3  15
ATOM     15  C   UNL     1       4.320   4.248  18.282  0.00  0.00    +0.000 C 
ATOM     16  C   UNL     1       5.131   3.695  19.458  0.00  0.00    +0.000 C 
ATOM     17  C   UNL     1       4.261   2.611  20.099  0.00  0.00    +0.000 C 
ATOM     18  C   UNL     1       3.165   2.276  19.089  0.00  0.00    +0.000 C 
ATOM     19  C   UNL     1       3.567   2.999  17.801  0.00  0.00    +0.000 C 
BRANCH  19  20
ATOM     20  C   UNL     1       2.412   3.257  16.845  0.00  0.00    +0.000 C 
BRANCH  20  21
ATOM     21  O   UNL     1       1.254   3.662  17.570  0.00  0.00    +0.000 OA
ATOM     22  H   UNL     1       0.498   3.141  17.248  0.00  0.00    +0.000 HD
ENDBRANCH  20  21
ENDBRANCH  19  20
ENDBRANCH   3  15
TORSDOF 4
ENDMDL
