MODEL 1
REMARK VINA RESULT:      -7.0      0.000      0.000
REMARK  Name = 
REMARK  2 active torsions:
REMARK  status: ('A' for Active; 'I' for Inactive)
REMARK    1  A    between atoms: N_2  and  C_4
REMARK    2  A    between atoms: C_7  and  N_8
REMARK                            x       y       z     vdW  Elec       q    Type
REMARK                         _______ _______ _______ _____ _____    ______ ____
ROOT
ATOM      1  C   UNL     1       2.851   3.519  20.302  0.00  0.00    +0.000 A 
ATOM      2  C   UNL     1       3.731   2.499  19.958  0.00  0.00    +0.000 A 
ATOM      3  C   UNL     1       4.688   2.749  18.986  0.00  0.00    +0.000 A 
ATOM      4  C   UNL     1       4.786   4.002  18.342  0.00  0.00    +0.000 A 
ATOM      5  C   UNL     1       3.889   5.050  18.722  0.00  0.00    +0.000 A 
ATOM      6  N   UNL     1       3.960   6.270  18.129  0.00  0.00    +0.000 NA
ATOM      7  C   UNL     1       3.121   7.260  18.496  0.00  0.00    +0.000 A 
ATOM      8  C   UNL     1       2.155   7.115  19.459  0.00  0.00    +0.000 A 
ATOM      9  C   UNL     1       2.047   5.877  20.073  0.00  0.00    +0.000 A 
ATOM     10  C   UNL     1       2.907   4.806  19.717  0.00  0.00    +0.000 A 
ENDROOT
BRANCH   4  11
ATOM     11  N   UNL     1       5.764   4.182  17.356  0.00  0.00    +0.000 N 
ATOM     12  C   UNL     1       5.750   3.493  16.068  0.00  0.00    +0.000 C 
ATOM     13  C   UNL     1       5.324   4.431  14.946  0.00  0.00    +0.000 C 
ATOM     14  C   UNL     1       6.109   5.735  14.796  0.00  0.00    +0.000 C 
ATOM     15  N   UNL     1       7.455   5.767  15.378  0.00  0.00    +0.000 NA
ATOM     16  C   UNL     1       7.379   6.030  16.836  0.00  0.00    +0.000 C 
ATOM     17  C   UNL     1       7.046   4.811  17.719  0.00  0.00    +0.000 C 
ATOM     18  H   UNL     1       7.949   6.555  14.959  0.00  0.00    +0.000 HD
ENDBRANCH   4  11
BRANCH   1  20
ATOM     19  O   UNL     1       2.226   3.247  22.495  0.00  0.00    +0.000 OA
ATOM     20  N   UNL     1       1.859   3.201  21.313  0.00  0.00    +0.000 N 
ATOM     21  O   UNL     1       0.728   2.880  20.923  0.00  0.00    +0.000 OA
ENDBRANCH   1  20
TORSDOF 2
ENDMDL
MODEL 2
REMARK VINA RESULT:      -6.8      3.291      6.042
REMARK  Name = 
REMARK  2 active torsions:
REMARK  status: ('A' for Active; 'I' for Inactive)
REMARK    1  A    between atoms: N_2  and  C_4
REMARK    2  A    between atoms: C_7  and  N_8
REMARK                            x       y       z     vdW  Elec       q    Type
REMARK                         _______ _______ _______ _____ _____    ______ ____
ROOT
ATOM      1  C   UNL     1       5.875   4.475  16.093  0.00  0.00    +0.000 A 
ATOM      2  C   UNL     1       4.615   3.898  15.978  0.00  0.00    +0.000 A 
ATOM      3  C   UNL     1       3.861   3.719  17.128  0.00  0.00    +0.000 A 
ATOM      4  C   UNL     1       4.340   4.100  18.400  0.00  0.00    +0.000 A 
ATOM      5  C   UNL     1       5.629   4.715  18.501  0.00  0.00    +0.000 A 
ATOM      6  N   UNL     1       6.118   5.102  19.708  0.00  0.00    +0.000 NA
ATOM      7  C   UNL     1       7.328   5.689  19.800  0.00  0.00    +0.000 A 
ATOM      8  C   UNL     1       8.139   5.926  18.719  0.00  0.00    +0.000 A 
ATOM      9  C   UNL     1       7.674   5.528  17.474  0.00  0.00    +0.000 A 
ATOM     10  C   UNL     1       6.409   4.905  17.331  0.00  0.00    +0.000 A 
ENDROOT
BRANCH   4  11
ATOM     11  N   UNL     1       3.535   3.875  19.523  0.00  0.00    +0.000 N 
ATOM     12  C   UNL     1       3.046   4.943  20.393  0.00  0.00    +0.000 C 
ATOM     13  C   UNL     1       1.567   5.217  20.151  0.00  0.00    +0.000 C 
ATOM     14  C   UNL     1       0.615   4.024  20.254  0.00  0.00    +0.000 C 
ATOM     15  N   UNL     1       1.083   2.869  21.027  0.00  0.00    +0.000 NA
ATOM     16  C   UNL     1       1.980   2.025  20.199  0.00  0.00    +0.000 C 
ATOM     17  C   UNL     1       3.437   2.516  20.081  0.00  0.00    +0.000 C 
ATOM     18  H   UNL     1       0.266   2.300  21.252  0.00  0.00    +0.000 HD
ENDBRANCH   4  11
BRANCH   1  20
ATOM     19  O   UNL     1       6.435   3.783  13.976  0.00  0.00    +0.000 OA
ATOM     20  N   UNL     1       6.630   4.626  14.861  0.00  0.00    +0.000 N 
ATOM     21  O   UNL     1       7.433   5.567  14.796  0.00  0.00    +0.000 OA
ENDBRANCH   1  20
TORSDOF 2
ENDMDL
MODEL 3
REMARK VINA RESULT:      -6.7      2.487      3.570
REMARK  Name = 
REMARK  2 active torsions:
REMARK  status: ('A' for Active; 'I' for Inactive)
REMARK    1  A    between atoms: N_2  and  C_4
REMARK    2  A    between atoms: C_7  and  N_8
REMARK                            x       y       z     vdW  Elec       q    Type
REMARK                         _______ _______ _______ _____ _____    ______ ____
ROOT
ATOM      1  C   UNL     1       2.316   7.708  18.914  0.00  0.00    +0.000 A 
ATOM      2  C   UNL     1       3.151   8.064  17.861  0.00  0.00    +0.000 A 
ATOM      3  C   UNL     1       4.052   7.124  17.382  0.00  0.00    +0.000 A 
ATOM      4  C   UNL     1       4.142   5.829  17.937  0.00  0.00    +0.000 A 
ATOM      5  C   UNL     1       3.260   5.468  19.005  0.00  0.00    +0.000 A 
ATOM      6  N   UNL     1       3.313   4.227  19.556  0.00  0.00    +0.000 NA
ATOM      7  C   UNL     1       2.474   3.885  20.555  0.00  0.00    +0.000 A 
ATOM      8  C   UNL     1       1.538   4.738  21.083  0.00  0.00    +0.000 A 
ATOM      9  C   UNL     1       1.469   6.016  20.551  0.00  0.00    +0.000 A 
ATOM     10  C   UNL     1       2.333   6.420  19.501  0.00  0.00    +0.000 A 
ENDROOT
BRANCH   4  11
ATOM     11  N   UNL     1       5.085   4.934  17.418  0.00  0.00    +0.000 N 
ATOM     12  C   UNL     1       4.843   4.096  16.245  0.00  0.00    +0.000 C 
ATOM     13  C   UNL     1       5.586   4.626  15.026  0.00  0.00    +0.000 C 
ATOM     14  C   UNL     1       7.092   4.844  15.171  0.00  0.00    +0.000 C 
ATOM     15  N   UNL     1       7.768   4.099  16.239  0.00  0.00    +0.000 NA
ATOM     16  C   UNL     1       7.587   4.787  17.541  0.00  0.00    +0.000 C 
ATOM     17  C   UNL     1       6.238   4.539  18.246  0.00  0.00    +0.000 C 
ATOM     18  H   UNL     1       8.767   4.111  16.034  0.00  0.00    +0.000 HD
ENDBRANCH   4  11
BRANCH   1  20
ATOM     19  O   UNL     1       0.742   9.335  18.532  0.00  0.00    +0.000 OA
ATOM     20  N   UNL     1       1.403   8.732  19.388  0.00  0.00    +0.000 N 
ATOM     21  O   UNL     1       1.371   8.950  20.607  0.00  0.00    +0.000 OA
ENDBRANCH   1  20
TORSDOF 2
ENDMDL
MODEL 4
REMARK VINA RESULT:      -6.6      3.280      5.732
REMARK  Name = 
REMARK  2 active torsions:
REMARK  status: ('A' for Active; 'I' for Inactive)
REMARK    1  A    between atoms: N_2  and  C_4
REMARK    2  A    between atoms: C_7  and  N_8
REMARK                            x       y       z     vdW  Elec       q    Type
REMARK                         _______ _______ _______ _____ _____    ______ ____
ROOT
ATOM      1  C   UNL     1       5.680   5.062  16.337  0.00  0.00    +0.000 A 
ATOM      2  C   UNL     1       5.780   3.680  16.450  0.00  0.00    +0.000 A 
ATOM      3  C   UNL     1       4.873   3.014  17.261  0.00  0.00    +0.000 A 
ATOM      4  C   UNL     1       3.865   3.701  17.972  0.00  0.00    +0.000 A 
ATOM      5  C   UNL     1       3.759   5.121  17.828  0.00  0.00    +0.000 A 
ATOM      6  N   UNL     1       2.795   5.813  18.491  0.00  0.00    +0.000 NA
ATOM      7  C   UNL     1       2.690   7.149  18.346  0.00  0.00    +0.000 A 
ATOM      8  C   UNL     1       3.526   7.893  17.553  0.00  0.00    +0.000 A 
ATOM      9  C   UNL     1       4.530   7.218  16.876  0.00  0.00    +0.000 A 
ATOM     10  C   UNL     1       4.679   5.813  16.999  0.00  0.00    +0.000 A 
ENDROOT
BRANCH   4  11
ATOM     11  N   UNL     1       2.993   2.969  18.787  0.00  0.00    +0.000 N 
ATOM     12  C   UNL     1       3.353   2.474  20.114  0.00  0.00    +0.000 C 
ATOM     13  C   UNL     1       2.696   3.304  21.210  0.00  0.00    +0.000 C 
ATOM     14  C   UNL     1       1.177   3.466  21.141  0.00  0.00    +0.000 C 
ATOM     15  N   UNL     1       0.439   2.460  20.369  0.00  0.00    +0.000 NA
ATOM     16  C   UNL     1       0.495   2.779  18.921  0.00  0.00    +0.000 C 
ATOM     17  C   UNL     1       1.789   2.362  18.195  0.00  0.00    +0.000 C 
ATOM     18  H   UNL     1      -0.540   2.519  20.649  0.00  0.00    +0.000 HD
ENDBRANCH   4  11
BRANCH   1  20
ATOM     19  O   UNL     1       6.529   5.571  14.265  0.00  0.00    +0.000 OA
ATOM     20  N   UNL     1       6.662   5.713  15.488  0.00  0.00    +0.000 N 
ATOM     21  O   UNL     1       7.575   6.337  16.045  0.00  0.00    +0.000 OA
ENDBRANCH   1  20
TORSDOF 2
ENDMDL
MODEL 5
REMARK VINA RESULT:      -6.6      1.027      1.635
REMARK  Name = 
REMARK  2 active torsions:
REMARK  status: ('A' for Active; 'I' for Inactive)
REMARK    1  A    between atoms: N_2  and  C_4
REMARK    2  A    between atoms: C_7  and  N_8
REMARK                            x       y       z     vdW  Elec       q    Type
REMARK                         _______ _______ _______ _____ _____    ______ ____
ROOT
ATOM      1  C   UNL     1       2.672   3.494  20.259  0.00  0.00    +0.000 A 
ATOM      2  C   UNL     1       3.532   2.705  19.503  0.00  0.00    +0.000 A 
ATOM      3  C   UNL     1       4.233   3.298  18.463  0.00  0.00    +0.000 A 
ATOM      4  C   UNL     1       4.091   4.669  18.156  0.00  0.00    +0.000 A 
ATOM      5  C   UNL     1       3.221   5.474  18.957  0.00  0.00    +0.000 A 
ATOM      6  N   UNL     1       3.067   6.798  18.694  0.00  0.00    +0.000 NA
ATOM      7  C   UNL     1       2.255   7.557  19.457  0.00  0.00    +0.000 A 
ATOM      8  C   UNL     1       1.534   7.067  20.516  0.00  0.00    +0.000 A 
ATOM      9  C   UNL     1       1.658   5.716  20.800  0.00  0.00    +0.000 A 
ATOM     10  C   UNL     1       2.500   4.879  20.024  0.00  0.00    +0.000 A 
ENDROOT
BRANCH   4  11
ATOM     11  N   UNL     1       4.816   5.200  17.082  0.00  0.00    +0.000 N 
ATOM     12  C   UNL     1       4.962   6.633  16.837  0.00  0.00    +0.000 C 
ATOM     13  C   UNL     1       6.356   7.118  17.217  0.00  0.00    +0.000 C 
ATOM     14  C   UNL     1       7.541   6.388  16.584  0.00  0.00    +0.000 C 
ATOM     15  N   UNL     1       7.277   5.651  15.343  0.00  0.00    +0.000 NA
ATOM     16  C   UNL     1       6.680   4.327  15.647  0.00  0.00    +0.000 C 
ATOM     17  C   UNL     1       5.167   4.329  15.946  0.00  0.00    +0.000 C 
ATOM     18  H   UNL     1       8.177   5.475  14.895  0.00  0.00    +0.000 HD
ENDBRANCH   4  11
BRANCH   1  20
ATOM     19  O   UNL     1       2.614   2.439  22.298  0.00  0.00    +0.000 OA
ATOM     20  N   UNL     1       1.950   2.822  21.325  0.00  0.00    +0.000 N 
ATOM     21  O   UNL     1       0.733   2.655  21.174  0.00  0.00    +0.000 OA
ENDBRANCH   1  20
TORSDOF 2
ENDMDL
MODEL 6
REMARK VINA RESULT:      -6.6      1.032      1.816
REMARK  Name = 
REMARK  2 active torsions:
REMARK  status: ('A' for Active; 'I' for Inactive)
REMARK    1  A    between atoms: N_2  and  C_4
REMARK    2  A    between atoms: C_7  and  N_8
REMARK                            x       y       z     vdW  Elec       q    Type
REMARK                         _______ _______ _______ _____ _____    ______ ____
ROOT
ATOM      1  C   UNL     1       2.483   3.576  20.337  0.00  0.00    +0.000 A 
ATOM      2  C   UNL     1       3.483   2.821  19.734  0.00  0.00    +0.000 A 
ATOM      3  C   UNL     1       4.396   3.465  18.912  0.00  0.00    +0.000 A 
ATOM      4  C   UNL     1       4.331   4.854  18.672  0.00  0.00    +0.000 A 
ATOM      5  C   UNL     1       3.311   5.624  19.318  0.00  0.00    +0.000 A 
ATOM      6  N   UNL     1       3.224   6.965  19.116  0.00  0.00    +0.000 NA
ATOM      7  C   UNL     1       2.270   7.689  19.733  0.00  0.00    +0.000 A 
ATOM      8  C   UNL     1       1.334   7.147  20.577  0.00  0.00    +0.000 A 
ATOM      9  C   UNL     1       1.387   5.778  20.791  0.00  0.00    +0.000 A 
ATOM     10  C   UNL     1       2.373   4.976  20.162  0.00  0.00    +0.000 A 
ENDROOT
BRANCH   4  11
ATOM     11  N   UNL     1       5.274   5.439  17.818  0.00  0.00    +0.000 N 
ATOM     12  C   UNL     1       6.646   5.745  18.218  0.00  0.00    +0.000 C 
ATOM     13  C   UNL     1       7.630   4.748  17.617  0.00  0.00    +0.000 C 
ATOM     14  C   UNL     1       7.590   4.563  16.099  0.00  0.00    +0.000 C 
ATOM     15  N   UNL     1       6.999   5.653  15.315  0.00  0.00    +0.000 NA
ATOM     16  C   UNL     1       5.519   5.549  15.323  0.00  0.00    +0.000 C 
ATOM     17  C   UNL     1       4.817   6.098  16.582  0.00  0.00    +0.000 C 
ATOM     18  H   UNL     1       7.299   5.531  14.348  0.00  0.00    +0.000 HD
ENDBRANCH   4  11
BRANCH   1  20
ATOM     19  O   UNL     1       0.468   2.524  20.658  0.00  0.00    +0.000 OA
ATOM     20  N   UNL     1       1.544   2.852  21.175  0.00  0.00    +0.000 N 
ATOM     21  O   UNL     1       1.873   2.641  22.350  0.00  0.00    +0.000 OA
ENDBRANCH   1  20
TORSDOF 2
ENDMDL
MODEL 7
REMARK VINA RESULT:      -6.5      3.234      5.581
REMARK  Name = 
REMARK  2 active torsions:
REMARK  status: ('A' for Active; 'I' for Inactive)
REMARK    1  A    between atoms: N_2  and  C_4
REMARK    2  A    between atoms: C_7  and  N_8
REMARK                            x       y       z     vdW  Elec       q    Type
REMARK                         _______ _______ _______ _____ _____    ______ ____
ROOT
ATOM      1  C   UNL     1       6.202   5.792  17.570  0.00  0.00    +0.000 A 
ATOM      2  C   UNL     1       6.551   4.483  17.882  0.00  0.00    +0.000 A 
ATOM      3  C   UNL     1       5.576   3.642  18.398  0.00  0.00    +0.000 A 
ATOM      4  C   UNL     1       4.252   4.081  18.616  0.00  0.00    +0.000 A 
ATOM      5  C   UNL     1       3.901   5.424  18.268  0.00  0.00    +0.000 A 
ATOM      6  N   UNL     1       2.634   5.878  18.455  0.00  0.00    +0.000 NA
ATOM      7  C   UNL     1       2.302   7.140  18.118  0.00  0.00    +0.000 A 
ATOM      8  C   UNL     1       3.190   8.040  17.585  0.00  0.00    +0.000 A 
ATOM      9  C   UNL     1       4.494   7.612  17.395  0.00  0.00    +0.000 A 
ATOM     10  C   UNL     1       4.889   6.293  17.737  0.00  0.00    +0.000 A 
ENDROOT
BRANCH   4  11
ATOM     11  N   UNL     1       3.321   3.186  19.155  0.00  0.00    +0.000 N 
ATOM     12  C   UNL     1       3.383   2.686  20.527  0.00  0.00    +0.000 C 
ATOM     13  C   UNL     1       2.329   3.351  21.404  0.00  0.00    +0.000 C 
ATOM     14  C   UNL     1       0.880   3.282  20.921  0.00  0.00    +0.000 C 
ATOM     15  N   UNL     1       0.550   2.214  19.970  0.00  0.00    +0.000 NA
ATOM     16  C   UNL     1       0.944   2.609  18.595  0.00  0.00    +0.000 C 
ATOM     17  C   UNL     1       2.437   2.431  18.251  0.00  0.00    +0.000 C 
ATOM     18  H   UNL     1      -0.464   2.109  19.969  0.00  0.00    +0.000 HD
ENDBRANCH   4  11
BRANCH   1  20
ATOM     19  O   UNL     1       7.691   6.364  15.919  0.00  0.00    +0.000 OA
ATOM     20  N   UNL     1       7.262   6.635  17.048  0.00  0.00    +0.000 N 
ATOM     21  O   UNL     1       7.680   7.545  17.778  0.00  0.00    +0.000 OA
ENDBRANCH   1  20
TORSDOF 2
ENDMDL
MODEL 8
REMARK VINA RESULT:      -6.3      3.379      5.948
REMARK  Name = 
REMARK  2 active torsions:
REMARK  status: ('A' for Active; 'I' for Inactive)
REMARK    1  A    between atoms: N_2  and  C_4
REMARK    2  A    between atoms: C_7  and  N_8
REMARK                            x       y       z     vdW  Elec       q    Type
REMARK                         _______ _______ _______ _____ _____    ______ ____
ROOT
ATOM      1  C   UNL     1       6.731   6.161  17.981  0.00  0.00    +0.000 A 
ATOM      2  C   UNL     1       6.024   6.038  19.172  0.00  0.00    +0.000 A 
ATOM      3  C   UNL     1       5.009   5.095  19.245  0.00  0.00    +0.000 A 
ATOM      4  C   UNL     1       4.678   4.270  18.149  0.00  0.00    +0.000 A 
ATOM      5  C   UNL     1       5.429   4.392  16.937  0.00  0.00    +0.000 A 
ATOM      6  N   UNL     1       5.143   3.608  15.864  0.00  0.00    +0.000 NA
ATOM      7  C   UNL     1       5.859   3.717  14.727  0.00  0.00    +0.000 A 
ATOM      8  C   UNL     1       6.891   4.605  14.563  0.00  0.00    +0.000 A 
ATOM      9  C   UNL     1       7.198   5.429  15.635  0.00  0.00    +0.000 A 
ATOM     10  C   UNL     1       6.471   5.351  16.850  0.00  0.00    +0.000 A 
ENDROOT
BRANCH   4  11
ATOM     11  N   UNL     1       3.631   3.351  18.285  0.00  0.00    +0.000 N 
ATOM     12  C   UNL     1       3.739   2.113  19.053  0.00  0.00    +0.000 C 
ATOM     13  C   UNL     1       2.996   2.221  20.379  0.00  0.00    +0.000 C 
ATOM     14  C   UNL     1       1.525   2.635  20.319  0.00  0.00    +0.000 C 
ATOM     15  N   UNL     1       0.830   2.423  19.045  0.00  0.00    +0.000 NA
ATOM     16  C   UNL     1       1.135   3.527  18.102  0.00  0.00    +0.000 C 
ATOM     17  C   UNL     1       2.484   3.421  17.363  0.00  0.00    +0.000 C 
ATOM     18  H   UNL     1      -0.172   2.462  19.233  0.00  0.00    +0.000 HD
ENDBRANCH   4  11
BRANCH   1  20
ATOM     19  O   UNL     1       8.567   7.190  18.900  0.00  0.00    +0.000 OA
ATOM     20  N   UNL     1       7.772   7.173  17.950  0.00  0.00    +0.000 N 
ATOM     21  O   UNL     1       7.774   7.963  16.996  0.00  0.00    +0.000 OA
ENDBRANCH   1  20
TORSDOF 2
ENDMDL
MODEL 9
REMARK VINA RESULT:      -6.2      1.353      2.042
REMARK  Name = 
REMARK  2 active torsions:
REMARK  status: ('A' for Active; 'I' for Inactive)
REMARK    1  A    between atoms: N_2  and  C_4
REMARK    2  A    between atoms: C_7  and  N_8
REMARK                            x       y       z     vdW  Elec       q    Type
REMARK                         _______ _______ _______ _____ _____    ______ ____
ROOT
ATOM      1  C   UNL     1       2.034   3.217  19.105  0.00  0.00    +0.000 A 
ATOM      2  C   UNL     1       2.786   2.503  18.179  0.00  0.00    +0.000 A 
ATOM      3  C   UNL     1       3.693   3.192  17.388  0.00  0.00    +0.000 A 
ATOM      4  C   UNL     1       3.866   4.589  17.498  0.00  0.00    +0.000 A 
ATOM      5  C   UNL     1       3.102   5.309  18.472  0.00  0.00    +0.000 A 
ATOM      6  N   UNL     1       3.249   6.652  18.610  0.00  0.00    +0.000 NA
ATOM      7  C   UNL     1       2.537   7.327  19.534  0.00  0.00    +0.000 A 
ATOM      8  C   UNL     1       1.630   6.732  20.374  0.00  0.00    +0.000 A 
ATOM      9  C   UNL     1       1.447   5.364  20.248  0.00  0.00    +0.000 A 
ATOM     10  C   UNL     1       2.173   4.614  19.288  0.00  0.00    +0.000 A 
ENDROOT
BRANCH   4  11
ATOM     11  N   UNL     1       4.786   5.226  16.657  0.00  0.00    +0.000 N 
ATOM     12  C   UNL     1       4.944   6.677  16.584  0.00  0.00    +0.000 C 
ATOM     13  C   UNL     1       6.213   7.130  17.295  0.00  0.00    +0.000 C 
ATOM     14  C   UNL     1       7.523   6.471  16.863  0.00  0.00    +0.000 C 
ATOM     15  N   UNL     1       7.547   5.856  15.531  0.00  0.00    +0.000 NA
ATOM     16  C   UNL     1       6.933   4.506  15.577  0.00  0.00    +0.000 C 
ATOM     17  C   UNL     1       5.392   4.471  15.546  0.00  0.00    +0.000 C 
ATOM     18  H   UNL     1       8.525   5.729  15.271  0.00  0.00    +0.000 HD
ENDBRANCH   4  11
BRANCH   1  20
ATOM     19  O   UNL     1       0.034   2.115  19.342  0.00  0.00    +0.000 OA
ATOM     20  N   UNL     1       1.089   2.451  19.897  0.00  0.00    +0.000 N 
ATOM     21  O   UNL     1       1.389   2.215  21.075  0.00  0.00    +0.000 OA
ENDBRANCH   1  20
TORSDOF 2
ENDMDL
