MODEL 1
REMARK VINA RESULT:      -8.8      0.000      0.000
REMARK  Name = 
REMARK  5 active torsions:
REMARK  status: ('A' for Active; 'I' for Inactive)
REMARK    1  A    between atoms: C_5  and  C_6
REMARK    2  A    between atoms: C_8  and  C_9
REMARK    3  A    between atoms: N_12  and  C_13
REMARK    4  A    between atoms: C_13  and  C_14
REMARK    5  A    between atoms: C_14  and  C_15
REMARK                            x       y       z     vdW  Elec       q    Type
REMARK                         _______ _______ _______ _____ _____    ______ ____
ROOT
ATOM      1  C   UNL     1       7.512   5.637  17.942  0.00  0.00    +0.000 C 
ATOM      2  C   UNL     1       6.750   5.140  16.714  0.00  0.00    +0.000 C 
ATOM      3  C   UNL     1       5.306   5.646  16.694  0.00  0.00    +0.000 C 
ATOM      4  N   UNL     1       4.552   5.310  17.912  0.00  0.00    +0.000 NA
ATOM      5  C   UNL     1       5.270   5.707  19.138  0.00  0.00    +0.000 C 
ATOM      6  C   UNL     1       6.716   5.197  19.180  0.00  0.00    +0.000 C 
ENDROOT
BRANCH   1   9
ATOM      7  C   UNL     1       8.452   9.236  18.271  0.00  0.00    +0.000 A 
ATOM      8  C   UNL     1       8.545   7.911  18.772  0.00  0.00    +0.000 A 
ATOM      9  C   UNL     1       7.789   7.121  17.931  0.00  0.00    +0.000 A 
ATOM     10  N   UNL     1       7.316   7.987  16.982  0.00  0.00    +0.000 N 
ATOM     11  N   UNL     1       7.659   9.268  17.191  0.00  0.00    +0.000 NA
ATOM     12  H   UNL     1       6.737   7.781  16.175  0.00  0.00    +0.000 HD
BRANCH   7  17
ATOM     13 CL   UNL     1      11.271  14.058  20.430  0.00  0.00    +0.000 Cl
ATOM     14  C   UNL     1      10.440  12.686  19.808  0.00  0.00    +0.000 A 
ATOM     15  C   UNL     1      10.066  11.658  20.669  0.00  0.00    +0.000 A 
ATOM     16  C   UNL     1       9.406  10.536  20.163  0.00  0.00    +0.000 A 
ATOM     17  C   UNL     1       9.116  10.430  18.793  0.00  0.00    +0.000 A 
ATOM     18  C   UNL     1       9.492  11.478  17.942  0.00  0.00    +0.000 A 
ATOM     19  C   UNL     1      10.152  12.604  18.447  0.00  0.00    +0.000 A 
ENDBRANCH   7  17
ENDBRANCH   1   9
BRANCH   4  20
ATOM     20  C   UNL     1       3.221   5.971  17.901  0.00  0.00    +0.000 C 
BRANCH  20  21
ATOM     21  C   UNL     1       2.043   4.990  17.776  0.00  0.00    +0.000 C 
BRANCH  21  22
ATOM     22  C   UNL     1       1.829   4.179  19.031  0.00  0.00    +0.000 A 
ATOM     23  C   UNL     1       1.358   2.859  18.946  0.00  0.00    +0.000 A 
ATOM     24  C   UNL     1       1.185   2.097  20.102  0.00  0.00    +0.000 A 
ATOM     25  C   UNL     1       1.474   2.646  21.349  0.00  0.00    +0.000 A 
ATOM     26  C   UNL     1       1.929   3.961  21.443  0.00  0.00    +0.000 A 
ATOM     27  C   UNL     1       2.102   4.727  20.290  0.00  0.00    +0.000 A 
ENDBRANCH  21  22
ENDBRANCH  20  21
ENDBRANCH   4  20
TORSDOF 5
ENDMDL
MODEL 2
REMARK VINA RESULT:      -8.8      0.466      1.403
REMARK  Name = 
REMARK  5 active torsions:
REMARK  status: ('A' for Active; 'I' for Inactive)
REMARK    1  A    between atoms: C_5  and  C_6
REMARK    2  A    between atoms: C_8  and  C_9
REMARK    3  A    between atoms: N_12  and  C_13
REMARK    4  A    between atoms: C_13  and  C_14
REMARK    5  A    between atoms: C_14  and  C_15
REMARK                            x       y       z     vdW  Elec       q    Type
REMARK                         _______ _______ _______ _____ _____    ______ ____
ROOT
ATOM      1  C   UNL     1       7.548   5.519  18.275  0.00  0.00    +0.000 C 
ATOM      2  C   UNL     1       6.998   4.874  17.003  0.00  0.00    +0.000 C 
ATOM      3  C   UNL     1       5.591   5.377  16.672  0.00  0.00    +0.000 C 
ATOM      4  N   UNL     1       4.631   5.195  17.771  0.00  0.00    +0.000 NA
ATOM      5  C   UNL     1       5.136   5.740  19.046  0.00  0.00    +0.000 C 
ATOM      6  C   UNL     1       6.541   5.237  19.400  0.00  0.00    +0.000 C 
ENDROOT
BRANCH   1   9
ATOM      7  C   UNL     1       8.546   9.117  18.295  0.00  0.00    +0.000 A 
ATOM      8  C   UNL     1       8.583   7.848  18.930  0.00  0.00    +0.000 A 
ATOM      9  C   UNL     1       7.857   6.989  18.131  0.00  0.00    +0.000 A 
ATOM     10  N   UNL     1       7.455   7.763  17.075  0.00  0.00    +0.000 N 
ATOM     11  N   UNL     1       7.813   9.053  17.174  0.00  0.00    +0.000 NA
ATOM     12  H   UNL     1       6.917   7.486  16.262  0.00  0.00    +0.000 HD
BRANCH   7  17
ATOM     13 CL   UNL     1      11.141  14.214  20.069  0.00  0.00    +0.000 Cl
ATOM     14  C   UNL     1      10.418  12.738  19.559  0.00  0.00    +0.000 A 
ATOM     15  C   UNL     1      10.016  12.589  18.236  0.00  0.00    +0.000 A 
ATOM     16  C   UNL     1       9.413  11.398  17.824  0.00  0.00    +0.000 A 
ATOM     17  C   UNL     1       9.206  10.347  18.731  0.00  0.00    +0.000 A 
ATOM     18  C   UNL     1       9.625  10.510  20.059  0.00  0.00    +0.000 A 
ATOM     19  C   UNL     1      10.230  11.702  20.473  0.00  0.00    +0.000 A 
ENDBRANCH   7  17
ENDBRANCH   1   9
BRANCH   4  20
ATOM     20  C   UNL     1       3.337   5.852  17.449  0.00  0.00    +0.000 C 
BRANCH  20  21
ATOM     21  C   UNL     1       2.418   6.041  18.668  0.00  0.00    +0.000 C 
BRANCH  21  22
ATOM     22  C   UNL     1       1.961   4.729  19.258  0.00  0.00    +0.000 A 
ATOM     23  C   UNL     1       2.018   4.522  20.645  0.00  0.00    +0.000 A 
ATOM     24  C   UNL     1       1.570   3.321  21.198  0.00  0.00    +0.000 A 
ATOM     25  C   UNL     1       1.068   2.318  20.372  0.00  0.00    +0.000 A 
ATOM     26  C   UNL     1       1.021   2.510  18.991  0.00  0.00    +0.000 A 
ATOM     27  C   UNL     1       1.469   3.709  18.435  0.00  0.00    +0.000 A 
ENDBRANCH  21  22
ENDBRANCH  20  21
ENDBRANCH   4  20
TORSDOF 5
ENDMDL
MODEL 3
REMARK VINA RESULT:      -8.7      1.894      2.805
REMARK  Name = 
REMARK  5 active torsions:
REMARK  status: ('A' for Active; 'I' for Inactive)
REMARK    1  A    between atoms: C_5  and  C_6
REMARK    2  A    between atoms: C_8  and  C_9
REMARK    3  A    between atoms: N_12  and  C_13
REMARK    4  A    between atoms: C_13  and  C_14
REMARK    5  A    between atoms: C_14  and  C_15
REMARK                            x       y       z     vdW  Elec       q    Type
REMARK                         _______ _______ _______ _____ _____    ______ ____
ROOT
ATOM      1  C   UNL     1       7.324   5.254  17.998  0.00  0.00    +0.000 C 
ATOM      2  C   UNL     1       6.541   4.738  16.790  0.00  0.00    +0.000 C 
ATOM      3  C   UNL     1       5.109   5.277  16.766  0.00  0.00    +0.000 C 
ATOM      4  N   UNL     1       4.357   4.993  17.998  0.00  0.00    +0.000 NA
ATOM      5  C   UNL     1       5.092   5.410  19.207  0.00  0.00    +0.000 C 
ATOM      6  C   UNL     1       6.527   4.870  19.254  0.00  0.00    +0.000 C 
ENDROOT
BRANCH   1   9
ATOM      7  C   UNL     1       8.336   8.841  18.221  0.00  0.00    +0.000 A 
ATOM      8  C   UNL     1       8.389   7.534  18.770  0.00  0.00    +0.000 A 
ATOM      9  C   UNL     1       7.633   6.730  17.941  0.00  0.00    +0.000 A 
ATOM     10  N   UNL     1       7.200   7.573  16.952  0.00  0.00    +0.000 N 
ATOM     11  N   UNL     1       7.566   8.852  17.124  0.00  0.00    +0.000 NA
ATOM     12  H   UNL     1       6.633   7.350  16.141  0.00  0.00    +0.000 HD
BRANCH   7  17
ATOM     13 CL   UNL     1      11.211  13.674  20.281  0.00  0.00    +0.000 Cl
ATOM     14  C   UNL     1      10.365  12.300  19.684  0.00  0.00    +0.000 A 
ATOM     15  C   UNL     1       9.847  11.368  20.579  0.00  0.00    +0.000 A 
ATOM     16  C   UNL     1       9.174  10.243  20.096  0.00  0.00    +0.000 A 
ATOM     17  C   UNL     1       9.015  10.039  18.715  0.00  0.00    +0.000 A 
ATOM     18  C   UNL     1       9.536  10.991  17.829  0.00  0.00    +0.000 A 
ATOM     19  C   UNL     1      10.208  12.120  18.311  0.00  0.00    +0.000 A 
ENDBRANCH   7  17
ENDBRANCH   1   9
BRANCH   4  20
ATOM     20  C   UNL     1       3.041   5.684  17.976  0.00  0.00    +0.000 C 
BRANCH  20  21
ATOM     21  C   UNL     1       3.138   7.195  17.707  0.00  0.00    +0.000 C 
BRANCH  21  22
ATOM     22  C   UNL     1       2.253   8.005  18.624  0.00  0.00    +0.000 A 
ATOM     23  C   UNL     1       1.619   9.164  18.148  0.00  0.00    +0.000 A 
ATOM     24  C   UNL     1       0.777   9.900  18.983  0.00  0.00    +0.000 A 
ATOM     25  C   UNL     1       0.567   9.489  20.297  0.00  0.00    +0.000 A 
ATOM     26  C   UNL     1       1.203   8.347  20.782  0.00  0.00    +0.000 A 
ATOM     27  C   UNL     1       2.047   7.610  19.950  0.00  0.00    +0.000 A 
ENDBRANCH  21  22
ENDBRANCH  20  21
ENDBRANCH   4  20
TORSDOF 5
ENDMDL
MODEL 4
REMARK VINA RESULT:      -8.7      1.947      3.014
REMARK  Name = 
REMARK  5 active torsions:
REMARK  status: ('A' for Active; 'I' for Inactive)
REMARK    1  A    between atoms: C_5  and  C_6
REMARK    2  A    between atoms: C_8  and  C_9
REMARK    3  A    between atoms: N_12  and  C_13
REMARK    4  A    between atoms: C_13  and  C_14
REMARK    5  A    between atoms: C_14  and  C_15
REMARK                            x       y       z     vdW  Elec       q    Type
REMARK                         _______ _______ _______ _____ _____    ______ ____
ROOT
ATOM      1  C   UNL     1       7.258   5.335  17.890  0.00  0.00    +0.000 C 
ATOM      2  C   UNL     1       6.445   4.881  16.678  0.00  0.00    +0.000 C 
ATOM      3  C   UNL     1       5.015   5.422  16.715  0.00  0.00    +0.000 C 
ATOM      4  N   UNL     1       4.292   5.080  17.949  0.00  0.00    +0.000 NA
ATOM      5  C   UNL     1       5.058   5.436  19.159  0.00  0.00    +0.000 C 
ATOM      6  C   UNL     1       6.492   4.891  19.144  0.00  0.00    +0.000 C 
ENDROOT
BRANCH   1   9
ATOM      7  C   UNL     1       8.314   8.900  18.241  0.00  0.00    +0.000 A 
ATOM      8  C   UNL     1       8.414   7.559  18.694  0.00  0.00    +0.000 A 
ATOM      9  C   UNL     1       7.571   6.812  17.898  0.00  0.00    +0.000 A 
ATOM     10  N   UNL     1       7.044   7.717  17.015  0.00  0.00    +0.000 N 
ATOM     11  N   UNL     1       7.435   8.983  17.231  0.00  0.00    +0.000 NA
ATOM     12  H   UNL     1       6.396   7.549  16.254  0.00  0.00    +0.000 HD
BRANCH   7  17
ATOM     13 CL   UNL     1      11.232  13.732  20.239  0.00  0.00    +0.000 Cl
ATOM     14  C   UNL     1      10.414  12.329  19.671  0.00  0.00    +0.000 A 
ATOM     15  C   UNL     1      10.297  12.107  18.302  0.00  0.00    +0.000 A 
ATOM     16  C   UNL     1       9.619  10.977  17.838  0.00  0.00    +0.000 A 
ATOM     17  C   UNL     1       9.049  10.062  18.739  0.00  0.00    +0.000 A 
ATOM     18  C   UNL     1       9.183  10.297  20.114  0.00  0.00    +0.000 A 
ATOM     19  C   UNL     1       9.864  11.427  20.580  0.00  0.00    +0.000 A 
ENDBRANCH   7  17
ENDBRANCH   1   9
BRANCH   4  20
ATOM     20  C   UNL     1       2.977   5.773  17.994  0.00  0.00    +0.000 C 
BRANCH  20  21
ATOM     21  C   UNL     1       3.059   7.276  17.679  0.00  0.00    +0.000 C 
BRANCH  21  22
ATOM     22  C   UNL     1       2.170   8.105  18.574  0.00  0.00    +0.000 A 
ATOM     23  C   UNL     1       1.992   7.745  19.920  0.00  0.00    +0.000 A 
ATOM     24  C   UNL     1       1.194   8.524  20.759  0.00  0.00    +0.000 A 
ATOM     25  C   UNL     1       0.563   9.662  20.261  0.00  0.00    +0.000 A 
ATOM     26  C   UNL     1       0.722  10.018  18.922  0.00  0.00    +0.000 A 
ATOM     27  C   UNL     1       1.519   9.241  18.080  0.00  0.00    +0.000 A 
ENDBRANCH  21  22
ENDBRANCH  20  21
ENDBRANCH   4  20
TORSDOF 5
ENDMDL
MODEL 5
REMARK VINA RESULT:      -8.3      3.702      8.298
REMARK  Name = 
REMARK  5 active torsions:
REMARK  status: ('A' for Active; 'I' for Inactive)
REMARK    1  A    between atoms: C_5  and  C_6
REMARK    2  A    between atoms: C_8  and  C_9
REMARK    3  A    between atoms: N_12  and  C_13
REMARK    4  A    between atoms: C_13  and  C_14
REMARK    5  A    between atoms: C_14  and  C_15
REMARK                            x       y       z     vdW  Elec       q    Type
REMARK                         _______ _______ _______ _____ _____    ______ ____
ROOT
ATOM      1  C   UNL     1       4.791   5.345  17.540  0.00  0.00    +0.000 C 
ATOM      2  C   UNL     1       5.893   4.688  18.370  0.00  0.00    +0.000 C 
ATOM      3  C   UNL     1       6.861   5.720  18.954  0.00  0.00    +0.000 C 
ATOM      4  N   UNL     1       7.464   6.596  17.938  0.00  0.00    +0.000 NA
ATOM      5  C   UNL     1       6.450   7.211  17.061  0.00  0.00    +0.000 C 
ATOM      6  C   UNL     1       5.479   6.189  16.457  0.00  0.00    +0.000 C 
ENDROOT
BRANCH   1   9
ATOM      7  C   UNL     1       2.316   7.592  19.205  0.00  0.00    +0.000 A 
ATOM      8  C   UNL     1       3.098   7.293  18.060  0.00  0.00    +0.000 A 
ATOM      9  C   UNL     1       3.807   6.147  18.357  0.00  0.00    +0.000 A 
ATOM     10  N   UNL     1       3.402   5.815  19.623  0.00  0.00    +0.000 N 
ATOM     11  N   UNL     1       2.547   6.692  20.172  0.00  0.00    +0.000 NA
ATOM     12  H   UNL     1       3.682   5.018  20.183  0.00  0.00    +0.000 HD
BRANCH   7  17
ATOM     13 CL   UNL     1      -1.504  12.146  19.931  0.00  0.00    +0.000 Cl
ATOM     14  C   UNL     1      -0.425  10.824  19.712  0.00  0.00    +0.000 A 
ATOM     15  C   UNL     1      -0.079  10.029  20.800  0.00  0.00    +0.000 A 
ATOM     16  C   UNL     1       0.810   8.966  20.628  0.00  0.00    +0.000 A 
ATOM     17  C   UNL     1       1.363   8.689  19.366  0.00  0.00    +0.000 A 
ATOM     18  C   UNL     1       0.997   9.494  18.279  0.00  0.00    +0.000 A 
ATOM     19  C   UNL     1       0.104  10.559  18.450  0.00  0.00    +0.000 A 
ENDBRANCH   7  17
ENDBRANCH   1   9
BRANCH   4  20
ATOM     20  C   UNL     1       8.257   7.675  18.584  0.00  0.00    +0.000 C 
BRANCH  20  21
ATOM     21  C   UNL     1       8.134   9.038  17.882  0.00  0.00    +0.000 C 
BRANCH  21  22
ATOM     22  C   UNL     1       9.014  10.093  18.508  0.00  0.00    +0.000 A 
ATOM     23  C   UNL     1       9.110  10.193  19.905  0.00  0.00    +0.000 A 
ATOM     24  C   UNL     1       9.944  11.149  20.488  0.00  0.00    +0.000 A 
ATOM     25  C   UNL     1      10.682  12.013  19.683  0.00  0.00    +0.000 A 
ATOM     26  C   UNL     1      10.582  11.929  18.295  0.00  0.00    +0.000 A 
ATOM     27  C   UNL     1       9.748  10.977  17.709  0.00  0.00    +0.000 A 
ENDBRANCH  21  22
ENDBRANCH  20  21
ENDBRANCH   4  20
TORSDOF 5
ENDMDL
MODEL 6
REMARK VINA RESULT:      -8.3      3.629      8.246
REMARK  Name = 
REMARK  5 active torsions:
REMARK  status: ('A' for Active; 'I' for Inactive)
REMARK    1  A    between atoms: C_5  and  C_6
REMARK    2  A    between atoms: C_8  and  C_9
REMARK    3  A    between atoms: N_12  and  C_13
REMARK    4  A    between atoms: C_13  and  C_14
REMARK    5  A    between atoms: C_14  and  C_15
REMARK                            x       y       z     vdW  Elec       q    Type
REMARK                         _______ _______ _______ _____ _____    ______ ____
ROOT
ATOM      1  C   UNL     1       4.885   5.203  17.471  0.00  0.00    +0.000 C 
ATOM      2  C   UNL     1       6.020   4.625  18.317  0.00  0.00    +0.000 C 
ATOM      3  C   UNL     1       6.937   5.720  18.867  0.00  0.00    +0.000 C 
ATOM      4  N   UNL     1       7.495   6.593  17.823  0.00  0.00    +0.000 NA
ATOM      5  C   UNL     1       6.451   7.132  16.931  0.00  0.00    +0.000 C 
ATOM      6  C   UNL     1       5.529   6.046  16.361  0.00  0.00    +0.000 C 
ENDROOT
BRANCH   1   9
ATOM      7  C   UNL     1       2.378   7.429  19.116  0.00  0.00    +0.000 A 
ATOM      8  C   UNL     1       3.267   7.202  18.034  0.00  0.00    +0.000 A 
ATOM      9  C   UNL     1       3.864   5.980  18.267  0.00  0.00    +0.000 A 
ATOM     10  N   UNL     1       3.297   5.540  19.433  0.00  0.00    +0.000 N 
ATOM     11  N   UNL     1       2.440   6.412  19.988  0.00  0.00    +0.000 NA
ATOM     12  H   UNL     1       3.460   4.667  19.922  0.00  0.00    +0.000 HD
BRANCH   7  17
ATOM     13 CL   UNL     1      -1.381  12.037  19.821  0.00  0.00    +0.000 Cl
ATOM     14  C   UNL     1      -0.282  10.727  19.628  0.00  0.00    +0.000 A 
ATOM     15  C   UNL     1       0.227  10.435  18.367  0.00  0.00    +0.000 A 
ATOM     16  C   UNL     1       1.106   9.361  18.206  0.00  0.00    +0.000 A 
ATOM     17  C   UNL     1       1.482   8.569  19.303  0.00  0.00    +0.000 A 
ATOM     18  C   UNL     1       0.966   8.882  20.568  0.00  0.00    +0.000 A 
ATOM     19  C   UNL     1       0.087   9.959  20.732  0.00  0.00    +0.000 A 
ENDBRANCH   7  17
ENDBRANCH   1   9
BRANCH   4  20
ATOM     20  C   UNL     1       8.235   7.729  18.434  0.00  0.00    +0.000 C 
BRANCH  20  21
ATOM     21  C   UNL     1       8.063   9.058  17.680  0.00  0.00    +0.000 C 
BRANCH  21  22
ATOM     22  C   UNL     1       8.725  10.216  18.387  0.00  0.00    +0.000 A 
ATOM     23  C   UNL     1       8.775  11.479  17.777  0.00  0.00    +0.000 A 
ATOM     24  C   UNL     1       9.361  12.559  18.439  0.00  0.00    +0.000 A 
ATOM     25  C   UNL     1       9.904  12.386  19.710  0.00  0.00    +0.000 A 
ATOM     26  C   UNL     1       9.871  11.131  20.317  0.00  0.00    +0.000 A 
ATOM     27  C   UNL     1       9.287  10.049  19.658  0.00  0.00    +0.000 A 
ENDBRANCH  21  22
ENDBRANCH  20  21
ENDBRANCH   4  20
TORSDOF 5
ENDMDL
MODEL 7
REMARK VINA RESULT:      -8.3      2.629      4.842
REMARK  Name = 
REMARK  5 active torsions:
REMARK  status: ('A' for Active; 'I' for Inactive)
REMARK    1  A    between atoms: C_5  and  C_6
REMARK    2  A    between atoms: C_8  and  C_9
REMARK    3  A    between atoms: N_12  and  C_13
REMARK    4  A    between atoms: C_13  and  C_14
REMARK    5  A    between atoms: C_14  and  C_15
REMARK                            x       y       z     vdW  Elec       q    Type
REMARK                         _______ _______ _______ _____ _____    ______ ____
ROOT
ATOM      1  C   UNL     1       3.555   2.462  17.503  0.00  0.00    +0.000 C 
ATOM      2  C   UNL     1       2.171   2.993  17.130  0.00  0.00    +0.000 C 
ATOM      3  C   UNL     1       1.694   4.075  18.101  0.00  0.00    +0.000 C 
ATOM      4  N   UNL     1       1.693   3.641  19.506  0.00  0.00    +0.000 NA
ATOM      5  C   UNL     1       2.986   3.056  19.909  0.00  0.00    +0.000 C 
ATOM      6  C   UNL     1       3.474   1.961  18.953  0.00  0.00    +0.000 C 
ENDROOT
BRANCH   1   9
ATOM      7  C   UNL     1       6.154   5.139  17.361  0.00  0.00    +0.000 A 
ATOM      8  C   UNL     1       5.009   4.598  18.001  0.00  0.00    +0.000 A 
ATOM      9  C   UNL     1       4.668   3.460  17.299  0.00  0.00    +0.000 A 
ATOM     10  N   UNL     1       5.618   3.369  16.317  0.00  0.00    +0.000 N 
ATOM     11  N   UNL     1       6.490   4.388  16.302  0.00  0.00    +0.000 NA
ATOM     12  H   UNL     1       5.721   2.651  15.608  0.00  0.00    +0.000 HD
BRANCH   7  17
ATOM     13 CL   UNL     1       9.384   9.927  18.944  0.00  0.00    +0.000 Cl
ATOM     14  C   UNL     1       8.436   8.561  18.501  0.00  0.00    +0.000 A 
ATOM     15  C   UNL     1       8.607   7.355  19.175  0.00  0.00    +0.000 A 
ATOM     16  C   UNL     1       7.850   6.241  18.806  0.00  0.00    +0.000 A 
ATOM     17  C   UNL     1       6.918   6.321  17.759  0.00  0.00    +0.000 A 
ATOM     18  C   UNL     1       6.752   7.545  17.096  0.00  0.00    +0.000 A 
ATOM     19  C   UNL     1       7.508   8.663  17.466  0.00  0.00    +0.000 A 
ENDBRANCH   7  17
ENDBRANCH   1   9
BRANCH   4  20
ATOM     20  C   UNL     1       1.383   4.783  20.405  0.00  0.00    +0.000 C 
BRANCH  20  21
ATOM     21  C   UNL     1       2.496   5.843  20.467  0.00  0.00    +0.000 C 
BRANCH  21  22
ATOM     22  C   UNL     1       2.108   7.131  19.782  0.00  0.00    +0.000 A 
ATOM     23  C   UNL     1       1.347   8.092  20.466  0.00  0.00    +0.000 A 
ATOM     24  C   UNL     1       1.010   9.296  19.847  0.00  0.00    +0.000 A 
ATOM     25  C   UNL     1       1.425   9.548  18.541  0.00  0.00    +0.000 A 
ATOM     26  C   UNL     1       2.169   8.593  17.849  0.00  0.00    +0.000 A 
ATOM     27  C   UNL     1       2.507   7.387  18.465  0.00  0.00    +0.000 A 
ENDBRANCH  21  22
ENDBRANCH  20  21
ENDBRANCH   4  20
TORSDOF 5
ENDMDL
MODEL 8
REMARK VINA RESULT:      -8.3      1.202      1.320
REMARK  Name = 
REMARK  5 active torsions:
REMARK  status: ('A' for Active; 'I' for Inactive)
REMARK    1  A    between atoms: C_5  and  C_6
REMARK    2  A    between atoms: C_8  and  C_9
REMARK    3  A    between atoms: N_12  and  C_13
REMARK    4  A    between atoms: C_13  and  C_14
REMARK    5  A    between atoms: C_14  and  C_15
REMARK                            x       y       z     vdW  Elec       q    Type
REMARK                         _______ _______ _______ _____ _____    ______ ____
ROOT
ATOM      1  C   UNL     1       7.005   5.796  17.108  0.00  0.00    +0.000 C 
ATOM      2  C   UNL     1       5.884   6.156  16.133  0.00  0.00    +0.000 C 
ATOM      3  C   UNL     1       4.669   6.745  16.852  0.00  0.00    +0.000 C 
ATOM      4  N   UNL     1       4.139   5.874  17.913  0.00  0.00    +0.000 NA
ATOM      5  C   UNL     1       5.190   5.438  18.852  0.00  0.00    +0.000 C 
ATOM      6  C   UNL     1       6.412   4.835  18.148  0.00  0.00    +0.000 C 
ENDROOT
BRANCH   1   9
ATOM      7  C   UNL     1       8.498   8.992  18.333  0.00  0.00    +0.000 A 
ATOM      8  C   UNL     1       7.762   8.307  17.332  0.00  0.00    +0.000 A 
ATOM      9  C   UNL     1       7.671   6.993  17.743  0.00  0.00    +0.000 A 
ATOM     10  N   UNL     1       8.318   6.967  18.950  0.00  0.00    +0.000 N 
ATOM     11  N   UNL     1       8.866   8.141  19.303  0.00  0.00    +0.000 NA
ATOM     12  H   UNL     1       8.445   6.182  19.578  0.00  0.00    +0.000 HD
BRANCH   7  17
ATOM     13 CL   UNL     1       9.939  14.803  18.458  0.00  0.00    +0.000 Cl
ATOM     14  C   UNL     1       9.504  13.139  18.436  0.00  0.00    +0.000 A 
ATOM     15  C   UNL     1      10.166  12.242  19.270  0.00  0.00    +0.000 A 
ATOM     16  C   UNL     1       9.826  10.888  19.241  0.00  0.00    +0.000 A 
ATOM     17  C   UNL     1       8.824  10.417  18.377  0.00  0.00    +0.000 A 
ATOM     18  C   UNL     1       8.161  11.335  17.550  0.00  0.00    +0.000 A 
ATOM     19  C   UNL     1       8.499  12.693  17.579  0.00  0.00    +0.000 A 
ENDBRANCH   7  17
ENDBRANCH   1   9
BRANCH   4  20
ATOM     20  C   UNL     1       3.073   6.573  18.678  0.00  0.00    +0.000 C 
BRANCH  20  21
ATOM     21  C   UNL     1       1.716   5.849  18.652  0.00  0.00    +0.000 C 
BRANCH  21  22
ATOM     22  C   UNL     1       1.691   4.633  19.545  0.00  0.00    +0.000 A 
ATOM     23  C   UNL     1       1.276   3.392  19.035  0.00  0.00    +0.000 A 
ATOM     24  C   UNL     1       1.278   2.259  19.850  0.00  0.00    +0.000 A 
ATOM     25  C   UNL     1       1.687   2.356  21.178  0.00  0.00    +0.000 A 
ATOM     26  C   UNL     1       2.088   3.587  21.696  0.00  0.00    +0.000 A 
ATOM     27  C   UNL     1       2.086   4.722  20.885  0.00  0.00    +0.000 A 
ENDBRANCH  21  22
ENDBRANCH  20  21
ENDBRANCH   4  20
TORSDOF 5
ENDMDL
MODEL 9
REMARK VINA RESULT:      -8.3      3.894      8.154
REMARK  Name = 
REMARK  5 active torsions:
REMARK  status: ('A' for Active; 'I' for Inactive)
REMARK    1  A    between atoms: C_5  and  C_6
REMARK    2  A    between atoms: C_8  and  C_9
REMARK    3  A    between atoms: N_12  and  C_13
REMARK    4  A    between atoms: C_13  and  C_14
REMARK    5  A    between atoms: C_14  and  C_15
REMARK                            x       y       z     vdW  Elec       q    Type
REMARK                         _______ _______ _______ _____ _____    ______ ____
ROOT
ATOM      1  C   UNL     1       4.084   5.260  17.869  0.00  0.00    +0.000 C 
ATOM      2  C   UNL     1       5.008   4.735  18.968  0.00  0.00    +0.000 C 
ATOM      3  C   UNL     1       6.158   5.701  19.257  0.00  0.00    +0.000 C 
ATOM      4  N   UNL     1       6.953   6.037  18.065  0.00  0.00    +0.000 NA
ATOM      5  C   UNL     1       6.107   6.490  16.943  0.00  0.00    +0.000 C 
ATOM      6  C   UNL     1       4.955   5.527  16.632  0.00  0.00    +0.000 C 
ENDROOT
BRANCH   1   9
ATOM      7  C   UNL     1       2.012   8.037  19.262  0.00  0.00    +0.000 A 
ATOM      8  C   UNL     1       2.571   6.744  19.430  0.00  0.00    +0.000 A 
ATOM      9  C   UNL     1       3.275   6.467  18.276  0.00  0.00    +0.000 A 
ATOM     10  N   UNL     1       3.125   7.591  17.508  0.00  0.00    +0.000 N 
ATOM     11  N   UNL     1       2.332   8.526  18.055  0.00  0.00    +0.000 NA
ATOM     12  H   UNL     1       3.516   7.784  16.592  0.00  0.00    +0.000 HD
BRANCH   7  17
ATOM     13 CL   UNL     1      -1.351  11.087  23.166  0.00  0.00    +0.000 Cl
ATOM     14  C   UNL     1      -0.364  10.222  22.053  0.00  0.00    +0.000 A 
ATOM     15  C   UNL     1      -0.319  10.617  20.720  0.00  0.00    +0.000 A 
ATOM     16  C   UNL     1       0.468   9.906  19.812  0.00  0.00    +0.000 A 
ATOM     17  C   UNL     1       1.216   8.792  20.228  0.00  0.00    +0.000 A 
ATOM     18  C   UNL     1       1.166   8.412  21.576  0.00  0.00    +0.000 A 
ATOM     19  C   UNL     1       0.378   9.125  22.488  0.00  0.00    +0.000 A 
ENDBRANCH   7  17
ENDBRANCH   1   9
BRANCH   4  20
ATOM     20  C   UNL     1       7.941   7.101  18.380  0.00  0.00    +0.000 C 
BRANCH  20  21
ATOM     21  C   UNL     1       7.779   8.369  17.525  0.00  0.00    +0.000 C 
BRANCH  21  22
ATOM     22  C   UNL     1       8.420   9.581  18.159  0.00  0.00    +0.000 A 
ATOM     23  C   UNL     1       9.094   9.462  19.384  0.00  0.00    +0.000 A 
ATOM     24  C   UNL     1       9.712  10.573  19.960  0.00  0.00    +0.000 A 
ATOM     25  C   UNL     1       9.656  11.810  19.321  0.00  0.00    +0.000 A 
ATOM     26  C   UNL     1       8.977  11.940  18.111  0.00  0.00    +0.000 A 
ATOM     27  C   UNL     1       8.357  10.831  17.533  0.00  0.00    +0.000 A 
ENDBRANCH  21  22
ENDBRANCH  20  21
ENDBRANCH   4  20
TORSDOF 5
ENDMDL
