MODEL 1
REMARK VINA RESULT:      -7.9      0.000      0.000
REMARK  Name = 
REMARK  5 active torsions:
REMARK  status: ('A' for Active; 'I' for Inactive)
REMARK    1  A    between atoms: C_1  and  C_2
REMARK    2  A    between atoms: C_2  and  C_3
REMARK    3  A    between atoms: C_2  and  N_4
REMARK    4  A    between atoms: C_5  and  C_7
REMARK    5  A    between atoms: C_14  and  N_15
REMARK                            x       y       z     vdW  Elec       q    Type
REMARK                         _______ _______ _______ _____ _____    ______ ____
ROOT
ATOM      1  C   UNL     1       5.389   5.114  16.630  0.00  0.00    +0.000 A 
ATOM      2  C   UNL     1       4.947   6.424  16.589  0.00  0.00    +0.000 A 
ATOM      3  C   UNL     1       3.996   6.819  17.518  0.00  0.00    +0.000 A 
ATOM      4  C   UNL     1       3.521   5.908  18.467  0.00  0.00    +0.000 A 
ATOM      5  C   UNL     1       2.546   6.312  19.400  0.00  0.00    +0.000 A 
ATOM      6  C   UNL     1       2.057   5.426  20.357  0.00  0.00    +0.000 A 
ATOM      7  C   UNL     1       2.546   4.129  20.390  0.00  0.00    +0.000 A 
ATOM      8  C   UNL     1       3.520   3.743  19.453  0.00  0.00    +0.000 A 
ATOM      9  C   UNL     1       4.035   4.588  18.464  0.00  0.00    +0.000 A 
ATOM     10  N   UNL     1       4.953   4.197  17.539  0.00  0.00    +0.000 NA
ENDROOT
BRANCH   1  12
ATOM     11  N   UNL     1       5.875   4.414  14.347  0.00  0.00    +0.000 N 
ATOM     12  C   UNL     1       6.383   4.653  15.606  0.00  0.00    +0.000 C 
ATOM     13  O   UNL     1       7.569   4.522  15.899  0.00  0.00    +0.000 OA
ATOM     14  H   UNL     1       4.863   4.442  14.248  0.00  0.00    +0.000 HD
BRANCH  11  16
ATOM     15  C   UNL     1       5.880   3.264  12.174  0.00  0.00    +0.000 C 
ATOM     16  C   UNL     1       6.712   3.956  13.249  0.00  0.00    +0.000 C 
ATOM     17  C   UNL     1       7.502   5.120  12.664  0.00  0.00    +0.000 C 
ENDBRANCH  11  16
ENDBRANCH   1  12
BRANCH   8  18
ATOM     18  N   UNL     1       4.011   2.385  19.532  0.00  0.00    +0.000 N 
ATOM     19  O   UNL     1       3.435   1.542  18.829  0.00  0.00    +0.000 OA
ATOM     20  O   UNL     1       4.913   2.143  20.345  0.00  0.00    +0.000 OA
ENDBRANCH   8  18
TORSDOF 3
ENDMDL
MODEL 2
REMARK VINA RESULT:      -7.4      1.280      1.925
REMARK  Name = 
REMARK  5 active torsions:
REMARK  status: ('A' for Active; 'I' for Inactive)
REMARK    1  A    between atoms: C_1  and  C_2
REMARK    2  A    between atoms: C_2  and  C_3
REMARK    3  A    between atoms: C_2  and  N_4
REMARK    4  A    between atoms: C_5  and  C_7
REMARK    5  A    between atoms: C_14  and  N_15
REMARK                            x       y       z     vdW  Elec       q    Type
REMARK                         _______ _______ _______ _____ _____    ______ ____
ROOT
ATOM      1  C   UNL     1       4.057   5.641  17.570  0.00  0.00    +0.000 A 
ATOM      2  C   UNL     1       3.210   6.656  17.978  0.00  0.00    +0.000 A 
ATOM      3  C   UNL     1       2.340   6.396  19.026  0.00  0.00    +0.000 A 
ATOM      4  C   UNL     1       2.342   5.141  19.645  0.00  0.00    +0.000 A 
ATOM      5  C   UNL     1       1.446   4.879  20.700  0.00  0.00    +0.000 A 
ATOM      6  C   UNL     1       1.428   3.640  21.336  0.00  0.00    +0.000 A 
ATOM      7  C   UNL     1       2.313   2.655  20.922  0.00  0.00    +0.000 A 
ATOM      8  C   UNL     1       3.202   2.934  19.869  0.00  0.00    +0.000 A 
ATOM      9  C   UNL     1       3.252   4.156  19.188  0.00  0.00    +0.000 A 
ATOM     10  N   UNL     1       4.091   4.408  18.148  0.00  0.00    +0.000 NA
ENDROOT
BRANCH   1  12
ATOM     11  N   UNL     1       5.208   4.799  15.594  0.00  0.00    +0.000 N 
ATOM     12  C   UNL     1       4.974   5.887  16.410  0.00  0.00    +0.000 C 
ATOM     13  O   UNL     1       5.458   6.999  16.218  0.00  0.00    +0.000 OA
ATOM     14  H   UNL     1       4.851   3.901  15.913  0.00  0.00    +0.000 HD
BRANCH  11  16
ATOM     15  C   UNL     1       7.549   4.846  14.845  0.00  0.00    +0.000 C 
ATOM     16  C   UNL     1       6.080   4.877  14.433  0.00  0.00    +0.000 C 
ATOM     17  C   UNL     1       5.763   3.752  13.455  0.00  0.00    +0.000 C 
ENDBRANCH  11  16
ENDBRANCH   1  12
BRANCH   8  18
ATOM     18  N   UNL     1       4.114   1.883  19.479  0.00  0.00    +0.000 N 
ATOM     19  O   UNL     1       3.775   1.179  18.517  0.00  0.00    +0.000 OA
ATOM     20  O   UNL     1       5.126   1.709  20.172  0.00  0.00    +0.000 OA
ENDBRANCH   8  18
TORSDOF 3
ENDMDL
MODEL 3
REMARK VINA RESULT:      -7.3      0.952      1.039
REMARK  Name = 
REMARK  5 active torsions:
REMARK  status: ('A' for Active; 'I' for Inactive)
REMARK    1  A    between atoms: C_1  and  C_2
REMARK    2  A    between atoms: C_2  and  C_3
REMARK    3  A    between atoms: C_2  and  N_4
REMARK    4  A    between atoms: C_5  and  C_7
REMARK    5  A    between atoms: C_14  and  N_15
REMARK                            x       y       z     vdW  Elec       q    Type
REMARK                         _______ _______ _______ _____ _____    ______ ____
ROOT
ATOM      1  C   UNL     1       5.394   5.290  16.020  0.00  0.00    +0.000 A 
ATOM      2  C   UNL     1       5.342   6.644  16.295  0.00  0.00    +0.000 A 
ATOM      3  C   UNL     1       4.465   7.075  17.280  0.00  0.00    +0.000 A 
ATOM      4  C   UNL     1       3.673   6.149  17.968  0.00  0.00    +0.000 A 
ATOM      5  C   UNL     1       2.774   6.594  18.957  0.00  0.00    +0.000 A 
ATOM      6  C   UNL     1       1.976   5.695  19.659  0.00  0.00    +0.000 A 
ATOM      7  C   UNL     1       2.076   4.340  19.379  0.00  0.00    +0.000 A 
ATOM      8  C   UNL     1       2.980   3.913  18.391  0.00  0.00    +0.000 A 
ATOM      9  C   UNL     1       3.795   4.775  17.647  0.00  0.00    +0.000 A 
ATOM     10  N   UNL     1       4.642   4.357  16.668  0.00  0.00    +0.000 NA
ENDROOT
BRANCH   1  12
ATOM     11  N   UNL     1       5.692   4.104  13.912  0.00  0.00    +0.000 N 
ATOM     12  C   UNL     1       6.303   4.808  14.929  0.00  0.00    +0.000 C 
ATOM     13  O   UNL     1       7.506   5.054  14.961  0.00  0.00    +0.000 OA
ATOM     14  H   UNL     1       4.714   3.858  14.047  0.00  0.00    +0.000 HD
BRANCH  11  16
ATOM     15  C   UNL     1       5.530   2.784  11.844  0.00  0.00    +0.000 C 
ATOM     16  C   UNL     1       6.440   3.566  12.787  0.00  0.00    +0.000 C 
ATOM     17  C   UNL     1       7.163   4.684  12.047  0.00  0.00    +0.000 C 
ENDBRANCH  11  16
ENDBRANCH   1  12
BRANCH   8  18
ATOM     18  N   UNL     1       3.061   2.492  18.140  0.00  0.00    +0.000 N 
ATOM     19  O   UNL     1       2.261   2.024  17.316  0.00  0.00    +0.000 OA
ATOM     20  O   UNL     1       3.862   1.830  18.814  0.00  0.00    +0.000 OA
ENDBRANCH   8  18
TORSDOF 3
ENDMDL
MODEL 4
REMARK VINA RESULT:      -7.1      1.144      1.358
REMARK  Name = 
REMARK  5 active torsions:
REMARK  status: ('A' for Active; 'I' for Inactive)
REMARK    1  A    between atoms: C_1  and  C_2
REMARK    2  A    between atoms: C_2  and  C_3
REMARK    3  A    between atoms: C_2  and  N_4
REMARK    4  A    between atoms: C_5  and  C_7
REMARK    5  A    between atoms: C_14  and  N_15
REMARK                            x       y       z     vdW  Elec       q    Type
REMARK                         _______ _______ _______ _____ _____    ______ ____
ROOT
ATOM      1  C   UNL     1       4.323   5.366  17.169  0.00  0.00    +0.000 A 
ATOM      2  C   UNL     1       3.636   6.519  17.503  0.00  0.00    +0.000 A 
ATOM      3  C   UNL     1       2.837   6.496  18.636  0.00  0.00    +0.000 A 
ATOM      4  C   UNL     1       2.750   5.333  19.410  0.00  0.00    +0.000 A 
ATOM      5  C   UNL     1       1.926   5.312  20.552  0.00  0.00    +0.000 A 
ATOM      6  C   UNL     1       1.823   4.169  21.342  0.00  0.00    +0.000 A 
ATOM      7  C   UNL     1       2.550   3.040  20.996  0.00  0.00    +0.000 A 
ATOM      8  C   UNL     1       3.370   3.079  19.854  0.00  0.00    +0.000 A 
ATOM      9  C   UNL     1       3.499   4.196  19.019  0.00  0.00    +0.000 A 
ATOM     10  N   UNL     1       4.267   4.215  17.897  0.00  0.00    +0.000 NA
ENDROOT
BRANCH   1  12
ATOM     11  N   UNL     1       5.588   4.114  15.505  0.00  0.00    +0.000 N 
ATOM     12  C   UNL     1       5.157   5.356  15.923  0.00  0.00    +0.000 C 
ATOM     13  O   UNL     1       5.410   6.401  15.330  0.00  0.00    +0.000 OA
ATOM     14  H   UNL     1       5.420   3.334  16.135  0.00  0.00    +0.000 HD
BRANCH  11  16
ATOM     15  C   UNL     1       5.549   3.766  13.071  0.00  0.00    +0.000 C 
ATOM     16  C   UNL     1       6.411   3.941  14.318  0.00  0.00    +0.000 C 
ATOM     17  C   UNL     1       7.368   5.116  14.161  0.00  0.00    +0.000 C 
ENDBRANCH  11  16
ENDBRANCH   1  12
BRANCH   8  18
ATOM     18  N   UNL     1       4.119   1.884  19.537  0.00  0.00    +0.000 N 
ATOM     19  O   UNL     1       3.686   1.184  18.611  0.00  0.00    +0.000 OA
ATOM     20  O   UNL     1       5.089   1.603  20.254  0.00  0.00    +0.000 OA
ENDBRANCH   8  18
TORSDOF 3
ENDMDL
MODEL 5
REMARK VINA RESULT:      -7.0      4.799      6.844
REMARK  Name = 
REMARK  5 active torsions:
REMARK  status: ('A' for Active; 'I' for Inactive)
REMARK    1  A    between atoms: C_1  and  C_2
REMARK    2  A    between atoms: C_2  and  C_3
REMARK    3  A    between atoms: C_2  and  N_4
REMARK    4  A    between atoms: C_5  and  C_7
REMARK    5  A    between atoms: C_14  and  N_15
REMARK                            x       y       z     vdW  Elec       q    Type
REMARK                         _______ _______ _______ _____ _____    ______ ____
ROOT
ATOM      1  C   UNL     1       2.320   7.154  19.379  0.00  0.00    +0.000 A 
ATOM      2  C   UNL     1       2.579   7.713  18.140  0.00  0.00    +0.000 A 
ATOM      3  C   UNL     1       2.082   8.982  17.883  0.00  0.00    +0.000 A 
ATOM      4  C   UNL     1       1.354   9.663  18.864  0.00  0.00    +0.000 A 
ATOM      5  C   UNL     1       0.841  10.947  18.591  0.00  0.00    +0.000 A 
ATOM      6  C   UNL     1       0.114  11.649  19.550  0.00  0.00    +0.000 A 
ATOM      7  C   UNL     1      -0.100  11.071  20.792  0.00  0.00    +0.000 A 
ATOM      8  C   UNL     1       0.421   9.791  21.049  0.00  0.00    +0.000 A 
ATOM      9  C   UNL     1       1.146   9.038  20.117  0.00  0.00    +0.000 A 
ATOM     10  N   UNL     1       1.617   7.785  20.361  0.00  0.00    +0.000 NA
ENDROOT
BRANCH   1  12
ATOM     11  N   UNL     1       1.828   4.815  19.850  0.00  0.00    +0.000 N 
ATOM     12  C   UNL     1       2.809   5.766  19.663  0.00  0.00    +0.000 C 
ATOM     13  O   UNL     1       4.012   5.521  19.704  0.00  0.00    +0.000 OA
ATOM     14  H   UNL     1       0.870   5.150  19.911  0.00  0.00    +0.000 HD
BRANCH  11  16
ATOM     15  C   UNL     1       1.931   3.109  21.618  0.00  0.00    +0.000 C 
ATOM     16  C   UNL     1       2.144   3.425  20.140  0.00  0.00    +0.000 C 
ATOM     17  C   UNL     1       1.316   2.498  19.258  0.00  0.00    +0.000 C 
ENDBRANCH  11  16
ENDBRANCH   1  12
BRANCH   8  18
ATOM     18  N   UNL     1       0.185   9.232  22.361  0.00  0.00    +0.000 N 
ATOM     19  O   UNL     1      -0.760   8.438  22.467  0.00  0.00    +0.000 OA
ATOM     20  O   UNL     1       0.887   9.639  23.297  0.00  0.00    +0.000 OA
ENDBRANCH   8  18
TORSDOF 3
ENDMDL
MODEL 6
REMARK VINA RESULT:      -6.9      0.808      1.137
REMARK  Name = 
REMARK  5 active torsions:
REMARK  status: ('A' for Active; 'I' for Inactive)
REMARK    1  A    between atoms: C_1  and  C_2
REMARK    2  A    between atoms: C_2  and  C_3
REMARK    3  A    between atoms: C_2  and  N_4
REMARK    4  A    between atoms: C_5  and  C_7
REMARK    5  A    between atoms: C_14  and  N_15
REMARK                            x       y       z     vdW  Elec       q    Type
REMARK                         _______ _______ _______ _____ _____    ______ ____
ROOT
ATOM      1  C   UNL     1       4.903   4.662  17.046  0.00  0.00    +0.000 A 
ATOM      2  C   UNL     1       4.158   5.824  16.963  0.00  0.00    +0.000 A 
ATOM      3  C   UNL     1       3.158   6.024  17.903  0.00  0.00    +0.000 A 
ATOM      4  C   UNL     1       2.934   5.072  18.904  0.00  0.00    +0.000 A 
ATOM      5  C   UNL     1       1.909   5.275  19.848  0.00  0.00    +0.000 A 
ATOM      6  C   UNL     1       1.666   4.345  20.856  0.00  0.00    +0.000 A 
ATOM      7  C   UNL     1       2.453   3.206  20.929  0.00  0.00    +0.000 A 
ATOM      8  C   UNL     1       3.474   3.020  19.980  0.00  0.00    +0.000 A 
ATOM      9  C   UNL     1       3.751   3.916  18.940  0.00  0.00    +0.000 A 
ATOM     10  N   UNL     1       4.719   3.712  18.006  0.00  0.00    +0.000 NA
ENDROOT
BRANCH   1  12
ATOM     11  N   UNL     1       5.504   4.259  14.719  0.00  0.00    +0.000 N 
ATOM     12  C   UNL     1       5.959   4.404  16.013  0.00  0.00    +0.000 C 
ATOM     13  O   UNL     1       7.145   4.347  16.330  0.00  0.00    +0.000 OA
ATOM     14  H   UNL     1       4.497   4.207  14.590  0.00  0.00    +0.000 HD
BRANCH  11  16
ATOM     15  C   UNL     1       5.646   3.472  12.394  0.00  0.00    +0.000 C 
ATOM     16  C   UNL     1       6.406   3.998  13.608  0.00  0.00    +0.000 C 
ATOM     17  C   UNL     1       7.193   5.254  13.258  0.00  0.00    +0.000 C 
ENDBRANCH  11  16
ENDBRANCH   1  12
BRANCH   8  18
ATOM     18  N   UNL     1       4.278   1.825  20.101  0.00  0.00    +0.000 N 
ATOM     19  O   UNL     1       5.162   1.833  20.970  0.00  0.00    +0.000 OA
ATOM     20  O   UNL     1       4.084   0.913  19.287  0.00  0.00    +0.000 OA
ENDBRANCH   8  18
TORSDOF 3
ENDMDL
MODEL 7
REMARK VINA RESULT:      -6.8      1.949      2.630
REMARK  Name = 
REMARK  5 active torsions:
REMARK  status: ('A' for Active; 'I' for Inactive)
REMARK    1  A    between atoms: C_1  and  C_2
REMARK    2  A    between atoms: C_2  and  C_3
REMARK    3  A    between atoms: C_2  and  N_4
REMARK    4  A    between atoms: C_5  and  C_7
REMARK    5  A    between atoms: C_14  and  N_15
REMARK                            x       y       z     vdW  Elec       q    Type
REMARK                         _______ _______ _______ _____ _____    ______ ____
ROOT
ATOM      1  C   UNL     1       6.180   4.486  15.142  0.00  0.00    +0.000 A 
ATOM      2  C   UNL     1       7.174   5.219  15.765  0.00  0.00    +0.000 A 
ATOM      3  C   UNL     1       7.018   5.514  17.112  0.00  0.00    +0.000 A 
ATOM      4  C   UNL     1       5.887   5.065  17.802  0.00  0.00    +0.000 A 
ATOM      5  C   UNL     1       5.729   5.379  19.166  0.00  0.00    +0.000 A 
ATOM      6  C   UNL     1       4.614   4.942  19.879  0.00  0.00    +0.000 A 
ATOM      7  C   UNL     1       3.653   4.182  19.231  0.00  0.00    +0.000 A 
ATOM      8  C   UNL     1       3.828   3.876  17.870  0.00  0.00    +0.000 A 
ATOM      9  C   UNL     1       4.920   4.300  17.104  0.00  0.00    +0.000 A 
ATOM     10  N   UNL     1       5.066   4.028  15.779  0.00  0.00    +0.000 NA
ENDROOT
BRANCH   1  12
ATOM     11  N   UNL     1       5.258   3.497  13.115  0.00  0.00    +0.000 N 
ATOM     12  C   UNL     1       6.307   4.194  13.677  0.00  0.00    +0.000 C 
ATOM     13  O   UNL     1       7.287   4.578  13.044  0.00  0.00    +0.000 OA
ATOM     14  H   UNL     1       4.557   3.128  13.754  0.00  0.00    +0.000 HD
BRANCH  11  16
ATOM     15  C   UNL     1       5.817   1.739  11.490  0.00  0.00    +0.000 C 
ATOM     16  C   UNL     1       5.237   3.133  11.707  0.00  0.00    +0.000 C 
ATOM     17  C   UNL     1       3.820   3.228  11.155  0.00  0.00    +0.000 C 
ENDBRANCH  11  16
ENDBRANCH   1  12
BRANCH   8  18
ATOM     18  N   UNL     1       2.807   3.071  17.237  0.00  0.00    +0.000 N 
ATOM     19  O   UNL     1       1.877   3.679  16.689  0.00  0.00    +0.000 OA
ATOM     20  O   UNL     1       2.889   1.840  17.351  0.00  0.00    +0.000 OA
ENDBRANCH   8  18
TORSDOF 3
ENDMDL
MODEL 8
REMARK VINA RESULT:      -6.8      1.459      2.075
REMARK  Name = 
REMARK  5 active torsions:
REMARK  status: ('A' for Active; 'I' for Inactive)
REMARK    1  A    between atoms: C_1  and  C_2
REMARK    2  A    between atoms: C_2  and  C_3
REMARK    3  A    between atoms: C_2  and  N_4
REMARK    4  A    between atoms: C_5  and  C_7
REMARK    5  A    between atoms: C_14  and  N_15
REMARK                            x       y       z     vdW  Elec       q    Type
REMARK                         _______ _______ _______ _____ _____    ______ ____
ROOT
ATOM      1  C   UNL     1       4.120   5.811  17.222  0.00  0.00    +0.000 A 
ATOM      2  C   UNL     1       3.778   6.924  17.969  0.00  0.00    +0.000 A 
ATOM      3  C   UNL     1       2.944   6.743  19.062  0.00  0.00    +0.000 A 
ATOM      4  C   UNL     1       2.483   5.462  19.389  0.00  0.00    +0.000 A 
ATOM      5  C   UNL     1       1.626   5.287  20.493  0.00  0.00    +0.000 A 
ATOM      6  C   UNL     1       1.155   4.024  20.843  0.00  0.00    +0.000 A 
ATOM      7  C   UNL     1       1.544   2.925  20.091  0.00  0.00    +0.000 A 
ATOM      8  C   UNL     1       2.401   3.118  18.994  0.00  0.00    +0.000 A 
ATOM      9  C   UNL     1       2.893   4.365  18.592  0.00  0.00    +0.000 A 
ATOM     10  N   UNL     1       3.695   4.548  17.508  0.00  0.00    +0.000 NA
ENDROOT
BRANCH   1  12
ATOM     11  N   UNL     1       5.327   4.832  15.345  0.00  0.00    +0.000 N 
ATOM     12  C   UNL     1       4.984   5.991  16.010  0.00  0.00    +0.000 C 
ATOM     13  O   UNL     1       5.333   7.112  15.650  0.00  0.00    +0.000 OA
ATOM     14  H   UNL     1       5.082   3.954  15.797  0.00  0.00    +0.000 HD
BRANCH  11  16
ATOM     15  C   UNL     1       7.645   4.870  14.526  0.00  0.00    +0.000 C 
ATOM     16  C   UNL     1       6.165   4.842  14.156  0.00  0.00    +0.000 C 
ATOM     17  C   UNL     1       5.845   3.642  13.273  0.00  0.00    +0.000 C 
ENDBRANCH  11  16
ENDBRANCH   1  12
BRANCH   8  18
ATOM     18  N   UNL     1       2.791   1.944  18.246  0.00  0.00    +0.000 N 
ATOM     19  O   UNL     1       3.724   1.272  18.708  0.00  0.00    +0.000 OA
ATOM     20  O   UNL     1       2.224   1.733  17.165  0.00  0.00    +0.000 OA
ENDBRANCH   8  18
TORSDOF 3
ENDMDL
MODEL 9
REMARK VINA RESULT:      -6.7      1.358      1.649
REMARK  Name = 
REMARK  5 active torsions:
REMARK  status: ('A' for Active; 'I' for Inactive)
REMARK    1  A    between atoms: C_1  and  C_2
REMARK    2  A    between atoms: C_2  and  C_3
REMARK    3  A    between atoms: C_2  and  N_4
REMARK    4  A    between atoms: C_5  and  C_7
REMARK    5  A    between atoms: C_14  and  N_15
REMARK                            x       y       z     vdW  Elec       q    Type
REMARK                         _______ _______ _______ _____ _____    ______ ____
ROOT
ATOM      1  C   UNL     1       5.321   5.074  15.708  0.00  0.00    +0.000 A 
ATOM      2  C   UNL     1       5.536   6.342  16.217  0.00  0.00    +0.000 A 
ATOM      3  C   UNL     1       4.971   6.656  17.444  0.00  0.00    +0.000 A 
ATOM      4  C   UNL     1       4.219   5.699  18.135  0.00  0.00    +0.000 A 
ATOM      5  C   UNL     1       3.636   6.028  19.375  0.00  0.00    +0.000 A 
ATOM      6  C   UNL     1       2.885   5.095  20.086  0.00  0.00    +0.000 A 
ATOM      7  C   UNL     1       2.716   3.823  19.561  0.00  0.00    +0.000 A 
ATOM      8  C   UNL     1       3.306   3.510  18.324  0.00  0.00    +0.000 A 
ATOM      9  C   UNL     1       4.058   4.413  17.563  0.00  0.00    +0.000 A 
ATOM     10  N   UNL     1       4.597   4.114  16.350  0.00  0.00    +0.000 NA
ENDROOT
BRANCH   1  12
ATOM     11  N   UNL     1       5.046   4.019  13.529  0.00  0.00    +0.000 N 
ATOM     12  C   UNL     1       5.885   4.729  14.363  0.00  0.00    +0.000 C 
ATOM     13  O   UNL     1       7.019   5.082  14.049  0.00  0.00    +0.000 OA
ATOM     14  H   UNL     1       4.177   3.679  13.934  0.00  0.00    +0.000 HD
BRANCH  11  16
ATOM     15  C   UNL     1       6.398   2.409  12.253  0.00  0.00    +0.000 C 
ATOM     16  C   UNL     1       5.452   3.605  12.195  0.00  0.00    +0.000 C 
ATOM     17  C   UNL     1       4.228   3.293  11.342  0.00  0.00    +0.000 C 
ENDBRANCH  11  16
ENDBRANCH   1  12
BRANCH   8  18
ATOM     18  N   UNL     1       3.115   2.169  17.821  0.00  0.00    +0.000 N 
ATOM     19  O   UNL     1       2.139   1.985  17.079  0.00  0.00    +0.000 OA
ATOM     20  O   UNL     1       3.885   1.286  18.221  0.00  0.00    +0.000 OA
ENDBRANCH   8  18
TORSDOF 3
ENDMDL
