MODEL 1
REMARK VINA RESULT:      -7.3      0.000      0.000
REMARK  Name = 
REMARK  4 active torsions:
REMARK  status: ('A' for Active; 'I' for Inactive)
REMARK    1  A    between atoms: C_1  and  C_2
REMARK    2  A    between atoms: C_2  and  C_3
REMARK    3  A    between atoms: C_3  and  C_4
REMARK    4  A    between atoms: N_13  and  C_14
REMARK                            x       y       z     vdW  Elec       q    Type
REMARK                         _______ _______ _______ _____ _____    ______ ____
ROOT
ATOM      1  C   UNL     1       3.968   5.405  18.467  0.00  0.00    +0.000 C 
ATOM      2  N   UNL     1       4.917   5.559  19.552  0.00  0.00    +0.000 N 
ATOM      3  C   UNL     1       6.211   5.317  19.159  0.00  0.00    +0.000 C 
ATOM      4  O   UNL     1       7.184   5.579  19.845  0.00  0.00    +0.000 OA
ATOM      5  N   UNL     1       6.188   4.771  17.917  0.00  0.00    +0.000 N 
ATOM      6  C   UNL     1       7.356   4.412  17.153  0.00  0.00    +0.000 C 
ATOM      7  C   UNL     1       4.897   4.674  17.461  0.00  0.00    +0.000 C 
ATOM      8  O   UNL     1       4.568   4.208  16.376  0.00  0.00    +0.000 OA
ATOM      9  H   UNL     1       4.752   6.081  20.401  0.00  0.00    +0.000 HD
ENDROOT
BRANCH   1  10
ATOM     10  C   UNL     1       2.681   4.685  18.860  0.00  0.00    +0.000 A 
ATOM     11  C   UNL     1       1.983   3.885  17.936  0.00  0.00    +0.000 A 
ATOM     12  C   UNL     1       1.016   2.970  18.361  0.00  0.00    +0.000 A 
ATOM     13  C   UNL     1       0.707   2.858  19.713  0.00  0.00    +0.000 A 
ATOM     14  C   UNL     1       1.325   3.697  20.634  0.00  0.00    +0.000 A 
ATOM     15  C   UNL     1       2.297   4.607  20.212  0.00  0.00    +0.000 A 
ENDBRANCH   1  10
BRANCH   1  17
ATOM     16  C   UNL     1       2.487   7.531  18.524  0.00  0.00    +0.000 C 
ATOM     17  C   UNL     1       3.634   6.788  17.841  0.00  0.00    +0.000 C 
ENDBRANCH   1  17
TORSDOF 2
ENDMDL
MODEL 2
REMARK VINA RESULT:      -7.3      2.230      5.128
REMARK  Name = 
REMARK  4 active torsions:
REMARK  status: ('A' for Active; 'I' for Inactive)
REMARK    1  A    between atoms: C_1  and  C_2
REMARK    2  A    between atoms: C_2  and  C_3
REMARK    3  A    between atoms: C_3  and  C_4
REMARK    4  A    between atoms: N_13  and  C_14
REMARK                            x       y       z     vdW  Elec       q    Type
REMARK                         _______ _______ _______ _____ _____    ______ ____
ROOT
ATOM      1  C   UNL     1       4.790   4.565  17.374  0.00  0.00    +0.000 C 
ATOM      2  N   UNL     1       4.941   3.208  17.862  0.00  0.00    +0.000 N 
ATOM      3  C   UNL     1       3.738   2.625  18.176  0.00  0.00    +0.000 C 
ATOM      4  O   UNL     1       3.607   1.436  18.411  0.00  0.00    +0.000 OA
ATOM      5  N   UNL     1       2.777   3.583  18.159  0.00  0.00    +0.000 N 
ATOM      6  C   UNL     1       1.376   3.350  18.405  0.00  0.00    +0.000 C 
ATOM      7  C   UNL     1       3.317   4.794  17.807  0.00  0.00    +0.000 C 
ATOM      8  O   UNL     1       2.690   5.845  17.721  0.00  0.00    +0.000 OA
ATOM      9  H   UNL     1       5.746   2.619  17.704  0.00  0.00    +0.000 HD
ENDROOT
BRANCH   1  10
ATOM     10  C   UNL     1       5.825   5.544  17.920  0.00  0.00    +0.000 A 
ATOM     11  C   UNL     1       6.688   5.181  18.971  0.00  0.00    +0.000 A 
ATOM     12  C   UNL     1       7.839   5.924  19.249  0.00  0.00    +0.000 A 
ATOM     13  C   UNL     1       8.133   7.060  18.502  0.00  0.00    +0.000 A 
ATOM     14  C   UNL     1       7.251   7.484  17.514  0.00  0.00    +0.000 A 
ATOM     15  C   UNL     1       6.105   6.739  17.231  0.00  0.00    +0.000 A 
ENDBRANCH   1  10
BRANCH   1  17
ATOM     16  C   UNL     1       5.976   3.831  15.190  0.00  0.00    +0.000 C 
ATOM     17  C   UNL     1       4.807   4.586  15.820  0.00  0.00    +0.000 C 
ENDBRANCH   1  17
TORSDOF 2
ENDMDL
MODEL 3
REMARK VINA RESULT:      -7.2      2.196      5.180
REMARK  Name = 
REMARK  4 active torsions:
REMARK  status: ('A' for Active; 'I' for Inactive)
REMARK    1  A    between atoms: C_1  and  C_2
REMARK    2  A    between atoms: C_2  and  C_3
REMARK    3  A    between atoms: C_3  and  C_4
REMARK    4  A    between atoms: N_13  and  C_14
REMARK                            x       y       z     vdW  Elec       q    Type
REMARK                         _______ _______ _______ _____ _____    ______ ____
ROOT
ATOM      1  C   UNL     1       5.138   4.693  16.914  0.00  0.00    +0.000 C 
ATOM      2  N   UNL     1       5.087   3.303  17.325  0.00  0.00    +0.000 N 
ATOM      3  C   UNL     1       3.828   2.914  17.712  0.00  0.00    +0.000 C 
ATOM      4  O   UNL     1       3.510   1.752  17.902  0.00  0.00    +0.000 OA
ATOM      5  N   UNL     1       3.049   4.020  17.819  0.00  0.00    +0.000 N 
ATOM      6  C   UNL     1       1.651   4.013  18.170  0.00  0.00    +0.000 C 
ATOM      7  C   UNL     1       3.763   5.142  17.479  0.00  0.00    +0.000 C 
ATOM      8  O   UNL     1       3.323   6.286  17.493  0.00  0.00    +0.000 OA
ATOM      9  H   UNL     1       5.764   2.596  17.073  0.00  0.00    +0.000 HD
ENDROOT
BRANCH   1  10
ATOM     10  C   UNL     1       6.365   5.448  17.416  0.00  0.00    +0.000 A 
ATOM     11  C   UNL     1       6.713   6.705  16.888  0.00  0.00    +0.000 A 
ATOM     12  C   UNL     1       7.612   7.543  17.554  0.00  0.00    +0.000 A 
ATOM     13  C   UNL     1       8.203   7.128  18.743  0.00  0.00    +0.000 A 
ATOM     14  C   UNL     1       7.938   5.856  19.238  0.00  0.00    +0.000 A 
ATOM     15  C   UNL     1       7.035   5.020  18.578  0.00  0.00    +0.000 A 
ENDBRANCH   1  10
BRANCH   1  17
ATOM     16  C   UNL     1       6.036   3.926  14.607  0.00  0.00    +0.000 C 
ATOM     17  C   UNL     1       5.042   4.802  15.366  0.00  0.00    +0.000 C 
ENDBRANCH   1  17
TORSDOF 2
ENDMDL
MODEL 4
REMARK VINA RESULT:      -7.2      2.405      5.044
REMARK  Name = 
REMARK  4 active torsions:
REMARK  status: ('A' for Active; 'I' for Inactive)
REMARK    1  A    between atoms: C_1  and  C_2
REMARK    2  A    between atoms: C_2  and  C_3
REMARK    3  A    between atoms: C_3  and  C_4
REMARK    4  A    between atoms: N_13  and  C_14
REMARK                            x       y       z     vdW  Elec       q    Type
REMARK                         _______ _______ _______ _____ _____    ______ ____
ROOT
ATOM      1  C   UNL     1       4.883   4.412  18.380  0.00  0.00    +0.000 C 
ATOM      2  N   UNL     1       5.483   3.266  19.035  0.00  0.00    +0.000 N 
ATOM      3  C   UNL     1       4.604   2.614  19.865  0.00  0.00    +0.000 C 
ATOM      4  O   UNL     1       4.826   1.521  20.358  0.00  0.00    +0.000 OA
ATOM      5  N   UNL     1       3.495   3.383  20.007  0.00  0.00    +0.000 N 
ATOM      6  C   UNL     1       2.332   3.019  20.776  0.00  0.00    +0.000 C 
ATOM      7  C   UNL     1       3.608   4.527  19.257  0.00  0.00    +0.000 C 
ATOM      8  O   UNL     1       2.763   5.414  19.198  0.00  0.00    +0.000 OA
ATOM      9  H   UNL     1       6.310   2.781  18.718  0.00  0.00    +0.000 HD
ENDROOT
BRANCH   1  10
ATOM     10  C   UNL     1       5.786   5.640  18.319  0.00  0.00    +0.000 A 
ATOM     11  C   UNL     1       7.025   5.667  18.986  0.00  0.00    +0.000 A 
ATOM     12  C   UNL     1       7.993   6.626  18.672  0.00  0.00    +0.000 A 
ATOM     13  C   UNL     1       7.729   7.593  17.708  0.00  0.00    +0.000 A 
ATOM     14  C   UNL     1       6.481   7.636  17.097  0.00  0.00    +0.000 A 
ATOM     15  C   UNL     1       5.516   6.675  17.404  0.00  0.00    +0.000 A 
ENDBRANCH   1  10
BRANCH   1  17
ATOM     16  C   UNL     1       5.537   3.676  15.983  0.00  0.00    +0.000 C 
ATOM     17  C   UNL     1       4.409   4.029  16.950  0.00  0.00    +0.000 C 
ENDBRANCH   1  17
TORSDOF 2
ENDMDL
MODEL 5
REMARK VINA RESULT:      -7.1      0.444      1.259
REMARK  Name = 
REMARK  4 active torsions:
REMARK  status: ('A' for Active; 'I' for Inactive)
REMARK    1  A    between atoms: C_1  and  C_2
REMARK    2  A    between atoms: C_2  and  C_3
REMARK    3  A    between atoms: C_3  and  C_4
REMARK    4  A    between atoms: N_13  and  C_14
REMARK                            x       y       z     vdW  Elec       q    Type
REMARK                         _______ _______ _______ _____ _____    ______ ____
ROOT
ATOM      1  C   UNL     1       4.038   4.973  18.481  0.00  0.00    +0.000 C 
ATOM      2  N   UNL     1       4.975   5.359  19.519  0.00  0.00    +0.000 N 
ATOM      3  C   UNL     1       6.278   5.346  19.083  0.00  0.00    +0.000 C 
ATOM      4  O   UNL     1       7.204   5.823  19.716  0.00  0.00    +0.000 OA
ATOM      5  N   UNL     1       6.320   4.743  17.868  0.00  0.00    +0.000 N 
ATOM      6  C   UNL     1       7.510   4.572  17.074  0.00  0.00    +0.000 C 
ATOM      7  C   UNL     1       5.057   4.380  17.471  0.00  0.00    +0.000 C 
ATOM      8  O   UNL     1       4.789   3.805  16.422  0.00  0.00    +0.000 OA
ATOM      9  H   UNL     1       4.740   5.884  20.349  0.00  0.00    +0.000 HD
ENDROOT
BRANCH   1  10
ATOM     10  C   UNL     1       2.926   4.044  18.958  0.00  0.00    +0.000 A 
ATOM     11  C   UNL     1       2.716   3.804  20.329  0.00  0.00    +0.000 A 
ATOM     12  C   UNL     1       1.521   3.241  20.787  0.00  0.00    +0.000 A 
ATOM     13  C   UNL     1       0.528   2.880  19.883  0.00  0.00    +0.000 A 
ATOM     14  C   UNL     1       0.749   3.032  18.518  0.00  0.00    +0.000 A 
ATOM     15  C   UNL     1       1.938   3.600  18.059  0.00  0.00    +0.000 A 
ENDBRANCH   1  10
BRANCH   1  17
ATOM     16  C   UNL     1       2.588   7.105  18.742  0.00  0.00    +0.000 C 
ATOM     17  C   UNL     1       3.427   6.234  17.808  0.00  0.00    +0.000 C 
ENDBRANCH   1  17
TORSDOF 2
ENDMDL
MODEL 6
REMARK VINA RESULT:      -7.1      1.652      2.381
REMARK  Name = 
REMARK  4 active torsions:
REMARK  status: ('A' for Active; 'I' for Inactive)
REMARK    1  A    between atoms: C_1  and  C_2
REMARK    2  A    between atoms: C_2  and  C_3
REMARK    3  A    between atoms: C_3  and  C_4
REMARK    4  A    between atoms: N_13  and  C_14
REMARK                            x       y       z     vdW  Elec       q    Type
REMARK                         _______ _______ _______ _____ _____    ______ ____
ROOT
ATOM      1  C   UNL     1       4.395   4.909  17.751  0.00  0.00    +0.000 C 
ATOM      2  N   UNL     1       4.606   6.231  17.193  0.00  0.00    +0.000 N 
ATOM      3  C   UNL     1       5.875   6.704  17.427  0.00  0.00    +0.000 C 
ATOM      4  O   UNL     1       6.335   7.694  16.885  0.00  0.00    +0.000 OA
ATOM      5  N   UNL     1       6.482   5.884  18.321  0.00  0.00    +0.000 N 
ATOM      6  C   UNL     1       7.837   6.034  18.790  0.00  0.00    +0.000 C 
ATOM      7  C   UNL     1       5.647   4.851  18.666  0.00  0.00    +0.000 C 
ATOM      8  O   UNL     1       5.922   3.962  19.464  0.00  0.00    +0.000 OA
ATOM      9  H   UNL     1       4.055   6.647  16.456  0.00  0.00    +0.000 HD
ENDROOT
BRANCH   1  10
ATOM     10  C   UNL     1       3.041   4.728  18.430  0.00  0.00    +0.000 A 
ATOM     11  C   UNL     1       2.159   3.704  18.036  0.00  0.00    +0.000 A 
ATOM     12  C   UNL     1       1.091   3.318  18.851  0.00  0.00    +0.000 A 
ATOM     13  C   UNL     1       0.865   3.969  20.059  0.00  0.00    +0.000 A 
ATOM     14  C   UNL     1       1.673   5.039  20.428  0.00  0.00    +0.000 A 
ATOM     15  C   UNL     1       2.745   5.421  19.619  0.00  0.00    +0.000 A 
ENDBRANCH   1  10
BRANCH   1  17
ATOM     16  C   UNL     1       5.228   4.334  15.365  0.00  0.00    +0.000 C 
ATOM     17  C   UNL     1       4.591   3.823  16.656  0.00  0.00    +0.000 C 
ENDBRANCH   1  17
TORSDOF 2
ENDMDL
MODEL 7
REMARK VINA RESULT:      -7.0      1.902      2.989
REMARK  Name = 
REMARK  4 active torsions:
REMARK  status: ('A' for Active; 'I' for Inactive)
REMARK    1  A    between atoms: C_1  and  C_2
REMARK    2  A    between atoms: C_2  and  C_3
REMARK    3  A    between atoms: C_3  and  C_4
REMARK    4  A    between atoms: N_13  and  C_14
REMARK                            x       y       z     vdW  Elec       q    Type
REMARK                         _______ _______ _______ _____ _____    ______ ____
ROOT
ATOM      1  C   UNL     1       5.401   4.996  17.031  0.00  0.00    +0.000 C 
ATOM      2  N   UNL     1       5.654   6.361  16.613  0.00  0.00    +0.000 N 
ATOM      3  C   UNL     1       6.724   6.922  17.267  0.00  0.00    +0.000 C 
ATOM      4  O   UNL     1       7.237   7.977  16.936  0.00  0.00    +0.000 OA
ATOM      5  N   UNL     1       7.082   6.104  18.288  0.00  0.00    +0.000 N 
ATOM      6  C   UNL     1       8.188   6.337  19.183  0.00  0.00    +0.000 C 
ATOM      7  C   UNL     1       6.285   4.987  18.307  0.00  0.00    +0.000 C 
ATOM      8  O   UNL     1       6.368   4.078  19.126  0.00  0.00    +0.000 OA
ATOM      9  H   UNL     1       5.337   6.773  15.747  0.00  0.00    +0.000 HD
ENDROOT
BRANCH   1  10
ATOM     10  C   UNL     1       3.924   4.664  17.218  0.00  0.00    +0.000 A 
ATOM     11  C   UNL     1       3.448   3.348  17.064  0.00  0.00    +0.000 A 
ATOM     12  C   UNL     1       2.192   2.974  17.552  0.00  0.00    +0.000 A 
ATOM     13  C   UNL     1       1.377   3.913  18.174  0.00  0.00    +0.000 A 
ATOM     14  C   UNL     1       1.792   5.237  18.262  0.00  0.00    +0.000 A 
ATOM     15  C   UNL     1       3.049   5.612  17.782  0.00  0.00    +0.000 A 
ENDBRANCH   1  10
BRANCH   1  17
ATOM     16  C   UNL     1       5.952   4.414  14.567  0.00  0.00    +0.000 C 
ATOM     17  C   UNL     1       6.049   3.996  16.033  0.00  0.00    +0.000 C 
ENDBRANCH   1  17
TORSDOF 2
ENDMDL
MODEL 8
REMARK VINA RESULT:      -7.0      2.329      5.092
REMARK  Name = 
REMARK  4 active torsions:
REMARK  status: ('A' for Active; 'I' for Inactive)
REMARK    1  A    between atoms: C_1  and  C_2
REMARK    2  A    between atoms: C_2  and  C_3
REMARK    3  A    between atoms: C_3  and  C_4
REMARK    4  A    between atoms: N_13  and  C_14
REMARK                            x       y       z     vdW  Elec       q    Type
REMARK                         _______ _______ _______ _____ _____    ______ ____
ROOT
ATOM      1  C   UNL     1       5.198   4.661  17.958  0.00  0.00    +0.000 C 
ATOM      2  N   UNL     1       5.503   3.496  18.765  0.00  0.00    +0.000 N 
ATOM      3  C   UNL     1       4.450   3.117  19.562  0.00  0.00    +0.000 C 
ATOM      4  O   UNL     1       4.409   2.059  20.167  0.00  0.00    +0.000 OA
ATOM      5  N   UNL     1       3.511   4.096  19.530  0.00  0.00    +0.000 N 
ATOM      6  C   UNL     1       2.244   4.047  20.215  0.00  0.00    +0.000 C 
ATOM      7  C   UNL     1       3.909   5.112  18.697  0.00  0.00    +0.000 C 
ATOM      8  O   UNL     1       3.268   6.135  18.481  0.00  0.00    +0.000 OA
ATOM      9  H   UNL     1       6.236   2.829  18.571  0.00  0.00    +0.000 HD
ENDROOT
BRANCH   1  10
ATOM     10  C   UNL     1       6.332   5.678  17.876  0.00  0.00    +0.000 A 
ATOM     11  C   UNL     1       6.206   6.849  17.106  0.00  0.00    +0.000 A 
ATOM     12  C   UNL     1       7.077   7.928  17.286  0.00  0.00    +0.000 A 
ATOM     13  C   UNL     1       8.109   7.844  18.216  0.00  0.00    +0.000 A 
ATOM     14  C   UNL     1       8.302   6.665  18.927  0.00  0.00    +0.000 A 
ATOM     15  C   UNL     1       7.429   5.590  18.755  0.00  0.00    +0.000 A 
ENDBRANCH   1  10
BRANCH   1  17
ATOM     16  C   UNL     1       5.912   3.766  15.634  0.00  0.00    +0.000 C 
ATOM     17  C   UNL     1       4.765   4.230  16.529  0.00  0.00    +0.000 C 
ENDBRANCH   1  17
TORSDOF 2
ENDMDL
MODEL 9
REMARK VINA RESULT:      -6.9      2.099      3.645
REMARK  Name = 
REMARK  4 active torsions:
REMARK  status: ('A' for Active; 'I' for Inactive)
REMARK    1  A    between atoms: C_1  and  C_2
REMARK    2  A    between atoms: C_2  and  C_3
REMARK    3  A    between atoms: C_3  and  C_4
REMARK    4  A    between atoms: N_13  and  C_14
REMARK                            x       y       z     vdW  Elec       q    Type
REMARK                         _______ _______ _______ _____ _____    ______ ____
ROOT
ATOM      1  C   UNL     1       3.476   5.472  18.275  0.00  0.00    +0.000 C 
ATOM      2  N   UNL     1       4.345   4.967  19.321  0.00  0.00    +0.000 N 
ATOM      3  C   UNL     1       4.434   3.596  19.315  0.00  0.00    +0.000 C 
ATOM      4  O   UNL     1       5.254   2.972  19.967  0.00  0.00    +0.000 OA
ATOM      5  N   UNL     1       3.488   3.107  18.474  0.00  0.00    +0.000 N 
ATOM      6  C   UNL     1       3.293   1.710  18.177  0.00  0.00    +0.000 C 
ATOM      7  C   UNL     1       2.788   4.134  17.893  0.00  0.00    +0.000 C 
ATOM      8  O   UNL     1       1.864   3.994  17.099  0.00  0.00    +0.000 OA
ATOM      9  H   UNL     1       5.058   5.504  19.795  0.00  0.00    +0.000 HD
ENDROOT
BRANCH   1  10
ATOM     10  C   UNL     1       2.563   6.611  18.719  0.00  0.00    +0.000 A 
ATOM     11  C   UNL     1       2.131   6.721  20.053  0.00  0.00    +0.000 A 
ATOM     12  C   UNL     1       1.587   7.913  20.540  0.00  0.00    +0.000 A 
ATOM     13  C   UNL     1       1.437   9.008  19.694  0.00  0.00    +0.000 A 
ATOM     14  C   UNL     1       1.780   8.894  18.351  0.00  0.00    +0.000 A 
ATOM     15  C   UNL     1       2.330   7.706  17.865  0.00  0.00    +0.000 A 
ENDBRANCH   1  10
BRANCH   1  17
ATOM     16  C   UNL     1       5.739   6.354  17.369  0.00  0.00    +0.000 C 
ATOM     17  C   UNL     1       4.314   5.911  17.041  0.00  0.00    +0.000 C 
ENDBRANCH   1  17
TORSDOF 2
ENDMDL
