MODEL 1
REMARK VINA RESULT:      -8.1      0.000      0.000
REMARK  Name = 
REMARK  5 active torsions:
REMARK  status: ('A' for Active; 'I' for Inactive)
REMARK    1  A    between atoms: C_2  and  C_3
REMARK    2  A    between atoms: C_6  and  C_7
REMARK    3  A    between atoms: C_10  and  C_11
REMARK    4  A    between atoms: N_14  and  C_15
REMARK    5  A    between atoms: C_15  and  C_16
REMARK                            x       y       z     vdW  Elec       q    Type
REMARK                         _______ _______ _______ _____ _____    ______ ____
ROOT
ATOM      1  C   UNL     1       5.293   5.910  16.787  0.00  0.00    +0.000 C 
ATOM      2  C   UNL     1       6.140   4.707  17.327  0.00  0.00    +0.000 C 
ATOM      3  C   UNL     1       5.389   3.582  18.088  0.00  0.00    +0.000 C 
ATOM      4  N   UNL     1       4.333   2.979  17.280  0.00  0.00    +0.000 NA
ATOM      5  C   UNL     1       3.878   3.766  16.138  0.00  0.00    +0.000 C 
ATOM      6  C   UNL     1       4.911   4.840  15.711  0.00  0.00    +0.000 C 
ATOM      7  N   UNL     1       6.341   4.332  15.862  0.00  0.00    +0.000 NA
ATOM      8  H   UNL     1       7.029   4.914  15.388  0.00  0.00    +0.000 HD
ENDROOT
BRANCH   1  12
ATOM      9  C   UNL     1       2.240   8.028  19.273  0.00  0.00    +0.000 A 
ATOM     10  C   UNL     1       2.558   8.453  17.975  0.00  0.00    +0.000 A 
ATOM     11  C   UNL     1       3.511   7.779  17.194  0.00  0.00    +0.000 A 
ATOM     12  C   UNL     1       4.200   6.649  17.663  0.00  0.00    +0.000 A 
ATOM     13  C   UNL     1       3.803   6.184  18.926  0.00  0.00    +0.000 A 
ATOM     14  C   UNL     1       2.867   6.857  19.718  0.00  0.00    +0.000 A 
BRANCH   9  18
ATOM     15  C   UNL     1      -0.494  10.185  21.825  0.00  0.00    +0.000 A 
ATOM     16  C   UNL     1      -0.368  10.530  20.481  0.00  0.00    +0.000 A 
ATOM     17  C   UNL     1       0.512   9.829  19.652  0.00  0.00    +0.000 A 
ATOM     18  C   UNL     1       1.297   8.772  20.144  0.00  0.00    +0.000 A 
ATOM     19  C   UNL     1       1.160   8.449  21.509  0.00  0.00    +0.000 A 
ATOM     20  C   UNL     1       0.273   9.139  22.342  0.00  0.00    +0.000 A 
BRANCH  15  22
ATOM     21  N   UNL     1      -2.145  11.465  23.358  0.00  0.00    +0.000 NA
ATOM     22  C   UNL     1      -1.402  10.891  22.672  0.00  0.00    +0.000 C 
ENDBRANCH  15  22
ENDBRANCH   9  18
ENDBRANCH   1  12
BRANCH   4  23
ATOM     23  C   UNL     1       3.336   2.150  17.940  0.00  0.00    +0.000 C 
BRANCH  23  24
ATOM     24  C   UNL     1       2.669   2.714  19.174  0.00  0.00    +0.000 A 
ATOM     25  C   UNL     1       3.151   2.386  20.453  0.00  0.00    +0.000 A 
ATOM     26  C   UNL     1       2.480   2.807  21.602  0.00  0.00    +0.000 A 
ATOM     27  C   UNL     1       1.321   3.577  21.494  0.00  0.00    +0.000 A 
ATOM     28  C   UNL     1       0.847   3.931  20.236  0.00  0.00    +0.000 A 
ATOM     29  C   UNL     1       1.519   3.499  19.088  0.00  0.00    +0.000 A 
ATOM     30  F   UNL     1       1.011   3.826  17.891  0.00  0.00    +0.000 F 
ENDBRANCH  23  24
ENDBRANCH   4  23
TORSDOF 5
ENDMDL
MODEL 2
REMARK VINA RESULT:      -7.9      0.926      1.559
REMARK  Name = 
REMARK  5 active torsions:
REMARK  status: ('A' for Active; 'I' for Inactive)
REMARK    1  A    between atoms: C_2  and  C_3
REMARK    2  A    between atoms: C_6  and  C_7
REMARK    3  A    between atoms: C_10  and  C_11
REMARK    4  A    between atoms: N_14  and  C_15
REMARK    5  A    between atoms: C_15  and  C_16
REMARK                            x       y       z     vdW  Elec       q    Type
REMARK                         _______ _______ _______ _____ _____    ______ ____
ROOT
ATOM      1  C   UNL     1       5.254   5.626  16.835  0.00  0.00    +0.000 C 
ATOM      2  C   UNL     1       6.120   4.451  17.407  0.00  0.00    +0.000 C 
ATOM      3  C   UNL     1       5.393   3.363  18.241  0.00  0.00    +0.000 C 
ATOM      4  N   UNL     1       4.317   2.720  17.493  0.00  0.00    +0.000 NA
ATOM      5  C   UNL     1       3.827   3.451  16.328  0.00  0.00    +0.000 C 
ATOM      6  C   UNL     1       4.846   4.506  15.822  0.00  0.00    +0.000 C 
ATOM      7  N   UNL     1       6.281   4.007  15.957  0.00  0.00    +0.000 NA
ATOM      8  H   UNL     1       6.954   4.567  15.436  0.00  0.00    +0.000 HD
ENDROOT
BRANCH   1  12
ATOM      9  C   UNL     1       2.267   7.855  19.304  0.00  0.00    +0.000 A 
ATOM     10  C   UNL     1       2.564   8.232  17.986  0.00  0.00    +0.000 A 
ATOM     11  C   UNL     1       3.496   7.523  17.210  0.00  0.00    +0.000 A 
ATOM     12  C   UNL     1       4.185   6.404  17.705  0.00  0.00    +0.000 A 
ATOM     13  C   UNL     1       3.809   5.986  18.991  0.00  0.00    +0.000 A 
ATOM     14  C   UNL     1       2.893   6.695  19.777  0.00  0.00    +0.000 A 
BRANCH   9  18
ATOM     15  C   UNL     1      -0.420  10.140  21.792  0.00  0.00    +0.000 A 
ATOM     16  C   UNL     1       0.276   9.056  22.323  0.00  0.00    +0.000 A 
ATOM     17  C   UNL     1       1.151   8.319  21.520  0.00  0.00    +0.000 A 
ATOM     18  C   UNL     1       1.347   8.637  20.166  0.00  0.00    +0.000 A 
ATOM     19  C   UNL     1       0.623   9.730  19.649  0.00  0.00    +0.000 A 
ATOM     20  C   UNL     1      -0.247  10.479  20.449  0.00  0.00    +0.000 A 
BRANCH  15  22
ATOM     21  N   UNL     1      -2.030  11.520  23.282  0.00  0.00    +0.000 NA
ATOM     22  C   UNL     1      -1.306  10.903  22.613  0.00  0.00    +0.000 C 
ENDBRANCH  15  22
ENDBRANCH   9  18
ENDBRANCH   1  12
BRANCH   4  23
ATOM     23  C   UNL     1       3.341   1.923  18.219  0.00  0.00    +0.000 C 
BRANCH  23  24
ATOM     24  C   UNL     1       2.564   2.606  19.321  0.00  0.00    +0.000 A 
ATOM     25  C   UNL     1       1.359   3.270  19.031  0.00  0.00    +0.000 A 
ATOM     26  C   UNL     1       0.688   4.000  20.015  0.00  0.00    +0.000 A 
ATOM     27  C   UNL     1       1.201   4.066  21.310  0.00  0.00    +0.000 A 
ATOM     28  C   UNL     1       2.378   3.392  21.618  0.00  0.00    +0.000 A 
ATOM     29  C   UNL     1       3.050   2.670  20.627  0.00  0.00    +0.000 A 
ATOM     30  F   UNL     1       4.203   2.066  20.950  0.00  0.00    +0.000 F 
ENDBRANCH  23  24
ENDBRANCH   4  23
TORSDOF 5
ENDMDL
MODEL 3
REMARK VINA RESULT:      -7.9      2.320      4.395
REMARK  Name = 
REMARK  5 active torsions:
REMARK  status: ('A' for Active; 'I' for Inactive)
REMARK    1  A    between atoms: C_2  and  C_3
REMARK    2  A    between atoms: C_6  and  C_7
REMARK    3  A    between atoms: C_10  and  C_11
REMARK    4  A    between atoms: N_14  and  C_15
REMARK    5  A    between atoms: C_15  and  C_16
REMARK                            x       y       z     vdW  Elec       q    Type
REMARK                         _______ _______ _______ _____ _____    ______ ____
ROOT
ATOM      1  C   UNL     1       2.030   3.661  19.481  0.00  0.00    +0.000 C 
ATOM      2  C   UNL     1       1.946   2.751  18.208  0.00  0.00    +0.000 C 
ATOM      3  C   UNL     1       2.817   3.144  16.985  0.00  0.00    +0.000 C 
ATOM      4  N   UNL     1       4.236   3.212  17.316  0.00  0.00    +0.000 NA
ATOM      5  C   UNL     1       4.552   3.339  18.736  0.00  0.00    +0.000 C 
ATOM      6  C   UNL     1       3.380   2.886  19.645  0.00  0.00    +0.000 C 
ATOM      7  N   UNL     1       2.643   1.690  19.052  0.00  0.00    +0.000 NA
ATOM      8  H   UNL     1       2.021   1.230  19.715  0.00  0.00    +0.000 HD
ENDROOT
BRANCH   1  12
ATOM      9  C   UNL     1       1.815   8.122  19.275  0.00  0.00    +0.000 A 
ATOM     10  C   UNL     1       1.596   7.427  20.473  0.00  0.00    +0.000 A 
ATOM     11  C   UNL     1       1.674   6.026  20.536  0.00  0.00    +0.000 A 
ATOM     12  C   UNL     1       1.971   5.242  19.410  0.00  0.00    +0.000 A 
ATOM     13  C   UNL     1       2.277   5.957  18.242  0.00  0.00    +0.000 A 
ATOM     14  C   UNL     1       2.187   7.351  18.166  0.00  0.00    +0.000 A 
BRANCH   9  18
ATOM     15  C   UNL     1       1.352  12.404  18.992  0.00  0.00    +0.000 A 
ATOM     16  C   UNL     1       2.107  11.716  18.044  0.00  0.00    +0.000 A 
ATOM     17  C   UNL     1       2.253  10.329  18.131  0.00  0.00    +0.000 A 
ATOM     18  C   UNL     1       1.659   9.593  19.170  0.00  0.00    +0.000 A 
ATOM     19  C   UNL     1       0.910  10.313  20.122  0.00  0.00    +0.000 A 
ATOM     20  C   UNL     1       0.751  11.700  20.036  0.00  0.00    +0.000 A 
BRANCH  15  22
ATOM     21  N   UNL     1       1.055  14.973  18.820  0.00  0.00    +0.000 NA
ATOM     22  C   UNL     1       1.191  13.821  18.899  0.00  0.00    +0.000 C 
ENDBRANCH  15  22
ENDBRANCH   9  18
ENDBRANCH   1  12
BRANCH   4  23
ATOM     23  C   UNL     1       5.140   3.872  16.387  0.00  0.00    +0.000 C 
BRANCH  23  24
ATOM     24  C   UNL     1       6.042   4.952  16.940  0.00  0.00    +0.000 A 
ATOM     25  C   UNL     1       7.134   4.612  17.758  0.00  0.00    +0.000 A 
ATOM     26  C   UNL     1       7.909   5.602  18.366  0.00  0.00    +0.000 A 
ATOM     27  C   UNL     1       7.616   6.949  18.155  0.00  0.00    +0.000 A 
ATOM     28  C   UNL     1       6.555   7.300  17.327  0.00  0.00    +0.000 A 
ATOM     29  C   UNL     1       5.778   6.305  16.728  0.00  0.00    +0.000 A 
ATOM     30  F   UNL     1       4.738   6.680  15.968  0.00  0.00    +0.000 F 
ENDBRANCH  23  24
ENDBRANCH   4  23
TORSDOF 5
ENDMDL
MODEL 4
REMARK VINA RESULT:      -7.7      1.096      1.332
REMARK  Name = 
REMARK  5 active torsions:
REMARK  status: ('A' for Active; 'I' for Inactive)
REMARK    1  A    between atoms: C_2  and  C_3
REMARK    2  A    between atoms: C_6  and  C_7
REMARK    3  A    between atoms: C_10  and  C_11
REMARK    4  A    between atoms: N_14  and  C_15
REMARK    5  A    between atoms: C_15  and  C_16
REMARK                            x       y       z     vdW  Elec       q    Type
REMARK                         _______ _______ _______ _____ _____    ______ ____
ROOT
ATOM      1  C   UNL     1       4.979   6.167  16.715  0.00  0.00    +0.000 C 
ATOM      2  C   UNL     1       6.239   5.452  17.314  0.00  0.00    +0.000 C 
ATOM      3  C   UNL     1       6.029   4.543  18.553  0.00  0.00    +0.000 C 
ATOM      4  N   UNL     1       5.066   3.477  18.299  0.00  0.00    +0.000 NA
ATOM      5  C   UNL     1       4.176   3.681  17.160  0.00  0.00    +0.000 C 
ATOM      6  C   UNL     1       4.732   4.726  16.157  0.00  0.00    +0.000 C 
ATOM      7  N   UNL     1       6.248   4.628  16.031  0.00  0.00    +0.000 NA
ATOM      8  H   UNL     1       6.620   5.135  15.229  0.00  0.00    +0.000 HD
ENDROOT
BRANCH   1  12
ATOM      9  C   UNL     1       2.000   8.310  19.268  0.00  0.00    +0.000 A 
ATOM     10  C   UNL     1       2.401   8.813  18.021  0.00  0.00    +0.000 A 
ATOM     11  C   UNL     1       3.330   8.131  17.217  0.00  0.00    +0.000 A 
ATOM     12  C   UNL     1       3.912   6.916  17.613  0.00  0.00    +0.000 A 
ATOM     13  C   UNL     1       3.432   6.383  18.819  0.00  0.00    +0.000 A 
ATOM     14  C   UNL     1       2.519   7.062  19.633  0.00  0.00    +0.000 A 
BRANCH   9  18
ATOM     15  C   UNL     1      -0.659  10.465  21.899  0.00  0.00    +0.000 A 
ATOM     16  C   UNL     1      -0.550  10.831  20.559  0.00  0.00    +0.000 A 
ATOM     17  C   UNL     1       0.306  10.131  19.705  0.00  0.00    +0.000 A 
ATOM     18  C   UNL     1       1.083   9.054  20.166  0.00  0.00    +0.000 A 
ATOM     19  C   UNL     1       0.963   8.710  21.527  0.00  0.00    +0.000 A 
ATOM     20  C   UNL     1       0.101   9.400  22.386  0.00  0.00    +0.000 A 
BRANCH  15  22
ATOM     21  N   UNL     1      -2.259  11.750  23.481  0.00  0.00    +0.000 NA
ATOM     22  C   UNL     1      -1.542  11.171  22.772  0.00  0.00    +0.000 C 
ENDBRANCH  15  22
ENDBRANCH   9  18
ENDBRANCH   1  12
BRANCH   4  23
ATOM     23  C   UNL     1       4.517   2.747  19.431  0.00  0.00    +0.000 C 
BRANCH  23  24
ATOM     24  C   UNL     1       3.017   2.777  19.619  0.00  0.00    +0.000 A 
ATOM     25  C   UNL     1       2.182   2.026  18.772  0.00  0.00    +0.000 A 
ATOM     26  C   UNL     1       0.793   2.130  18.861  0.00  0.00    +0.000 A 
ATOM     27  C   UNL     1       0.212   2.974  19.807  0.00  0.00    +0.000 A 
ATOM     28  C   UNL     1       1.025   3.702  20.669  0.00  0.00    +0.000 A 
ATOM     29  C   UNL     1       2.416   3.600  20.570  0.00  0.00    +0.000 A 
ATOM     30  F   UNL     1       3.170   4.348  21.391  0.00  0.00    +0.000 F 
ENDBRANCH  23  24
ENDBRANCH   4  23
TORSDOF 5
ENDMDL
MODEL 5
REMARK VINA RESULT:      -7.7      0.917      1.391
REMARK  Name = 
REMARK  5 active torsions:
REMARK  status: ('A' for Active; 'I' for Inactive)
REMARK    1  A    between atoms: C_2  and  C_3
REMARK    2  A    between atoms: C_6  and  C_7
REMARK    3  A    between atoms: C_10  and  C_11
REMARK    4  A    between atoms: N_14  and  C_15
REMARK    5  A    between atoms: C_15  and  C_16
REMARK                            x       y       z     vdW  Elec       q    Type
REMARK                         _______ _______ _______ _____ _____    ______ ____
ROOT
ATOM      1  C   UNL     1       4.990   6.361  16.599  0.00  0.00    +0.000 C 
ATOM      2  C   UNL     1       6.265   5.647  17.167  0.00  0.00    +0.000 C 
ATOM      3  C   UNL     1       6.077   4.695  18.378  0.00  0.00    +0.000 C 
ATOM      4  N   UNL     1       5.128   3.623  18.095  0.00  0.00    +0.000 NA
ATOM      5  C   UNL     1       4.228   3.850  16.969  0.00  0.00    +0.000 C 
ATOM      6  C   UNL     1       4.760   4.935  15.997  0.00  0.00    +0.000 C 
ATOM      7  N   UNL     1       6.277   4.865  15.858  0.00  0.00    +0.000 NA
ATOM      8  H   UNL     1       6.636   5.403  15.070  0.00  0.00    +0.000 HD
ENDROOT
BRANCH   1  12
ATOM      9  C   UNL     1       1.997   8.376  19.239  0.00  0.00    +0.000 A 
ATOM     10  C   UNL     1       2.366   8.914  17.997  0.00  0.00    +0.000 A 
ATOM     11  C   UNL     1       3.301   8.273  17.167  0.00  0.00    +0.000 A 
ATOM     12  C   UNL     1       3.918   7.064  17.528  0.00  0.00    +0.000 A 
ATOM     13  C   UNL     1       3.469   6.495  18.729  0.00  0.00    +0.000 A 
ATOM     14  C   UNL     1       2.551   7.134  19.570  0.00  0.00    +0.000 A 
BRANCH   9  18
ATOM     15  C   UNL     1      -0.696  10.428  21.916  0.00  0.00    +0.000 A 
ATOM     16  C   UNL     1       0.002   9.304  22.350  0.00  0.00    +0.000 A 
ATOM     17  C   UNL     1       0.879   8.641  21.487  0.00  0.00    +0.000 A 
ATOM     18  C   UNL     1       1.074   9.078  20.165  0.00  0.00    +0.000 A 
ATOM     19  C   UNL     1       0.349  10.210  19.746  0.00  0.00    +0.000 A 
ATOM     20  C   UNL     1      -0.523  10.884  20.608  0.00  0.00    +0.000 A 
BRANCH  15  22
ATOM     21  N   UNL     1      -2.311  11.671  23.518  0.00  0.00    +0.000 NA
ATOM     22  C   UNL     1      -1.584  11.114  22.801  0.00  0.00    +0.000 C 
ENDBRANCH  15  22
ENDBRANCH   9  18
ENDBRANCH   1  12
BRANCH   4  23
ATOM     23  C   UNL     1       4.598   2.848  19.207  0.00  0.00    +0.000 C 
BRANCH  23  24
ATOM     24  C   UNL     1       3.123   2.981  19.507  0.00  0.00    +0.000 A 
ATOM     25  C   UNL     1       2.689   3.729  20.616  0.00  0.00    +0.000 A 
ATOM     26  C   UNL     1       1.340   3.768  20.970  0.00  0.00    +0.000 A 
ATOM     27  C   UNL     1       0.396   3.074  20.213  0.00  0.00    +0.000 A 
ATOM     28  C   UNL     1       0.806   2.351  19.098  0.00  0.00    +0.000 A 
ATOM     29  C   UNL     1       2.160   2.308  18.753  0.00  0.00    +0.000 A 
ATOM     30  F   UNL     1       2.525   1.569  17.695  0.00  0.00    +0.000 F 
ENDBRANCH  23  24
ENDBRANCH   4  23
TORSDOF 5
ENDMDL
MODEL 6
REMARK VINA RESULT:      -7.7      2.442      4.565
REMARK  Name = 
REMARK  5 active torsions:
REMARK  status: ('A' for Active; 'I' for Inactive)
REMARK    1  A    between atoms: C_2  and  C_3
REMARK    2  A    between atoms: C_6  and  C_7
REMARK    3  A    between atoms: C_10  and  C_11
REMARK    4  A    between atoms: N_14  and  C_15
REMARK    5  A    between atoms: C_15  and  C_16
REMARK                            x       y       z     vdW  Elec       q    Type
REMARK                         _______ _______ _______ _____ _____    ______ ____
ROOT
ATOM      1  C   UNL     1       2.086   3.575  19.424  0.00  0.00    +0.000 C 
ATOM      2  C   UNL     1       2.064   2.669  18.145  0.00  0.00    +0.000 C 
ATOM      3  C   UNL     1       2.977   3.078  16.959  0.00  0.00    +0.000 C 
ATOM      4  N   UNL     1       4.381   3.162  17.346  0.00  0.00    +0.000 NA
ATOM      5  C   UNL     1       4.640   3.287  18.778  0.00  0.00    +0.000 C 
ATOM      6  C   UNL     1       3.438   2.817  19.638  0.00  0.00    +0.000 C 
ATOM      7  N   UNL     1       2.740   1.613  19.013  0.00  0.00    +0.000 NA
ATOM      8  H   UNL     1       2.098   1.143  19.649  0.00  0.00    +0.000 HD
ENDROOT
BRANCH   1  12
ATOM      9  C   UNL     1       1.823   8.034  19.231  0.00  0.00    +0.000 A 
ATOM     10  C   UNL     1       1.738   7.341  20.448  0.00  0.00    +0.000 A 
ATOM     11  C   UNL     1       1.831   5.941  20.505  0.00  0.00    +0.000 A 
ATOM     12  C   UNL     1       2.009   5.155  19.355  0.00  0.00    +0.000 A 
ATOM     13  C   UNL     1       2.184   5.869  18.160  0.00  0.00    +0.000 A 
ATOM     14  C   UNL     1       2.077   7.262  18.091  0.00  0.00    +0.000 A 
BRANCH   9  18
ATOM     15  C   UNL     1       1.303  12.312  18.988  0.00  0.00    +0.000 A 
ATOM     16  C   UNL     1       2.065  11.643  18.033  0.00  0.00    +0.000 A 
ATOM     17  C   UNL     1       2.230  10.257  18.107  0.00  0.00    +0.000 A 
ATOM     18  C   UNL     1       1.647   9.504  19.140  0.00  0.00    +0.000 A 
ATOM     19  C   UNL     1       0.889  10.205  20.100  0.00  0.00    +0.000 A 
ATOM     20  C   UNL     1       0.712  11.591  20.027  0.00  0.00    +0.000 A 
BRANCH  15  22
ATOM     21  N   UNL     1       0.980  14.879  18.840  0.00  0.00    +0.000 NA
ATOM     22  C   UNL     1       1.123  13.727  18.909  0.00  0.00    +0.000 C 
ENDBRANCH  15  22
ENDBRANCH   9  18
ENDBRANCH   1  12
BRANCH   4  23
ATOM     23  C   UNL     1       5.312   3.837  16.455  0.00  0.00    +0.000 C 
BRANCH  23  24
ATOM     24  C   UNL     1       5.906   5.144  16.928  0.00  0.00    +0.000 A 
ATOM     25  C   UNL     1       5.216   6.352  16.721  0.00  0.00    +0.000 A 
ATOM     26  C   UNL     1       5.799   7.576  17.051  0.00  0.00    +0.000 A 
ATOM     27  C   UNL     1       7.077   7.616  17.609  0.00  0.00    +0.000 A 
ATOM     28  C   UNL     1       7.761   6.428  17.845  0.00  0.00    +0.000 A 
ATOM     29  C   UNL     1       7.175   5.205  17.504  0.00  0.00    +0.000 A 
ATOM     30  F   UNL     1       7.879   4.082  17.709  0.00  0.00    +0.000 F 
ENDBRANCH  23  24
ENDBRANCH   4  23
TORSDOF 5
ENDMDL
MODEL 7
REMARK VINA RESULT:      -7.6      3.397      8.883
REMARK  Name = 
REMARK  5 active torsions:
REMARK  status: ('A' for Active; 'I' for Inactive)
REMARK    1  A    between atoms: C_2  and  C_3
REMARK    2  A    between atoms: C_6  and  C_7
REMARK    3  A    between atoms: C_10  and  C_11
REMARK    4  A    between atoms: N_14  and  C_15
REMARK    5  A    between atoms: C_15  and  C_16
REMARK                            x       y       z     vdW  Elec       q    Type
REMARK                         _______ _______ _______ _____ _____    ______ ____
ROOT
ATOM      1  C   UNL     1       0.521  12.596  20.923  0.00  0.00    +0.000 C 
ATOM      2  C   UNL     1      -0.156  13.585  19.912  0.00  0.00    +0.000 C 
ATOM      3  C   UNL     1      -1.387  13.072  19.120  0.00  0.00    +0.000 C 
ATOM      4  N   UNL     1      -2.463  12.624  19.998  0.00  0.00    +0.000 NA
ATOM      5  C   UNL     1      -2.076  12.322  21.374  0.00  0.00    +0.000 C 
ATOM      6  C   UNL     1      -0.734  12.991  21.770  0.00  0.00    +0.000 C 
ATOM      7  N   UNL     1      -0.592  14.374  21.142  0.00  0.00    +0.000 NA
ATOM      8  H   UNL     1       0.159  14.928  21.553  0.00  0.00    +0.000 HD
ENDROOT
BRANCH   1  12
ATOM      9  C   UNL     1       1.493   8.352  19.908  0.00  0.00    +0.000 A 
ATOM     10  C   UNL     1       1.151   8.739  21.212  0.00  0.00    +0.000 A 
ATOM     11  C   UNL     1       0.837  10.072  21.525  0.00  0.00    +0.000 A 
ATOM     12  C   UNL     1       0.849  11.091  20.559  0.00  0.00    +0.000 A 
ATOM     13  C   UNL     1       1.103  10.670  19.245  0.00  0.00    +0.000 A 
ATOM     14  C   UNL     1       1.433   9.348  18.926  0.00  0.00    +0.000 A 
BRANCH   9  18
ATOM     15  C   UNL     1       2.683   4.314  18.954  0.00  0.00    +0.000 A 
ATOM     16  C   UNL     1       2.801   5.323  18.001  0.00  0.00    +0.000 A 
ATOM     17  C   UNL     1       2.421   6.632  18.310  0.00  0.00    +0.000 A 
ATOM     18  C   UNL     1       1.906   6.967  19.574  0.00  0.00    +0.000 A 
ATOM     19  C   UNL     1       1.787   5.927  20.517  0.00  0.00    +0.000 A 
ATOM     20  C   UNL     1       2.173   4.616  20.218  0.00  0.00    +0.000 A 
BRANCH  15  22
ATOM     21  N   UNL     1       3.405   1.890  18.388  0.00  0.00    +0.000 NA
ATOM     22  C   UNL     1       3.081   2.977  18.645  0.00  0.00    +0.000 C 
ENDBRANCH  15  22
ENDBRANCH   9  18
ENDBRANCH   1  12
BRANCH   4  23
ATOM     23  C   UNL     1      -3.539  11.824  19.434  0.00  0.00    +0.000 C 
BRANCH  23  24
ATOM     24  C   UNL     1      -3.282  11.148  18.107  0.00  0.00    +0.000 A 
ATOM     25  C   UNL     1      -2.243  10.209  17.979  0.00  0.00    +0.000 A 
ATOM     26  C   UNL     1      -1.922   9.660  16.737  0.00  0.00    +0.000 A 
ATOM     27  C   UNL     1      -2.644  10.026  15.601  0.00  0.00    +0.000 A 
ATOM     28  C   UNL     1      -3.692  10.934  15.716  0.00  0.00    +0.000 A 
ATOM     29  C   UNL     1      -4.003  11.487  16.962  0.00  0.00    +0.000 A 
ATOM     30  F   UNL     1      -4.994  12.389  17.029  0.00  0.00    +0.000 F 
ENDBRANCH  23  24
ENDBRANCH   4  23
TORSDOF 5
ENDMDL
MODEL 8
REMARK VINA RESULT:      -7.6      3.115      8.785
REMARK  Name = 
REMARK  5 active torsions:
REMARK  status: ('A' for Active; 'I' for Inactive)
REMARK    1  A    between atoms: C_2  and  C_3
REMARK    2  A    between atoms: C_6  and  C_7
REMARK    3  A    between atoms: C_10  and  C_11
REMARK    4  A    between atoms: N_14  and  C_15
REMARK    5  A    between atoms: C_15  and  C_16
REMARK                            x       y       z     vdW  Elec       q    Type
REMARK                         _______ _______ _______ _____ _____    ______ ____
ROOT
ATOM      1  C   UNL     1       0.708  12.548  20.729  0.00  0.00    +0.000 C 
ATOM      2  C   UNL     1       0.040  13.525  19.701  0.00  0.00    +0.000 C 
ATOM      3  C   UNL     1      -1.211  13.018  18.936  0.00  0.00    +0.000 C 
ATOM      4  N   UNL     1      -2.285  12.616  19.839  0.00  0.00    +0.000 NA
ATOM      5  C   UNL     1      -1.888  12.343  21.217  0.00  0.00    +0.000 C 
ATOM      6  C   UNL     1      -0.528  12.992  21.580  0.00  0.00    +0.000 C 
ATOM      7  N   UNL     1      -0.364  14.354  20.915  0.00  0.00    +0.000 NA
ATOM      8  H   UNL     1       0.404  14.903  21.301  0.00  0.00    +0.000 HD
ENDROOT
BRANCH   1  12
ATOM      9  C   UNL     1       1.576   8.258  19.819  0.00  0.00    +0.000 A 
ATOM     10  C   UNL     1       1.138   8.669  21.086  0.00  0.00    +0.000 A 
ATOM     11  C   UNL     1       0.857  10.017  21.365  0.00  0.00    +0.000 A 
ATOM     12  C   UNL     1       1.000  11.027  20.400  0.00  0.00    +0.000 A 
ATOM     13  C   UNL     1       1.350  10.586  19.115  0.00  0.00    +0.000 A 
ATOM     14  C   UNL     1       1.647   9.248  18.831  0.00  0.00    +0.000 A 
BRANCH   9  18
ATOM     15  C   UNL     1       2.688   4.178  18.951  0.00  0.00    +0.000 A 
ATOM     16  C   UNL     1       2.216   4.522  20.215  0.00  0.00    +0.000 A 
ATOM     17  C   UNL     1       1.850   5.842  20.496  0.00  0.00    +0.000 A 
ATOM     18  C   UNL     1       1.954   6.853  19.527  0.00  0.00    +0.000 A 
ATOM     19  C   UNL     1       2.444   6.483  18.259  0.00  0.00    +0.000 A 
ATOM     20  C   UNL     1       2.803   5.162  17.967  0.00  0.00    +0.000 A 
BRANCH  15  22
ATOM     21  N   UNL     1       3.350   1.731  18.413  0.00  0.00    +0.000 NA
ATOM     22  C   UNL     1       3.051   2.828  18.657  0.00  0.00    +0.000 C 
ENDBRANCH  15  22
ENDBRANCH   9  18
ENDBRANCH   1  12
BRANCH   4  23
ATOM     23  C   UNL     1      -3.385  11.826  19.309  0.00  0.00    +0.000 C 
BRANCH  23  24
ATOM     24  C   UNL     1      -3.187  11.173  17.960  0.00  0.00    +0.000 A 
ATOM     25  C   UNL     1      -3.947  11.589  16.853  0.00  0.00    +0.000 A 
ATOM     26  C   UNL     1      -3.856  10.922  15.630  0.00  0.00    +0.000 A 
ATOM     27  C   UNL     1      -2.990   9.837  15.486  0.00  0.00    +0.000 A 
ATOM     28  C   UNL     1      -2.212   9.432  16.565  0.00  0.00    +0.000 A 
ATOM     29  C   UNL     1      -2.314  10.098  17.790  0.00  0.00    +0.000 A 
ATOM     30  F   UNL     1      -1.578   9.654  18.820  0.00  0.00    +0.000 F 
ENDBRANCH  23  24
ENDBRANCH   4  23
TORSDOF 5
ENDMDL
MODEL 9
REMARK VINA RESULT:      -7.5      0.854      1.293
REMARK  Name = 
REMARK  5 active torsions:
REMARK  status: ('A' for Active; 'I' for Inactive)
REMARK    1  A    between atoms: C_2  and  C_3
REMARK    2  A    between atoms: C_6  and  C_7
REMARK    3  A    between atoms: C_10  and  C_11
REMARK    4  A    between atoms: N_14  and  C_15
REMARK    5  A    between atoms: C_15  and  C_16
REMARK                            x       y       z     vdW  Elec       q    Type
REMARK                         _______ _______ _______ _____ _____    ______ ____
ROOT
ATOM      1  C   UNL     1       5.697   5.753  17.162  0.00  0.00    +0.000 C 
ATOM      2  C   UNL     1       6.257   4.519  17.950  0.00  0.00    +0.000 C 
ATOM      3  C   UNL     1       5.232   3.505  18.522  0.00  0.00    +0.000 C 
ATOM      4  N   UNL     1       4.373   2.942  17.484  0.00  0.00    +0.000 NA
ATOM      5  C   UNL     1       4.308   3.696  16.235  0.00  0.00    +0.000 C 
ATOM      6  C   UNL     1       5.513   4.657  16.061  0.00  0.00    +0.000 C 
ATOM      7  N   UNL     1       6.799   4.044  16.606  0.00  0.00    +0.000 NA
ATOM      8  H   UNL     1       7.639   4.541  16.311  0.00  0.00    +0.000 HD
ENDROOT
BRANCH   1  12
ATOM      9  C   UNL     1       2.310   8.252  18.669  0.00  0.00    +0.000 A 
ATOM     10  C   UNL     1       2.949   8.532  17.452  0.00  0.00    +0.000 A 
ATOM     11  C   UNL     1       4.007   7.739  16.978  0.00  0.00    +0.000 A 
ATOM     12  C   UNL     1       4.486   6.627  17.690  0.00  0.00    +0.000 A 
ATOM     13  C   UNL     1       3.776   6.308  18.857  0.00  0.00    +0.000 A 
ATOM     14  C   UNL     1       2.732   7.101  19.346  0.00  0.00    +0.000 A 
BRANCH   9  18
ATOM     15  C   UNL     1      -0.794  10.790  20.268  0.00  0.00    +0.000 A 
ATOM     16  C   UNL     1      -0.017  10.010  21.122  0.00  0.00    +0.000 A 
ATOM     17  C   UNL     1       0.992   9.192  20.606  0.00  0.00    +0.000 A 
ATOM     18  C   UNL     1       1.246   9.124  19.226  0.00  0.00    +0.000 A 
ATOM     19  C   UNL     1       0.440   9.914  18.382  0.00  0.00    +0.000 A 
ATOM     20  C   UNL     1      -0.566  10.743  18.892  0.00  0.00    +0.000 A 
BRANCH  15  22
ATOM     21  N   UNL     1      -2.656  12.324  21.216  0.00  0.00    +0.000 NA
ATOM     22  C   UNL     1      -1.819  11.636  20.793  0.00  0.00    +0.000 C 
ENDBRANCH  15  22
ENDBRANCH   9  18
ENDBRANCH   1  12
BRANCH   4  23
ATOM     23  C   UNL     1       3.166   2.237  17.883  0.00  0.00    +0.000 C 
BRANCH  23  24
ATOM     24  C   UNL     1       2.486   2.684  19.157  0.00  0.00    +0.000 A 
ATOM     25  C   UNL     1       2.843   2.110  20.390  0.00  0.00    +0.000 A 
ATOM     26  C   UNL     1       2.148   2.432  21.558  0.00  0.00    +0.000 A 
ATOM     27  C   UNL     1       1.095   3.345  21.518  0.00  0.00    +0.000 A 
ATOM     28  C   UNL     1       0.748   3.941  20.310  0.00  0.00    +0.000 A 
ATOM     29  C   UNL     1       1.441   3.609  19.142  0.00  0.00    +0.000 A 
ATOM     30  F   UNL     1       1.054   4.173  17.988  0.00  0.00    +0.000 F 
ENDBRANCH  23  24
ENDBRANCH   4  23
TORSDOF 5
ENDMDL
