MODEL 1
REMARK VINA RESULT:      -8.1      0.000      0.000
REMARK  Name = 
REMARK  12 active torsions:
REMARK  status: ('A' for Active; 'I' for Inactive)
REMARK    1  A    between atoms: C_1  and  C_2
REMARK    2  A    between atoms: C_6  and  C_7
REMARK    3  A    between atoms: N_10  and  C_11
REMARK    4  A    between atoms: C_11  and  C_12
REMARK    5  A    between atoms: C_12  and  C_13
REMARK    6  A    between atoms: N_15  and  C_16
REMARK    7  A    between atoms: C_16  and  C_17
REMARK    8  A    between atoms: C_17  and  C_18
REMARK    9  A    between atoms: C_18  and  N_19
REMARK   10  A    between atoms: N_19  and  C_20
REMARK   11  A    between atoms: N_19  and  C_21
REMARK   12  A    between atoms: C_29  and  C_30
REMARK                            x       y       z     vdW  Elec       q    Type
REMARK                         _______ _______ _______ _____ _____    ______ ____
ROOT
ATOM      1  C   UNL     1       1.538   9.823  18.433  0.00  0.00    +0.000 C 
ENDROOT
BRANCH   1   2
ATOM      2  C   UNL     1       2.232   8.568  17.949  0.00  0.00    +0.000 C 
ATOM      3  O   UNL     1       2.943   8.552  16.950  0.00  0.00    +0.000 OA
ATOM      4  N   UNL     1       2.029   7.463  18.746  0.00  0.00    +0.000 N 
ATOM      5  H   UNL     1       1.522   7.561  19.616  0.00  0.00    +0.000 HD
BRANCH   4   6
ATOM      6  C   UNL     1       2.671   6.190  18.455  0.00  0.00    +0.000 C 
BRANCH   6   7
ATOM      7  C   UNL     1       3.719   5.854  19.511  0.00  0.00    +0.000 C 
BRANCH   7   8
ATOM      8  C   UNL     1       4.525   4.599  19.163  0.00  0.00    +0.000 C 
BRANCH   8   9
ATOM      9  N   UNL     1       3.787   3.699  18.252  0.00  0.00    +0.000 NA
ATOM     10  C   UNL     1       4.484   3.514  16.988  0.00  0.00    +0.000 C 
BRANCH   9  11
ATOM     11  C   UNL     1       3.252   2.489  18.925  0.00  0.00    +0.000 C 
ATOM     12  C   UNL     1       3.608   2.340  20.427  0.00  0.00    +0.000 C 
ATOM     13  C   UNL     1       2.660   3.031  21.416  0.00  0.00    +0.000 C 
ATOM     14  C   UNL     1       1.181   2.861  21.081  0.00  0.00    +0.000 C 
ATOM     15  C   UNL     1       0.871   3.080  19.606  0.00  0.00    +0.000 C 
ATOM     16  C   UNL     1       1.752   2.194  18.739  0.00  0.00    +0.000 C 
ENDBRANCH   9  11
ENDBRANCH   8   9
ENDBRANCH   7   8
ENDBRANCH   6   7
ENDBRANCH   4   6
ENDBRANCH   1   2
BRANCH   1  17
ATOM     17  C   UNL     1       0.761   9.502  19.709  0.00  0.00    +0.000 C 
BRANCH  17  27
ATOM     18  C   UNL     1      -4.830  11.649  16.770  0.00  0.00    +0.000 C 
ATOM     19  C   UNL     1      -3.574  11.386  17.559  0.00  0.00    +0.000 A 
ATOM     20  C   UNL     1      -3.375  12.054  18.774  0.00  0.00    +0.000 A 
ATOM     21  C   UNL     1      -2.272  11.781  19.589  0.00  0.00    +0.000 A 
ATOM     22  N   UNL     1      -2.213  12.425  20.830  0.00  0.00    +0.000 NA
ATOM     23  C   UNL     1      -1.242  12.124  21.634  0.00  0.00    +0.000 A 
ATOM     24  C   UNL     1      -1.188  12.736  23.005  0.00  0.00    +0.000 C 
ATOM     25  C   UNL     1      -0.137  11.143  21.283  0.00  0.00    +0.000 A 
ATOM     26  O   UNL     1       0.761  10.955  22.097  0.00  0.00    +0.000 OA
ATOM     27  N   UNL     1      -0.234  10.521  20.042  0.00  0.00    +0.000 N 
ATOM     28  C   UNL     1      -1.316  10.836  19.169  0.00  0.00    +0.000 A 
ATOM     29  C   UNL     1      -1.488  10.210  17.925  0.00  0.00    +0.000 A 
ATOM     30  C   UNL     1      -2.620  10.450  17.129  0.00  0.00    +0.000 A 
ATOM     31  C   UNL     1      -2.809   9.655  15.868  0.00  0.00    +0.000 C 
ENDBRANCH  17  27
ENDBRANCH   1  17
TORSDOF 8
ENDMDL
MODEL 2
REMARK VINA RESULT:      -7.9      5.740      8.916
REMARK  Name = 
REMARK  12 active torsions:
REMARK  status: ('A' for Active; 'I' for Inactive)
REMARK    1  A    between atoms: C_1  and  C_2
REMARK    2  A    between atoms: C_6  and  C_7
REMARK    3  A    between atoms: N_10  and  C_11
REMARK    4  A    between atoms: C_11  and  C_12
REMARK    5  A    between atoms: C_12  and  C_13
REMARK    6  A    between atoms: N_15  and  C_16
REMARK    7  A    between atoms: C_16  and  C_17
REMARK    8  A    between atoms: C_17  and  C_18
REMARK    9  A    between atoms: C_18  and  N_19
REMARK   10  A    between atoms: N_19  and  C_20
REMARK   11  A    between atoms: N_19  and  C_21
REMARK   12  A    between atoms: C_29  and  C_30
REMARK                            x       y       z     vdW  Elec       q    Type
REMARK                         _______ _______ _______ _____ _____    ______ ____
ROOT
ATOM      1  C   UNL     1       4.806   6.633  16.789  0.00  0.00    +0.000 C 
ENDROOT
BRANCH   1   2
ATOM      2  C   UNL     1       6.165   6.726  17.447  0.00  0.00    +0.000 C 
ATOM      3  O   UNL     1       6.655   5.799  18.083  0.00  0.00    +0.000 OA
ATOM      4  N   UNL     1       6.818   7.921  17.237  0.00  0.00    +0.000 N 
ATOM      5  H   UNL     1       6.413   8.608  16.615  0.00  0.00    +0.000 HD
BRANCH   4   6
ATOM      6  C   UNL     1       8.158   8.154  17.751  0.00  0.00    +0.000 C 
BRANCH   6   7
ATOM      7  C   UNL     1       8.342   9.612  18.159  0.00  0.00    +0.000 C 
BRANCH   7   8
ATOM      8  C   UNL     1       9.382   9.788  19.270  0.00  0.00    +0.000 C 
BRANCH   8   9
ATOM      9  N   UNL     1       9.600  11.211  19.605  0.00  0.00    +0.000 NA
ATOM     10  C   UNL     1       9.072  11.546  20.919  0.00  0.00    +0.000 C 
BRANCH   9  11
ATOM     11  C   UNL     1      10.963  11.692  19.269  0.00  0.00    +0.000 C 
ATOM     12  C   UNL     1      11.284  11.808  17.756  0.00  0.00    +0.000 C 
ATOM     13  C   UNL     1      10.897  13.132  17.084  0.00  0.00    +0.000 C 
ATOM     14  C   UNL     1      11.229  14.369  17.913  0.00  0.00    +0.000 C 
ATOM     15  C   UNL     1      10.837  14.233  19.378  0.00  0.00    +0.000 C 
ATOM     16  C   UNL     1      11.443  12.973  19.977  0.00  0.00    +0.000 C 
ENDBRANCH   9  11
ENDBRANCH   8   9
ENDBRANCH   7   8
ENDBRANCH   6   7
ENDBRANCH   4   6
ENDBRANCH   1   2
BRANCH   1  17
ATOM     17  C   UNL     1       4.189   5.272  17.109  0.00  0.00    +0.000 C 
BRANCH  17  27
ATOM     18  C   UNL     1       0.370   9.555  20.511  0.00  0.00    +0.000 C 
ATOM     19  C   UNL     1       1.273   8.479  19.968  0.00  0.00    +0.000 A 
ATOM     20  C   UNL     1       1.421   7.283  20.685  0.00  0.00    +0.000 A 
ATOM     21  C   UNL     1       2.175   6.217  20.184  0.00  0.00    +0.000 A 
ATOM     22  N   UNL     1       2.181   5.029  20.923  0.00  0.00    +0.000 NA
ATOM     23  C   UNL     1       2.806   4.003  20.436  0.00  0.00    +0.000 A 
ATOM     24  C   UNL     1       2.770   2.689  21.163  0.00  0.00    +0.000 C 
ATOM     25  C   UNL     1       3.573   4.035  19.126  0.00  0.00    +0.000 A 
ATOM     26  O   UNL     1       4.167   3.023  18.769  0.00  0.00    +0.000 OA
ATOM     27  N   UNL     1       3.540   5.233  18.418  0.00  0.00    +0.000 N 
ATOM     28  C   UNL     1       2.831   6.352  18.945  0.00  0.00    +0.000 A 
ATOM     29  C   UNL     1       2.728   7.571  18.257  0.00  0.00    +0.000 A 
ATOM     30  C   UNL     1       1.932   8.624  18.738  0.00  0.00    +0.000 A 
ATOM     31  C   UNL     1       1.761   9.856  17.894  0.00  0.00    +0.000 C 
ENDBRANCH  17  27
ENDBRANCH   1  17
TORSDOF 8
ENDMDL
MODEL 3
REMARK VINA RESULT:      -7.7      1.807      3.224
REMARK  Name = 
REMARK  12 active torsions:
REMARK  status: ('A' for Active; 'I' for Inactive)
REMARK    1  A    between atoms: C_1  and  C_2
REMARK    2  A    between atoms: C_6  and  C_7
REMARK    3  A    between atoms: N_10  and  C_11
REMARK    4  A    between atoms: C_11  and  C_12
REMARK    5  A    between atoms: C_12  and  C_13
REMARK    6  A    between atoms: N_15  and  C_16
REMARK    7  A    between atoms: C_16  and  C_17
REMARK    8  A    between atoms: C_17  and  C_18
REMARK    9  A    between atoms: C_18  and  N_19
REMARK   10  A    between atoms: N_19  and  C_20
REMARK   11  A    between atoms: N_19  and  C_21
REMARK   12  A    between atoms: C_29  and  C_30
REMARK                            x       y       z     vdW  Elec       q    Type
REMARK                         _______ _______ _______ _____ _____    ______ ____
ROOT
ATOM      1  C   UNL     1       0.962   9.768  18.188  0.00  0.00    +0.000 C 
ENDROOT
BRANCH   1   2
ATOM      2  C   UNL     1       1.499   8.749  19.169  0.00  0.00    +0.000 C 
ATOM      3  O   UNL     1       1.418   8.898  20.384  0.00  0.00    +0.000 OA
ATOM      4  N   UNL     1       2.048   7.629  18.583  0.00  0.00    +0.000 N 
ATOM      5  H   UNL     1       1.990   7.512  17.580  0.00  0.00    +0.000 HD
BRANCH   4   6
ATOM      6  C   UNL     1       2.558   6.527  19.384  0.00  0.00    +0.000 C 
BRANCH   6   7
ATOM      7  C   UNL     1       2.357   5.195  18.670  0.00  0.00    +0.000 C 
BRANCH   7   8
ATOM      8  C   UNL     1       3.476   4.886  17.670  0.00  0.00    +0.000 C 
BRANCH   8   9
ATOM      9  N   UNL     1       4.778   4.685  18.340  0.00  0.00    +0.000 NA
ATOM     10  C   UNL     1       4.772   3.507  19.196  0.00  0.00    +0.000 C 
BRANCH   9  11
ATOM     11  C   UNL     1       5.941   4.870  17.436  0.00  0.00    +0.000 C 
ATOM     12  C   UNL     1       5.908   6.142  16.548  0.00  0.00    +0.000 C 
ATOM     13  C   UNL     1       6.483   7.418  17.178  0.00  0.00    +0.000 C 
ATOM     14  C   UNL     1       7.781   7.200  17.949  0.00  0.00    +0.000 C 
ATOM     15  C   UNL     1       7.742   5.977  18.856  0.00  0.00    +0.000 C 
ATOM     16  C   UNL     1       7.340   4.740  18.065  0.00  0.00    +0.000 C 
ENDBRANCH   9  11
ENDBRANCH   8   9
ENDBRANCH   7   8
ENDBRANCH   6   7
ENDBRANCH   4   6
ENDBRANCH   1   2
BRANCH   1  17
ATOM     17  C   UNL     1       1.088  11.163  18.797  0.00  0.00    +0.000 C 
BRANCH  17  27
ATOM     18  C   UNL     1      -5.340  11.493  17.044  0.00  0.00    +0.000 C 
ATOM     19  C   UNL     1      -3.952  11.585  17.621  0.00  0.00    +0.000 A 
ATOM     20  C   UNL     1      -3.788  11.991  18.952  0.00  0.00    +0.000 A 
ATOM     21  C   UNL     1      -2.532  12.008  19.565  0.00  0.00    +0.000 A 
ATOM     22  N   UNL     1      -2.483  12.330  20.926  0.00  0.00    +0.000 NA
ATOM     23  C   UNL     1      -1.338  12.273  21.532  0.00  0.00    +0.000 A 
ATOM     24  C   UNL     1      -1.258  12.536  23.009  0.00  0.00    +0.000 C 
ATOM     25  C   UNL     1      -0.037  11.918  20.832  0.00  0.00    +0.000 A 
ATOM     26  O   UNL     1       1.001  11.929  21.484  0.00  0.00    +0.000 OA
ATOM     27  N   UNL     1      -0.128  11.600  19.481  0.00  0.00    +0.000 N 
ATOM     28  C   UNL     1      -1.393  11.641  18.822  0.00  0.00    +0.000 A 
ATOM     29  C   UNL     1      -1.552  11.290  17.473  0.00  0.00    +0.000 A 
ATOM     30  C   UNL     1      -2.820  11.228  16.872  0.00  0.00    +0.000 A 
ATOM     31  C   UNL     1      -2.936  10.723  15.461  0.00  0.00    +0.000 C 
ENDBRANCH  17  27
ENDBRANCH   1  17
TORSDOF 8
ENDMDL
MODEL 4
REMARK VINA RESULT:      -7.6      1.097      1.237
REMARK  Name = 
REMARK  12 active torsions:
REMARK  status: ('A' for Active; 'I' for Inactive)
REMARK    1  A    between atoms: C_1  and  C_2
REMARK    2  A    between atoms: C_6  and  C_7
REMARK    3  A    between atoms: N_10  and  C_11
REMARK    4  A    between atoms: C_11  and  C_12
REMARK    5  A    between atoms: C_12  and  C_13
REMARK    6  A    between atoms: N_15  and  C_16
REMARK    7  A    between atoms: C_16  and  C_17
REMARK    8  A    between atoms: C_17  and  C_18
REMARK    9  A    between atoms: C_18  and  N_19
REMARK   10  A    between atoms: N_19  and  C_20
REMARK   11  A    between atoms: N_19  and  C_21
REMARK   12  A    between atoms: C_29  and  C_30
REMARK                            x       y       z     vdW  Elec       q    Type
REMARK                         _______ _______ _______ _____ _____    ______ ____
ROOT
ATOM      1  C   UNL     1       0.789   9.690  18.124  0.00  0.00    +0.000 C 
ENDROOT
BRANCH   1   2
ATOM      2  C   UNL     1       1.548   8.670  18.946  0.00  0.00    +0.000 C 
ATOM      3  O   UNL     1       1.489   8.635  20.170  0.00  0.00    +0.000 OA
ATOM      4  N   UNL     1       2.275   7.767  18.201  0.00  0.00    +0.000 N 
ATOM      5  H   UNL     1       2.201   7.778  17.192  0.00  0.00    +0.000 HD
BRANCH   4   6
ATOM      6  C   UNL     1       3.016   6.686  18.832  0.00  0.00    +0.000 C 
BRANCH   6   7
ATOM      7  C   UNL     1       4.039   6.091  17.871  0.00  0.00    +0.000 C 
BRANCH   7   8
ATOM      8  C   UNL     1       3.669   4.675  17.418  0.00  0.00    +0.000 C 
BRANCH   8   9
ATOM      9  N   UNL     1       4.422   3.641  18.159  0.00  0.00    +0.000 NA
ATOM     10  C   UNL     1       5.476   4.220  18.980  0.00  0.00    +0.000 C 
BRANCH   9  11
ATOM     11  C   UNL     1       3.554   2.612  18.782  0.00  0.00    +0.000 C 
ATOM     12  C   UNL     1       3.381   2.716  20.320  0.00  0.00    +0.000 C 
ATOM     13  C   UNL     1       2.256   3.637  20.810  0.00  0.00    +0.000 C 
ATOM     14  C   UNL     1       0.957   3.506  20.021  0.00  0.00    +0.000 C 
ATOM     15  C   UNL     1       1.173   3.472  18.513  0.00  0.00    +0.000 C 
ATOM     16  C   UNL     1       2.171   2.387  18.142  0.00  0.00    +0.000 C 
ENDBRANCH   9  11
ENDBRANCH   8   9
ENDBRANCH   7   8
ENDBRANCH   6   7
ENDBRANCH   4   6
ENDBRANCH   1   2
BRANCH   1  17
ATOM     17  C   UNL     1       0.987  11.074  18.739  0.00  0.00    +0.000 C 
BRANCH  17  27
ATOM     18  C   UNL     1      -5.478  11.621  17.188  0.00  0.00    +0.000 C 
ATOM     19  C   UNL     1      -4.070  11.666  17.721  0.00  0.00    +0.000 A 
ATOM     20  C   UNL     1      -3.852  12.067  19.046  0.00  0.00    +0.000 A 
ATOM     21  C   UNL     1      -2.577  12.041  19.619  0.00  0.00    +0.000 A 
ATOM     22  N   UNL     1      -2.474  12.362  20.977  0.00  0.00    +0.000 NA
ATOM     23  C   UNL     1      -1.314  12.265  21.547  0.00  0.00    +0.000 A 
ATOM     24  C   UNL     1      -1.178  12.526  23.021  0.00  0.00    +0.000 C 
ATOM     25  C   UNL     1      -0.048  11.867  20.808  0.00  0.00    +0.000 A 
ATOM     26  O   UNL     1       1.010  11.843  21.427  0.00  0.00    +0.000 OA
ATOM     27  N   UNL     1      -0.192  11.552  19.460  0.00  0.00    +0.000 N 
ATOM     28  C   UNL     1      -1.474  11.636  18.842  0.00  0.00    +0.000 A 
ATOM     29  C   UNL     1      -1.687  11.290  17.498  0.00  0.00    +0.000 A 
ATOM     30  C   UNL     1      -2.975  11.271  16.937  0.00  0.00    +0.000 A 
ATOM     31  C   UNL     1      -3.153  10.770  15.531  0.00  0.00    +0.000 C 
ENDBRANCH  17  27
ENDBRANCH   1  17
TORSDOF 8
ENDMDL
MODEL 5
REMARK VINA RESULT:      -7.6      7.166      9.101
REMARK  Name = 
REMARK  12 active torsions:
REMARK  status: ('A' for Active; 'I' for Inactive)
REMARK    1  A    between atoms: C_1  and  C_2
REMARK    2  A    between atoms: C_6  and  C_7
REMARK    3  A    between atoms: N_10  and  C_11
REMARK    4  A    between atoms: C_11  and  C_12
REMARK    5  A    between atoms: C_12  and  C_13
REMARK    6  A    between atoms: N_15  and  C_16
REMARK    7  A    between atoms: C_16  and  C_17
REMARK    8  A    between atoms: C_17  and  C_18
REMARK    9  A    between atoms: C_18  and  N_19
REMARK   10  A    between atoms: N_19  and  C_20
REMARK   11  A    between atoms: N_19  and  C_21
REMARK   12  A    between atoms: C_29  and  C_30
REMARK                            x       y       z     vdW  Elec       q    Type
REMARK                         _______ _______ _______ _____ _____    ______ ____
ROOT
ATOM      1  C   UNL     1       8.532   9.914  18.299  0.00  0.00    +0.000 C 
ENDROOT
BRANCH   1   2
ATOM      2  C   UNL     1       8.206   8.438  18.229  0.00  0.00    +0.000 C 
ATOM      3  O   UNL     1       8.666   7.623  19.021  0.00  0.00    +0.000 OA
ATOM      4  N   UNL     1       7.322   8.098  17.228  0.00  0.00    +0.000 N 
ATOM      5  H   UNL     1       6.891   8.827  16.674  0.00  0.00    +0.000 HD
BRANCH   4   6
ATOM      6  C   UNL     1       6.858   6.730  17.059  0.00  0.00    +0.000 C 
BRANCH   6   7
ATOM      7  C   UNL     1       5.340   6.680  16.931  0.00  0.00    +0.000 C 
BRANCH   7   8
ATOM      8  C   UNL     1       4.670   5.982  18.119  0.00  0.00    +0.000 C 
BRANCH   8   9
ATOM      9  N   UNL     1       3.714   4.942  17.684  0.00  0.00    +0.000 NA
ATOM     10  C   UNL     1       4.258   3.601  17.849  0.00  0.00    +0.000 C 
BRANCH   9  11
ATOM     11  C   UNL     1       2.327   5.183  18.155  0.00  0.00    +0.000 C 
ATOM     12  C   UNL     1       1.323   4.025  17.918  0.00  0.00    +0.000 C 
ATOM     13  C   UNL     1       1.266   2.949  19.010  0.00  0.00    +0.000 C 
ATOM     14  C   UNL     1       1.288   3.504  20.431  0.00  0.00    +0.000 C 
ATOM     15  C   UNL     1       2.334   4.593  20.632  0.00  0.00    +0.000 C 
ATOM     16  C   UNL     1       2.161   5.696  19.598  0.00  0.00    +0.000 C 
ENDBRANCH   9  11
ENDBRANCH   8   9
ENDBRANCH   7   8
ENDBRANCH   6   7
ENDBRANCH   4   6
ENDBRANCH   1   2
BRANCH   1  17
ATOM     17  C   UNL     1       9.647  10.131  19.322  0.00  0.00    +0.000 C 
BRANCH  17  27
ATOM     18  C   UNL     1      11.503  16.156  17.140  0.00  0.00    +0.000 C 
ATOM     19  C   UNL     1      11.100  14.899  17.864  0.00  0.00    +0.000 A 
ATOM     20  C   UNL     1      10.542  14.995  19.147  0.00  0.00    +0.000 A 
ATOM     21  C   UNL     1      10.069  13.869  19.827  0.00  0.00    +0.000 A 
ATOM     22  N   UNL     1       9.437  14.079  21.058  0.00  0.00    +0.000 NA
ATOM     23  C   UNL     1       8.918  13.058  21.666  0.00  0.00    +0.000 A 
ATOM     24  C   UNL     1       8.165  13.255  22.951  0.00  0.00    +0.000 C 
ATOM     25  C   UNL     1       9.000  11.637  21.135  0.00  0.00    +0.000 A 
ATOM     26  O   UNL     1       8.512  10.732  21.805  0.00  0.00    +0.000 OA
ATOM     27  N   UNL     1       9.631  11.471  19.907  0.00  0.00    +0.000 N 
ATOM     28  C   UNL     1      10.180  12.599  19.229  0.00  0.00    +0.000 A 
ATOM     29  C   UNL     1      10.791  12.498  17.969  0.00  0.00    +0.000 A 
ATOM     30  C   UNL     1      11.223  13.635  17.267  0.00  0.00    +0.000 A 
ATOM     31  C   UNL     1      11.753  13.473  15.870  0.00  0.00    +0.000 C 
ENDBRANCH  17  27
ENDBRANCH   1  17
TORSDOF 8
ENDMDL
MODEL 6
REMARK VINA RESULT:      -7.6      1.966      9.040
REMARK  Name = 
REMARK  12 active torsions:
REMARK  status: ('A' for Active; 'I' for Inactive)
REMARK    1  A    between atoms: C_1  and  C_2
REMARK    2  A    between atoms: C_6  and  C_7
REMARK    3  A    between atoms: N_10  and  C_11
REMARK    4  A    between atoms: C_11  and  C_12
REMARK    5  A    between atoms: C_12  and  C_13
REMARK    6  A    between atoms: N_15  and  C_16
REMARK    7  A    between atoms: C_16  and  C_17
REMARK    8  A    between atoms: C_17  and  C_18
REMARK    9  A    between atoms: C_18  and  N_19
REMARK   10  A    between atoms: N_19  and  C_20
REMARK   11  A    between atoms: N_19  and  C_21
REMARK   12  A    between atoms: C_29  and  C_30
REMARK                            x       y       z     vdW  Elec       q    Type
REMARK                         _______ _______ _______ _____ _____    ______ ____
ROOT
ATOM      1  C   UNL     1       1.990   7.808  19.590  0.00  0.00    +0.000 C 
ENDROOT
BRANCH   1   2
ATOM      2  C   UNL     1       1.236   8.553  20.670  0.00  0.00    +0.000 C 
ATOM      3  O   UNL     1       1.535   8.476  21.857  0.00  0.00    +0.000 OA
ATOM      4  N   UNL     1       0.216   9.353  20.202  0.00  0.00    +0.000 N 
ATOM      5  H   UNL     1       0.084   9.461  19.204  0.00  0.00    +0.000 HD
BRANCH   4   6
ATOM      6  C   UNL     1      -0.571  10.182  21.101  0.00  0.00    +0.000 C 
BRANCH   6   7
ATOM      7  C   UNL     1      -0.006  11.596  21.174  0.00  0.00    +0.000 C 
BRANCH   7   8
ATOM      8  C   UNL     1      -0.779  12.587  20.298  0.00  0.00    +0.000 C 
BRANCH   8   9
ATOM      9  N   UNL     1      -2.163  12.137  20.040  0.00  0.00    +0.000 NA
ATOM     10  C   UNL     1      -3.100  12.673  21.017  0.00  0.00    +0.000 C 
BRANCH   9  11
ATOM     11  C   UNL     1      -2.549  12.208  18.608  0.00  0.00    +0.000 C 
ATOM     12  C   UNL     1      -1.535  11.597  17.606  0.00  0.00    +0.000 C 
ATOM     13  C   UNL     1      -1.678  10.094  17.335  0.00  0.00    +0.000 C 
ATOM     14  C   UNL     1      -3.120   9.628  17.162  0.00  0.00    +0.000 C 
ATOM     15  C   UNL     1      -4.066  10.203  18.208  0.00  0.00    +0.000 C 
ATOM     16  C   UNL     1      -3.963  11.720  18.243  0.00  0.00    +0.000 C 
ENDBRANCH   9  11
ENDBRANCH   8   9
ENDBRANCH   7   8
ENDBRANCH   6   7
ENDBRANCH   4   6
ENDBRANCH   1   2
BRANCH   1  17
ATOM     17  C   UNL     1       2.590   6.536  20.188  0.00  0.00    +0.000 C 
BRANCH  17  27
ATOM     18  C   UNL     1       6.757   4.534  15.379  0.00  0.00    +0.000 C 
ATOM     19  C   UNL     1       5.644   4.840  16.347  0.00  0.00    +0.000 A 
ATOM     20  C   UNL     1       4.583   3.934  16.480  0.00  0.00    +0.000 A 
ATOM     21  C   UNL     1       3.572   4.124  17.426  0.00  0.00    +0.000 A 
ATOM     22  N   UNL     1       2.611   3.115  17.554  0.00  0.00    +0.000 NA
ATOM     23  C   UNL     1       1.712   3.233  18.480  0.00  0.00    +0.000 A 
ATOM     24  C   UNL     1       0.711   2.134  18.698  0.00  0.00    +0.000 C 
ATOM     25  C   UNL     1       1.618   4.432  19.408  0.00  0.00    +0.000 A 
ATOM     26  O   UNL     1       0.706   4.471  20.227  0.00  0.00    +0.000 OA
ATOM     27  N   UNL     1       2.594   5.412  19.253  0.00  0.00    +0.000 N 
ATOM     28  C   UNL     1       3.595   5.268  18.248  0.00  0.00    +0.000 A 
ATOM     29  C   UNL     1       4.628   6.202  18.073  0.00  0.00    +0.000 A 
ATOM     30  C   UNL     1       5.669   5.987  17.155  0.00  0.00    +0.000 A 
ATOM     31  C   UNL     1       6.812   6.962  17.104  0.00  0.00    +0.000 C 
ENDBRANCH  17  27
ENDBRANCH   1  17
TORSDOF 8
ENDMDL
MODEL 7
REMARK VINA RESULT:      -7.6      1.745      2.487
REMARK  Name = 
REMARK  12 active torsions:
REMARK  status: ('A' for Active; 'I' for Inactive)
REMARK    1  A    between atoms: C_1  and  C_2
REMARK    2  A    between atoms: C_6  and  C_7
REMARK    3  A    between atoms: N_10  and  C_11
REMARK    4  A    between atoms: C_11  and  C_12
REMARK    5  A    between atoms: C_12  and  C_13
REMARK    6  A    between atoms: N_15  and  C_16
REMARK    7  A    between atoms: C_16  and  C_17
REMARK    8  A    between atoms: C_17  and  C_18
REMARK    9  A    between atoms: C_18  and  N_19
REMARK   10  A    between atoms: N_19  and  C_20
REMARK   11  A    between atoms: N_19  and  C_21
REMARK   12  A    between atoms: C_29  and  C_30
REMARK                            x       y       z     vdW  Elec       q    Type
REMARK                         _______ _______ _______ _____ _____    ______ ____
ROOT
ATOM      1  C   UNL     1      -0.471  10.373  20.386  0.00  0.00    +0.000 C 
ENDROOT
BRANCH   1   2
ATOM      2  C   UNL     1       0.130   9.906  19.078  0.00  0.00    +0.000 C 
ATOM      3  O   UNL     1      -0.462  10.002  18.009  0.00  0.00    +0.000 OA
ATOM      4  N   UNL     1       1.409   9.404  19.188  0.00  0.00    +0.000 N 
ATOM      5  H   UNL     1       1.888   9.450  20.078  0.00  0.00    +0.000 HD
BRANCH   4   6
ATOM      6  C   UNL     1       2.154   8.966  18.018  0.00  0.00    +0.000 C 
BRANCH   6   7
ATOM      7  C   UNL     1       2.110   7.448  17.880  0.00  0.00    +0.000 C 
BRANCH   7   8
ATOM      8  C   UNL     1       3.376   6.770  18.412  0.00  0.00    +0.000 C 
BRANCH   8   9
ATOM      9  N   UNL     1       3.373   5.313  18.161  0.00  0.00    +0.000 NA
ATOM     10  C   UNL     1       4.266   4.948  17.070  0.00  0.00    +0.000 C 
BRANCH   9  11
ATOM     11  C   UNL     1       3.436   4.501  19.401  0.00  0.00    +0.000 C 
ATOM     12  C   UNL     1       2.434   4.896  20.517  0.00  0.00    +0.000 C 
ATOM     13  C   UNL     1       1.045   4.250  20.435  0.00  0.00    +0.000 C 
ATOM     14  C   UNL     1       1.070   2.766  20.084  0.00  0.00    +0.000 C 
ATOM     15  C   UNL     1       2.020   2.436  18.939  0.00  0.00    +0.000 C 
ATOM     16  C   UNL     1       3.413   2.970  19.233  0.00  0.00    +0.000 C 
ENDBRANCH   9  11
ENDBRANCH   8   9
ENDBRANCH   7   8
ENDBRANCH   6   7
ENDBRANCH   4   6
ENDBRANCH   1   2
BRANCH   1  17
ATOM     17  C   UNL     1      -0.740  11.875  20.304  0.00  0.00    +0.000 C 
BRANCH  17  27
ATOM     18  C   UNL     1      -6.942  11.931  17.846  0.00  0.00    +0.000 C 
ATOM     19  C   UNL     1      -5.632  12.081  18.575  0.00  0.00    +0.000 A 
ATOM     20  C   UNL     1      -5.636  12.484  19.917  0.00  0.00    +0.000 A 
ATOM     21  C   UNL     1      -4.458  12.553  20.665  0.00  0.00    +0.000 A 
ATOM     22  N   UNL     1      -4.574  12.868  22.024  0.00  0.00    +0.000 NA
ATOM     23  C   UNL     1      -3.503  12.856  22.753  0.00  0.00    +0.000 A 
ATOM     24  C   UNL     1      -3.599  13.113  24.231  0.00  0.00    +0.000 C 
ATOM     25  C   UNL     1      -2.118  12.565  22.202  0.00  0.00    +0.000 A 
ATOM     26  O   UNL     1      -1.159  12.618  22.966  0.00  0.00    +0.000 OA
ATOM     27  N   UNL     1      -2.044  12.252  20.848  0.00  0.00    +0.000 N 
ATOM     28  C   UNL     1      -3.227  12.242  20.053  0.00  0.00    +0.000 A 
ATOM     29  C   UNL     1      -3.220  11.894  18.694  0.00  0.00    +0.000 A 
ATOM     30  C   UNL     1      -4.409  11.779  17.956  0.00  0.00    +0.000 A 
ATOM     31  C   UNL     1      -4.345  11.280  16.539  0.00  0.00    +0.000 C 
ENDBRANCH  17  27
ENDBRANCH   1  17
TORSDOF 8
ENDMDL
MODEL 8
REMARK VINA RESULT:      -7.6      1.315      1.765
REMARK  Name = 
REMARK  12 active torsions:
REMARK  status: ('A' for Active; 'I' for Inactive)
REMARK    1  A    between atoms: C_1  and  C_2
REMARK    2  A    between atoms: C_6  and  C_7
REMARK    3  A    between atoms: N_10  and  C_11
REMARK    4  A    between atoms: C_11  and  C_12
REMARK    5  A    between atoms: C_12  and  C_13
REMARK    6  A    between atoms: N_15  and  C_16
REMARK    7  A    between atoms: C_16  and  C_17
REMARK    8  A    between atoms: C_17  and  C_18
REMARK    9  A    between atoms: C_18  and  N_19
REMARK   10  A    between atoms: N_19  and  C_20
REMARK   11  A    between atoms: N_19  and  C_21
REMARK   12  A    between atoms: C_29  and  C_30
REMARK                            x       y       z     vdW  Elec       q    Type
REMARK                         _______ _______ _______ _____ _____    ______ ____
ROOT
ATOM      1  C   UNL     1       0.051  10.267  18.677  0.00  0.00    +0.000 C 
ENDROOT
BRANCH   1   2
ATOM      2  C   UNL     1       1.422   9.824  18.215  0.00  0.00    +0.000 C 
ATOM      3  O   UNL     1       2.274  10.616  17.826  0.00  0.00    +0.000 OA
ATOM      4  N   UNL     1       1.643   8.467  18.308  0.00  0.00    +0.000 N 
ATOM      5  H   UNL     1       0.943   7.876  18.737  0.00  0.00    +0.000 HD
BRANCH   4   6
ATOM      6  C   UNL     1       2.929   7.883  17.960  0.00  0.00    +0.000 C 
BRANCH   6   7
ATOM      7  C   UNL     1       2.878   6.361  18.046  0.00  0.00    +0.000 C 
BRANCH   7   8
ATOM      8  C   UNL     1       3.625   5.814  19.267  0.00  0.00    +0.000 C 
BRANCH   8   9
ATOM      9  N   UNL     1       4.215   4.485  19.007  0.00  0.00    +0.000 NA
ATOM     10  C   UNL     1       5.669   4.537  18.951  0.00  0.00    +0.000 C 
BRANCH   9  11
ATOM     11  C   UNL     1       3.597   3.399  19.809  0.00  0.00    +0.000 C 
ATOM     12  C   UNL     1       2.338   3.795  20.623  0.00  0.00    +0.000 C 
ATOM     13  C   UNL     1       0.998   3.700  19.881  0.00  0.00    +0.000 C 
ATOM     14  C   UNL     1       0.848   2.445  19.027  0.00  0.00    +0.000 C 
ATOM     15  C   UNL     1       2.086   2.133  18.196  0.00  0.00    +0.000 C 
ATOM     16  C   UNL     1       3.321   2.069  19.083  0.00  0.00    +0.000 C 
ENDBRANCH   9  11
ENDBRANCH   8   9
ENDBRANCH   7   8
ENDBRANCH   6   7
ENDBRANCH   4   6
ENDBRANCH   1   2
BRANCH   1  17
ATOM     17  C   UNL     1       0.125  11.721  19.141  0.00  0.00    +0.000 C 
BRANCH  17  27
ATOM     18  C   UNL     1      -6.423  11.697  17.865  0.00  0.00    +0.000 C 
ATOM     19  C   UNL     1      -5.002  11.875  18.331  0.00  0.00    +0.000 A 
ATOM     20  C   UNL     1      -4.759  12.354  19.625  0.00  0.00    +0.000 A 
ATOM     21  C   UNL     1      -3.463  12.454  20.139  0.00  0.00    +0.000 A 
ATOM     22  N   UNL     1      -3.328  12.847  21.475  0.00  0.00    +0.000 NA
ATOM     23  C   UNL     1      -2.141  12.867  21.995  0.00  0.00    +0.000 A 
ATOM     24  C   UNL     1      -1.964  13.208  23.448  0.00  0.00    +0.000 C 
ATOM     25  C   UNL     1      -0.880  12.531  21.217  0.00  0.00    +0.000 A 
ATOM     26  O   UNL     1       0.202  12.618  21.787  0.00  0.00    +0.000 OA
ATOM     27  N   UNL     1      -1.056  12.141  19.893  0.00  0.00    +0.000 N 
ATOM     28  C   UNL     1      -2.366  12.097  19.331  0.00  0.00    +0.000 A 
ATOM     29  C   UNL     1      -2.608  11.672  18.015  0.00  0.00    +0.000 A 
ATOM     30  C   UNL     1      -3.913  11.527  17.516  0.00  0.00    +0.000 A 
ATOM     31  C   UNL     1      -4.111  10.947  16.144  0.00  0.00    +0.000 C 
ENDBRANCH  17  27
ENDBRANCH   1  17
TORSDOF 8
ENDMDL
MODEL 9
REMARK VINA RESULT:      -7.5      2.395      3.762
REMARK  Name = 
REMARK  12 active torsions:
REMARK  status: ('A' for Active; 'I' for Inactive)
REMARK    1  A    between atoms: C_1  and  C_2
REMARK    2  A    between atoms: C_6  and  C_7
REMARK    3  A    between atoms: N_10  and  C_11
REMARK    4  A    between atoms: C_11  and  C_12
REMARK    5  A    between atoms: C_12  and  C_13
REMARK    6  A    between atoms: N_15  and  C_16
REMARK    7  A    between atoms: C_16  and  C_17
REMARK    8  A    between atoms: C_17  and  C_18
REMARK    9  A    between atoms: C_18  and  N_19
REMARK   10  A    between atoms: N_19  and  C_20
REMARK   11  A    between atoms: N_19  and  C_21
REMARK   12  A    between atoms: C_29  and  C_30
REMARK                            x       y       z     vdW  Elec       q    Type
REMARK                         _______ _______ _______ _____ _____    ______ ____
ROOT
ATOM      1  C   UNL     1       1.353   9.598  19.644  0.00  0.00    +0.000 C 
ENDROOT
BRANCH   1   2
ATOM      2  C   UNL     1       1.856   8.680  18.551  0.00  0.00    +0.000 C 
ATOM      3  O   UNL     1       1.996   9.051  17.391  0.00  0.00    +0.000 OA
ATOM      4  N   UNL     1       2.180   7.411  18.979  0.00  0.00    +0.000 N 
ATOM      5  H   UNL     1       2.147   7.194  19.967  0.00  0.00    +0.000 HD
BRANCH   4   6
ATOM      6  C   UNL     1       2.733   6.422  18.068  0.00  0.00    +0.000 C 
BRANCH   6   7
ATOM      7  C   UNL     1       4.256   6.403  18.140  0.00  0.00    +0.000 C 
BRANCH   7   8
ATOM      8  C   UNL     1       4.814   5.015  18.470  0.00  0.00    +0.000 C 
BRANCH   8   9
ATOM      9  N   UNL     1       4.208   3.960  17.631  0.00  0.00    +0.000 NA
ATOM     10  C   UNL     1       5.006   3.685  16.444  0.00  0.00    +0.000 C 
BRANCH   9  11
ATOM     11  C   UNL     1       3.716   2.798  18.412  0.00  0.00    +0.000 C 
ATOM     12  C   UNL     1       3.736   2.963  19.954  0.00  0.00    +0.000 C 
ATOM     13  C   UNL     1       2.497   3.619  20.578  0.00  0.00    +0.000 C 
ATOM     14  C   UNL     1       1.175   3.127  19.997  0.00  0.00    +0.000 C 
ATOM     15  C   UNL     1       1.182   3.043  18.477  0.00  0.00    +0.000 C 
ATOM     16  C   UNL     1       2.356   2.205  17.995  0.00  0.00    +0.000 C 
ENDBRANCH   9  11
ENDBRANCH   8   9
ENDBRANCH   7   8
ENDBRANCH   6   7
ENDBRANCH   4   6
ENDBRANCH   1   2
BRANCH   1  17
ATOM     17  C   UNL     1       0.566  10.744  19.010  0.00  0.00    +0.000 C 
BRANCH  17  27
ATOM     18  C   UNL     1      -1.358  14.574  24.122  0.00  0.00    +0.000 C 
ATOM     19  C   UNL     1      -0.828  13.924  22.871  0.00  0.00    +0.000 A 
ATOM     20  C   UNL     1       0.225  14.533  22.176  0.00  0.00    +0.000 A 
ATOM     21  C   UNL     1       0.814  13.929  21.061  0.00  0.00    +0.000 A 
ATOM     22  N   UNL     1       1.925  14.564  20.496  0.00  0.00    +0.000 NA
ATOM     23  C   UNL     1       2.535  13.979  19.513  0.00  0.00    +0.000 A 
ATOM     24  C   UNL     1       3.777  14.592  18.931  0.00  0.00    +0.000 C 
ATOM     25  C   UNL     1       2.081  12.661  18.911  0.00  0.00    +0.000 A 
ATOM     26  O   UNL     1       2.702  12.207  17.955  0.00  0.00    +0.000 OA
ATOM     27  N   UNL     1       0.975  12.059  19.503  0.00  0.00    +0.000 N 
ATOM     28  C   UNL     1       0.320  12.693  20.599  0.00  0.00    +0.000 A 
ATOM     29  C   UNL     1      -0.772  12.113  21.263  0.00  0.00    +0.000 A 
ATOM     30  C   UNL     1      -1.332  12.698  22.411  0.00  0.00    +0.000 A 
ATOM     31  C   UNL     1      -2.417  11.965  23.150  0.00  0.00    +0.000 C 
ENDBRANCH  17  27
ENDBRANCH   1  17
TORSDOF 8
ENDMDL
