MODEL 1
REMARK VINA RESULT:      -8.8      0.000      0.000
REMARK  Name = 
REMARK  5 active torsions:
REMARK  status: ('A' for Active; 'I' for Inactive)
REMARK    1  A    between atoms: C_2  and  C_3
REMARK    2  A    between atoms: C_3  and  N_4
REMARK    3  A    between atoms: N_10  and  C_11
REMARK    4  A    between atoms: N_21  and  C_22
REMARK    5  A    between atoms: C_22  and  C_23
REMARK                            x       y       z     vdW  Elec       q    Type
REMARK                         _______ _______ _______ _____ _____    ______ ____
ROOT
ATOM      1  C   UNL     1       2.578   6.458  20.063  0.00  0.00    +0.000 A 
ATOM      2  C   UNL     1       1.733   7.549  20.186  0.00  0.00    +0.000 A 
ATOM      3  C   UNL     1       1.689   8.491  19.169  0.00  0.00    +0.000 A 
ATOM      4  N   UNL     1       2.439   8.430  18.066  0.00  0.00    +0.000 NA
ATOM      5  C   UNL     1       3.330   7.430  17.978  0.00  0.00    +0.000 A 
ATOM      6  C   UNL     1       4.184   7.427  16.884  0.00  0.00    +0.000 A 
ATOM      7  C   UNL     1       5.165   6.448  16.710  0.00  0.00    +0.000 A 
ATOM      8  C   UNL     1       5.284   5.427  17.639  0.00  0.00    +0.000 A 
ATOM      9  C   UNL     1       4.432   5.395  18.743  0.00  0.00    +0.000 A 
ATOM     10  C   UNL     1       3.455   6.404  18.951  0.00  0.00    +0.000 A 
ATOM     11  N   UNL     1       0.843   9.542  19.494  0.00  0.00    +0.000 N 
ATOM     12  C   UNL     1       0.177   9.229  20.738  0.00  0.00    +0.000 C 
ATOM     13  C   UNL     1       0.974   8.070  21.365  0.00  0.00    +0.000 C 
ENDROOT
BRANCH   1  16
ATOM     14  O   UNL     1       2.080   3.585  22.122  0.00  0.00    +0.000 OA
ATOM     15  C   UNL     1       1.888   4.340  21.161  0.00  0.00    +0.000 C 
ATOM     16  N   UNL     1       2.635   5.489  21.081  0.00  0.00    +0.000 N 
ATOM     17  H   UNL     1       3.495   5.402  21.607  0.00  0.00    +0.000 HD
BRANCH  15  18
ATOM     18  C   UNL     1       0.903   3.947  20.047  0.00  0.00    +0.000 C 
BRANCH  18  19
ATOM     19  N   UNL     1       1.506   3.018  19.062  0.00  0.00    +0.000 NA
ATOM     20  C   UNL     1       1.800   3.715  17.801  0.00  0.00    +0.000 C 
ATOM     21  C   UNL     1       2.478   2.798  16.783  0.00  0.00    +0.000 C 
ATOM     22  C   UNL     1       3.744   2.187  17.364  0.00  0.00    +0.000 C 
ATOM     23  C   UNL     1       3.413   1.461  18.662  0.00  0.00    +0.000 C 
ATOM     24  C   UNL     1       2.705   2.394  19.644  0.00  0.00    +0.000 C 
ENDBRANCH  18  19
ENDBRANCH  15  18
ENDBRANCH   1  16
BRANCH  11  25
ATOM     25  C   UNL     1       0.518  10.630  18.615  0.00  0.00    +0.000 C 
BRANCH  25  26
ATOM     26  C   UNL     1      -0.967  10.632  18.334  0.00  0.00    +0.000 A 
ATOM     27  C   UNL     1      -1.504   9.756  17.381  0.00  0.00    +0.000 A 
ATOM     28  C   UNL     1      -2.851   9.829  17.030  0.00  0.00    +0.000 A 
ATOM     29  C   UNL     1      -3.675  10.780  17.629  0.00  0.00    +0.000 A 
ATOM     30  C   UNL     1      -3.158  11.645  18.592  0.00  0.00    +0.000 A 
ATOM     31  C   UNL     1      -1.810  11.572  18.944  0.00  0.00    +0.000 A 
ENDBRANCH  25  26
ENDBRANCH  11  25
TORSDOF 5
ENDMDL
MODEL 2
REMARK VINA RESULT:      -8.6      3.580      8.566
REMARK  Name = 
REMARK  5 active torsions:
REMARK  status: ('A' for Active; 'I' for Inactive)
REMARK    1  A    between atoms: C_2  and  C_3
REMARK    2  A    between atoms: C_3  and  N_4
REMARK    3  A    between atoms: N_10  and  C_11
REMARK    4  A    between atoms: N_21  and  C_22
REMARK    5  A    between atoms: C_22  and  C_23
REMARK                            x       y       z     vdW  Elec       q    Type
REMARK                         _______ _______ _______ _____ _____    ______ ____
ROOT
ATOM      1  C   UNL     1       0.177  10.356  19.389  0.00  0.00    +0.000 A 
ATOM      2  C   UNL     1       1.083   9.446  18.868  0.00  0.00    +0.000 A 
ATOM      3  C   UNL     1       1.579   8.439  19.683  0.00  0.00    +0.000 A 
ATOM      4  N   UNL     1       1.252   8.297  20.970  0.00  0.00    +0.000 NA
ATOM      5  C   UNL     1       0.450   9.227  21.512  0.00  0.00    +0.000 A 
ATOM      6  C   UNL     1       0.198   9.141  22.874  0.00  0.00    +0.000 A 
ATOM      7  C   UNL     1      -0.602  10.071  23.542  0.00  0.00    +0.000 A 
ATOM      8  C   UNL     1      -1.189  11.105  22.829  0.00  0.00    +0.000 A 
ATOM      9  C   UNL     1      -0.964  11.211  21.456  0.00  0.00    +0.000 A 
ATOM     10  C   UNL     1      -0.124  10.293  20.772  0.00  0.00    +0.000 A 
ATOM     11  N   UNL     1       2.520   7.669  19.016  0.00  0.00    +0.000 N 
ATOM     12  C   UNL     1       2.567   8.095  17.634  0.00  0.00    +0.000 C 
ATOM     13  C   UNL     1       1.858   9.460  17.588  0.00  0.00    +0.000 C 
ENDROOT
BRANCH   1  16
ATOM     14  O   UNL     1      -0.430  13.440  17.699  0.00  0.00    +0.000 OA
ATOM     15  C   UNL     1       0.137  12.666  18.479  0.00  0.00    +0.000 C 
ATOM     16  N   UNL     1      -0.339  11.382  18.578  0.00  0.00    +0.000 N 
ATOM     17  H   UNL     1      -0.852  11.119  17.747  0.00  0.00    +0.000 HD
BRANCH  15  18
ATOM     18  C   UNL     1       1.393  13.116  19.244  0.00  0.00    +0.000 C 
BRANCH  18  19
ATOM     19  N   UNL     1       2.010  14.327  18.653  0.00  0.00    +0.000 NA
ATOM     20  C   UNL     1       1.878  15.475  19.564  0.00  0.00    +0.000 C 
ATOM     21  C   UNL     1       2.557  16.727  19.009  0.00  0.00    +0.000 C 
ATOM     22  C   UNL     1       4.022  16.455  18.698  0.00  0.00    +0.000 C 
ATOM     23  C   UNL     1       4.132  15.272  17.746  0.00  0.00    +0.000 C 
ATOM     24  C   UNL     1       3.413  14.047  18.312  0.00  0.00    +0.000 C 
ENDBRANCH  18  19
ENDBRANCH  15  18
ENDBRANCH   1  16
BRANCH  11  25
ATOM     25  C   UNL     1       3.152   6.500  19.558  0.00  0.00    +0.000 C 
BRANCH  25  26
ATOM     26  C   UNL     1       2.255   5.300  19.365  0.00  0.00    +0.000 A 
ATOM     27  C   UNL     1       1.588   4.736  20.462  0.00  0.00    +0.000 A 
ATOM     28  C   UNL     1       0.852   3.560  20.317  0.00  0.00    +0.000 A 
ATOM     29  C   UNL     1       0.775   2.938  19.073  0.00  0.00    +0.000 A 
ATOM     30  C   UNL     1       1.418   3.498  17.970  0.00  0.00    +0.000 A 
ATOM     31  C   UNL     1       2.155   4.674  18.114  0.00  0.00    +0.000 A 
ENDBRANCH  25  26
ENDBRANCH  11  25
TORSDOF 5
ENDMDL
MODEL 3
REMARK VINA RESULT:      -8.5      2.749      8.234
REMARK  Name = 
REMARK  5 active torsions:
REMARK  status: ('A' for Active; 'I' for Inactive)
REMARK    1  A    between atoms: C_2  and  C_3
REMARK    2  A    between atoms: C_3  and  N_4
REMARK    3  A    between atoms: N_10  and  C_11
REMARK    4  A    between atoms: N_21  and  C_22
REMARK    5  A    between atoms: C_22  and  C_23
REMARK                            x       y       z     vdW  Elec       q    Type
REMARK                         _______ _______ _______ _____ _____    ______ ____
ROOT
ATOM      1  C   UNL     1       0.395  10.318  19.318  0.00  0.00    +0.000 A 
ATOM      2  C   UNL     1       1.257   9.316  18.905  0.00  0.00    +0.000 A 
ATOM      3  C   UNL     1       1.609   8.312  19.796  0.00  0.00    +0.000 A 
ATOM      4  N   UNL     1       1.180   8.257  21.060  0.00  0.00    +0.000 NA
ATOM      5  C   UNL     1       0.421   9.272  21.501  0.00  0.00    +0.000 A 
ATOM      6  C   UNL     1       0.066   9.271  22.843  0.00  0.00    +0.000 A 
ATOM      7  C   UNL     1      -0.700  10.293  23.409  0.00  0.00    +0.000 A 
ATOM      8  C   UNL     1      -1.147  11.334  22.613  0.00  0.00    +0.000 A 
ATOM      9  C   UNL     1      -0.817  11.358  21.257  0.00  0.00    +0.000 A 
ATOM     10  C   UNL     1      -0.009  10.345  20.677  0.00  0.00    +0.000 A 
ATOM     11  N   UNL     1       2.529   7.440  19.234  0.00  0.00    +0.000 N 
ATOM     12  C   UNL     1       2.708   7.794  17.843  0.00  0.00    +0.000 C 
ATOM     13  C   UNL     1       2.120   9.208  17.688  0.00  0.00    +0.000 C 
ENDROOT
BRANCH   1  16
ATOM     14  O   UNL     1      -1.369  12.487  17.100  0.00  0.00    +0.000 OA
ATOM     15  C   UNL     1      -1.209  11.516  17.849  0.00  0.00    +0.000 C 
ATOM     16  N   UNL     1       0.023  11.342  18.429  0.00  0.00    +0.000 N 
ATOM     17  H   UNL     1       0.533  12.215  18.470  0.00  0.00    +0.000 HD
BRANCH  15  18
ATOM     18  C   UNL     1      -2.389  10.588  18.182  0.00  0.00    +0.000 C 
BRANCH  18  19
ATOM     19  N   UNL     1      -3.683  11.311  18.215  0.00  0.00    +0.000 NA
ATOM     20  C   UNL     1      -4.804  10.380  18.017  0.00  0.00    +0.000 C 
ATOM     21  C   UNL     1      -6.157  11.086  18.105  0.00  0.00    +0.000 C 
ATOM     22  C   UNL     1      -6.299  11.821  19.430  0.00  0.00    +0.000 C 
ATOM     23  C   UNL     1      -5.134  12.786  19.606  0.00  0.00    +0.000 C 
ATOM     24  C   UNL     1      -3.797  12.057  19.477  0.00  0.00    +0.000 C 
ENDBRANCH  18  19
ENDBRANCH  15  18
ENDBRANCH   1  16
BRANCH  11  25
ATOM     25  C   UNL     1       3.022   6.251  19.870  0.00  0.00    +0.000 C 
BRANCH  25  26
ATOM     26  C   UNL     1       2.155   5.073  19.492  0.00  0.00    +0.000 A 
ATOM     27  C   UNL     1       1.346   4.455  20.456  0.00  0.00    +0.000 A 
ATOM     28  C   UNL     1       0.632   3.298  20.149  0.00  0.00    +0.000 A 
ATOM     29  C   UNL     1       0.719   2.747  18.871  0.00  0.00    +0.000 A 
ATOM     30  C   UNL     1       1.504   3.361  17.898  0.00  0.00    +0.000 A 
ATOM     31  C   UNL     1       2.219   4.519  18.205  0.00  0.00    +0.000 A 
ENDBRANCH  25  26
ENDBRANCH  11  25
TORSDOF 5
ENDMDL
MODEL 4
REMARK VINA RESULT:      -8.2      2.647      8.132
REMARK  Name = 
REMARK  5 active torsions:
REMARK  status: ('A' for Active; 'I' for Inactive)
REMARK    1  A    between atoms: C_2  and  C_3
REMARK    2  A    between atoms: C_3  and  N_4
REMARK    3  A    between atoms: N_10  and  C_11
REMARK    4  A    between atoms: N_21  and  C_22
REMARK    5  A    between atoms: C_22  and  C_23
REMARK                            x       y       z     vdW  Elec       q    Type
REMARK                         _______ _______ _______ _____ _____    ______ ____
ROOT
ATOM      1  C   UNL     1       0.330  10.205  19.278  0.00  0.00    +0.000 A 
ATOM      2  C   UNL     1       1.232   9.245  18.849  0.00  0.00    +0.000 A 
ATOM      3  C   UNL     1       1.670   8.279  19.742  0.00  0.00    +0.000 A 
ATOM      4  N   UNL     1       1.292   8.222  21.021  0.00  0.00    +0.000 NA
ATOM      5  C   UNL     1       0.493   9.202  21.474  0.00  0.00    +0.000 A 
ATOM      6  C   UNL     1       0.187   9.204  22.828  0.00  0.00    +0.000 A 
ATOM      7  C   UNL     1      -0.613  10.192  23.407  0.00  0.00    +0.000 A 
ATOM      8  C   UNL     1      -1.146  11.193  22.611  0.00  0.00    +0.000 A 
ATOM      9  C   UNL     1      -0.867  11.211  21.244  0.00  0.00    +0.000 A 
ATOM     10  C   UNL     1      -0.026  10.234  20.650  0.00  0.00    +0.000 A 
ATOM     11  N   UNL     1       2.617   7.448  19.159  0.00  0.00    +0.000 N 
ATOM     12  C   UNL     1       2.726   7.787  17.758  0.00  0.00    +0.000 C 
ATOM     13  C   UNL     1       2.054   9.164  17.602  0.00  0.00    +0.000 C 
ENDROOT
BRANCH   1  16
ATOM     14  O   UNL     1      -1.583  12.160  16.984  0.00  0.00    +0.000 OA
ATOM     15  C   UNL     1      -1.330  11.198  17.720  0.00  0.00    +0.000 C 
ATOM     16  N   UNL     1      -0.130  11.192  18.388  0.00  0.00    +0.000 N 
ATOM     17  H   UNL     1       0.237  12.130  18.486  0.00  0.00    +0.000 HD
BRANCH  15  18
ATOM     18  C   UNL     1      -2.375  10.093  17.942  0.00  0.00    +0.000 C 
BRANCH  18  19
ATOM     19  N   UNL     1      -3.675  10.631  18.408  0.00  0.00    +0.000 NA
ATOM     20  C   UNL     1      -3.483  11.880  19.160  0.00  0.00    +0.000 C 
ATOM     21  C   UNL     1      -4.812  12.492  19.603  0.00  0.00    +0.000 C 
ATOM     22  C   UNL     1      -5.728  12.720  18.410  0.00  0.00    +0.000 C 
ATOM     23  C   UNL     1      -5.921  11.411  17.656  0.00  0.00    +0.000 C 
ATOM     24  C   UNL     1      -4.574  10.807  17.257  0.00  0.00    +0.000 C 
ENDBRANCH  18  19
ENDBRANCH  15  18
ENDBRANCH   1  16
BRANCH  11  25
ATOM     25  C   UNL     1       3.198   6.299  19.795  0.00  0.00    +0.000 C 
BRANCH  25  26
ATOM     26  C   UNL     1       2.361   5.076  19.502  0.00  0.00    +0.000 A 
ATOM     27  C   UNL     1       2.316   4.548  18.204  0.00  0.00    +0.000 A 
ATOM     28  C   UNL     1       1.459   3.494  17.896  0.00  0.00    +0.000 A 
ATOM     29  C   UNL     1       0.638   2.954  18.884  0.00  0.00    +0.000 A 
ATOM     30  C   UNL     1       0.685   3.457  20.183  0.00  0.00    +0.000 A 
ATOM     31  C   UNL     1       1.543   4.513  20.492  0.00  0.00    +0.000 A 
ENDBRANCH  25  26
ENDBRANCH  11  25
TORSDOF 5
ENDMDL
MODEL 5
REMARK VINA RESULT:      -8.1      1.506      2.546
REMARK  Name = 
REMARK  5 active torsions:
REMARK  status: ('A' for Active; 'I' for Inactive)
REMARK    1  A    between atoms: C_2  and  C_3
REMARK    2  A    between atoms: C_3  and  N_4
REMARK    3  A    between atoms: N_10  and  C_11
REMARK    4  A    between atoms: N_21  and  C_22
REMARK    5  A    between atoms: C_22  and  C_23
REMARK                            x       y       z     vdW  Elec       q    Type
REMARK                         _______ _______ _______ _____ _____    ______ ____
ROOT
ATOM      1  C   UNL     1       2.685   6.306  20.100  0.00  0.00    +0.000 A 
ATOM      2  C   UNL     1       1.831   7.393  20.194  0.00  0.00    +0.000 A 
ATOM      3  C   UNL     1       1.812   8.331  19.173  0.00  0.00    +0.000 A 
ATOM      4  N   UNL     1       2.594   8.269  18.092  0.00  0.00    +0.000 NA
ATOM      5  C   UNL     1       3.492   7.274  18.035  0.00  0.00    +0.000 A 
ATOM      6  C   UNL     1       4.378   7.270  16.966  0.00  0.00    +0.000 A 
ATOM      7  C   UNL     1       5.368   6.295  16.824  0.00  0.00    +0.000 A 
ATOM      8  C   UNL     1       5.465   5.278  17.760  0.00  0.00    +0.000 A 
ATOM      9  C   UNL     1       4.581   5.247  18.839  0.00  0.00    +0.000 A 
ATOM     10  C   UNL     1       3.594   6.252  19.014  0.00  0.00    +0.000 A 
ATOM     11  N   UNL     1       0.952   9.379  19.469  0.00  0.00    +0.000 N 
ATOM     12  C   UNL     1       0.251   9.067  20.695  0.00  0.00    +0.000 C 
ATOM     13  C   UNL     1       1.035   7.915  21.348  0.00  0.00    +0.000 C 
ENDROOT
BRANCH   1  16
ATOM     14  O   UNL     1       2.102   3.464  22.181  0.00  0.00    +0.000 OA
ATOM     15  C   UNL     1       1.929   4.220  21.217  0.00  0.00    +0.000 C 
ATOM     16  N   UNL     1       2.716   5.341  21.123  0.00  0.00    +0.000 N 
ATOM     17  H   UNL     1       3.578   5.225  21.641  0.00  0.00    +0.000 HD
BRANCH  15  18
ATOM     18  C   UNL     1       0.918   3.857  20.116  0.00  0.00    +0.000 C 
BRANCH  18  19
ATOM     19  N   UNL     1       1.504   2.972  19.082  0.00  0.00    +0.000 NA
ATOM     20  C   UNL     1       1.777   3.723  17.847  0.00  0.00    +0.000 C 
ATOM     21  C   UNL     1       2.437   2.850  16.780  0.00  0.00    +0.000 C 
ATOM     22  C   UNL     1       3.713   2.216  17.313  0.00  0.00    +0.000 C 
ATOM     23  C   UNL     1       3.403   1.435  18.583  0.00  0.00    +0.000 C 
ATOM     24  C   UNL     1       2.713   2.325  19.616  0.00  0.00    +0.000 C 
ENDBRANCH  18  19
ENDBRANCH  15  18
ENDBRANCH   1  16
BRANCH  11  25
ATOM     25  C   UNL     1       0.648  10.462  18.577  0.00  0.00    +0.000 C 
BRANCH  25  26
ATOM     26  C   UNL     1       1.455  11.680  18.959  0.00  0.00    +0.000 A 
ATOM     27  C   UNL     1       1.216  12.330  20.178  0.00  0.00    +0.000 A 
ATOM     28  C   UNL     1       1.872  13.520  20.488  0.00  0.00    +0.000 A 
ATOM     29  C   UNL     1       2.776  14.072  19.583  0.00  0.00    +0.000 A 
ATOM     30  C   UNL     1       3.036  13.427  18.375  0.00  0.00    +0.000 A 
ATOM     31  C   UNL     1       2.380  12.236  18.063  0.00  0.00    +0.000 A 
ENDBRANCH  25  26
ENDBRANCH  11  25
TORSDOF 5
ENDMDL
MODEL 6
REMARK VINA RESULT:      -8.0      2.359      4.808
REMARK  Name = 
REMARK  5 active torsions:
REMARK  status: ('A' for Active; 'I' for Inactive)
REMARK    1  A    between atoms: C_2  and  C_3
REMARK    2  A    between atoms: C_3  and  N_4
REMARK    3  A    between atoms: N_10  and  C_11
REMARK    4  A    between atoms: N_21  and  C_22
REMARK    5  A    between atoms: C_22  and  C_23
REMARK                            x       y       z     vdW  Elec       q    Type
REMARK                         _______ _______ _______ _____ _____    ______ ____
ROOT
ATOM      1  C   UNL     1       2.919   5.190  18.167  0.00  0.00    +0.000 A 
ATOM      2  C   UNL     1       2.637   6.526  18.401  0.00  0.00    +0.000 A 
ATOM      3  C   UNL     1       2.058   6.897  19.605  0.00  0.00    +0.000 A 
ATOM      4  N   UNL     1       1.724   6.033  20.567  0.00  0.00    +0.000 NA
ATOM      5  C   UNL     1       1.904   4.727  20.314  0.00  0.00    +0.000 A 
ATOM      6  C   UNL     1       1.458   3.822  21.268  0.00  0.00    +0.000 A 
ATOM      7  C   UNL     1       1.573   2.441  21.094  0.00  0.00    +0.000 A 
ATOM      8  C   UNL     1       2.172   1.944  19.947  0.00  0.00    +0.000 A 
ATOM      9  C   UNL     1       2.641   2.829  18.975  0.00  0.00    +0.000 A 
ATOM     10  C   UNL     1       2.498   4.233  19.124  0.00  0.00    +0.000 A 
ATOM     11  N   UNL     1       1.786   8.258  19.635  0.00  0.00    +0.000 N 
ATOM     12  C   UNL     1       2.333   8.862  18.440  0.00  0.00    +0.000 C 
ATOM     13  C   UNL     1       2.623   7.700  17.473  0.00  0.00    +0.000 C 
ENDROOT
BRANCH   1  16
ATOM     14  O   UNL     1       5.181   4.135  15.615  0.00  0.00    +0.000 OA
ATOM     15  C   UNL     1       4.832   4.485  16.749  0.00  0.00    +0.000 C 
ATOM     16  N   UNL     1       3.510   4.794  16.954  0.00  0.00    +0.000 N 
ATOM     17  H   UNL     1       2.921   4.352  16.260  0.00  0.00    +0.000 HD
BRANCH  15  18
ATOM     18  C   UNL     1       5.842   4.482  17.908  0.00  0.00    +0.000 C 
BRANCH  18  19
ATOM     19  N   UNL     1       6.335   5.842  18.231  0.00  0.00    +0.000 NA
ATOM     20  C   UNL     1       7.740   5.798  18.663  0.00  0.00    +0.000 C 
ATOM     21  C   UNL     1       8.296   7.193  18.946  0.00  0.00    +0.000 C 
ATOM     22  C   UNL     1       8.139   8.095  17.732  0.00  0.00    +0.000 C 
ATOM     23  C   UNL     1       6.676   8.135  17.311  0.00  0.00    +0.000 C 
ATOM     24  C   UNL     1       6.139   6.724  17.069  0.00  0.00    +0.000 C 
ENDBRANCH  18  19
ENDBRANCH  15  18
ENDBRANCH   1  16
BRANCH  11  25
ATOM     25  C   UNL     1       1.267   8.962  20.773  0.00  0.00    +0.000 C 
BRANCH  25  26
ATOM     26  C   UNL     1       0.530  10.199  20.315  0.00  0.00    +0.000 A 
ATOM     27  C   UNL     1       0.987  11.470  20.691  0.00  0.00    +0.000 A 
ATOM     28  C   UNL     1       0.251  12.611  20.373  0.00  0.00    +0.000 A 
ATOM     29  C   UNL     1      -0.948  12.492  19.674  0.00  0.00    +0.000 A 
ATOM     30  C   UNL     1      -1.404  11.236  19.278  0.00  0.00    +0.000 A 
ATOM     31  C   UNL     1      -0.669  10.094  19.596  0.00  0.00    +0.000 A 
ENDBRANCH  25  26
ENDBRANCH  11  25
TORSDOF 5
ENDMDL
MODEL 7
REMARK VINA RESULT:      -7.9      2.406      4.649
REMARK  Name = 
REMARK  5 active torsions:
REMARK  status: ('A' for Active; 'I' for Inactive)
REMARK    1  A    between atoms: C_2  and  C_3
REMARK    2  A    between atoms: C_3  and  N_4
REMARK    3  A    between atoms: N_10  and  C_11
REMARK    4  A    between atoms: N_21  and  C_22
REMARK    5  A    between atoms: C_22  and  C_23
REMARK                            x       y       z     vdW  Elec       q    Type
REMARK                         _______ _______ _______ _____ _____    ______ ____
ROOT
ATOM      1  C   UNL     1       2.996   5.142  18.078  0.00  0.00    +0.000 A 
ATOM      2  C   UNL     1       2.744   6.495  18.232  0.00  0.00    +0.000 A 
ATOM      3  C   UNL     1       2.115   6.941  19.385  0.00  0.00    +0.000 A 
ATOM      4  N   UNL     1       1.706   6.135  20.368  0.00  0.00    +0.000 NA
ATOM      5  C   UNL     1       1.859   4.814  20.189  0.00  0.00    +0.000 A 
ATOM      6  C   UNL     1       1.338   3.971  21.160  0.00  0.00    +0.000 A 
ATOM      7  C   UNL     1       1.419   2.580  21.059  0.00  0.00    +0.000 A 
ATOM      8  C   UNL     1       2.061   2.010  19.970  0.00  0.00    +0.000 A 
ATOM      9  C   UNL     1       2.606   2.832  18.983  0.00  0.00    +0.000 A 
ATOM     10  C   UNL     1       2.498   4.245  19.056  0.00  0.00    +0.000 A 
ATOM     11  N   UNL     1       1.883   8.309  19.335  0.00  0.00    +0.000 N 
ATOM     12  C   UNL     1       2.509   8.838  18.143  0.00  0.00    +0.000 C 
ATOM     13  C   UNL     1       2.813   7.621  17.250  0.00  0.00    +0.000 C 
ENDROOT
BRANCH   1  16
ATOM     14  O   UNL     1       5.355   3.907  15.700  0.00  0.00    +0.000 OA
ATOM     15  C   UNL     1       4.959   4.323  16.796  0.00  0.00    +0.000 C 
ATOM     16  N   UNL     1       3.636   4.670  16.918  0.00  0.00    +0.000 N 
ATOM     17  H   UNL     1       3.072   4.204  16.220  0.00  0.00    +0.000 HD
BRANCH  15  18
ATOM     18  C   UNL     1       5.912   4.362  18.002  0.00  0.00    +0.000 C 
BRANCH  18  19
ATOM     19  N   UNL     1       6.973   5.386  17.851  0.00  0.00    +0.000 NA
ATOM     20  C   UNL     1       6.488   6.526  17.059  0.00  0.00    +0.000 C 
ATOM     21  C   UNL     1       7.540   7.627  16.936  0.00  0.00    +0.000 C 
ATOM     22  C   UNL     1       8.005   8.089  18.309  0.00  0.00    +0.000 C 
ATOM     23  C   UNL     1       8.513   6.894  19.105  0.00  0.00    +0.000 C 
ATOM     24  C   UNL     1       7.451   5.797  19.181  0.00  0.00    +0.000 C 
ENDBRANCH  18  19
ENDBRANCH  15  18
ENDBRANCH   1  16
BRANCH  11  25
ATOM     25  C   UNL     1       1.328   9.083  20.409  0.00  0.00    +0.000 C 
BRANCH  25  26
ATOM     26  C   UNL     1       0.532  10.237  19.847  0.00  0.00    +0.000 A 
ATOM     27  C   UNL     1      -0.696  10.002  19.210  0.00  0.00    +0.000 A 
ATOM     28  C   UNL     1      -1.382  11.043  18.586  0.00  0.00    +0.000 A 
ATOM     29  C   UNL     1      -0.848  12.330  18.594  0.00  0.00    +0.000 A 
ATOM     30  C   UNL     1       0.362  12.581  19.238  0.00  0.00    +0.000 A 
ATOM     31  C   UNL     1       1.050  11.540  19.863  0.00  0.00    +0.000 A 
ENDBRANCH  25  26
ENDBRANCH  11  25
TORSDOF 5
ENDMDL
MODEL 8
REMARK VINA RESULT:      -7.9      2.775      8.455
REMARK  Name = 
REMARK  5 active torsions:
REMARK  status: ('A' for Active; 'I' for Inactive)
REMARK    1  A    between atoms: C_2  and  C_3
REMARK    2  A    between atoms: C_3  and  N_4
REMARK    3  A    between atoms: N_10  and  C_11
REMARK    4  A    between atoms: N_21  and  C_22
REMARK    5  A    between atoms: C_22  and  C_23
REMARK                            x       y       z     vdW  Elec       q    Type
REMARK                         _______ _______ _______ _____ _____    ______ ____
ROOT
ATOM      1  C   UNL     1       0.414  10.526  19.528  0.00  0.00    +0.000 A 
ATOM      2  C   UNL     1       1.208   9.504  19.035  0.00  0.00    +0.000 A 
ATOM      3  C   UNL     1       1.455   8.393  19.828  0.00  0.00    +0.000 A 
ATOM      4  N   UNL     1       0.988   8.249  21.071  0.00  0.00    +0.000 NA
ATOM      5  C   UNL     1       0.297   9.273  21.595  0.00  0.00    +0.000 A 
ATOM      6  C   UNL     1      -0.096   9.169  22.922  0.00  0.00    +0.000 A 
ATOM      7  C   UNL     1      -0.796  10.188  23.572  0.00  0.00    +0.000 A 
ATOM      8  C   UNL     1      -1.138  11.335  22.875  0.00  0.00    +0.000 A 
ATOM      9  C   UNL     1      -0.768  11.464  21.535  0.00  0.00    +0.000 A 
ATOM     10  C   UNL     1      -0.025  10.452  20.874  0.00  0.00    +0.000 A 
ATOM     11  N   UNL     1       2.321   7.509  19.201  0.00  0.00    +0.000 N 
ATOM     12  C   UNL     1       2.567   7.982  17.857  0.00  0.00    +0.000 C 
ATOM     13  C   UNL     1       2.095   9.447  17.831  0.00  0.00    +0.000 C 
ENDROOT
BRANCH   1  16
ATOM     14  O   UNL     1      -1.055  12.953  17.362  0.00  0.00    +0.000 OA
ATOM     15  C   UNL     1      -0.977  11.888  17.987  0.00  0.00    +0.000 C 
ATOM     16  N   UNL     1       0.149  11.659  18.738  0.00  0.00    +0.000 N 
ATOM     17  H   UNL     1       0.606  12.528  18.984  0.00  0.00    +0.000 HD
BRANCH  15  18
ATOM     18  C   UNL     1      -2.153  10.898  17.984  0.00  0.00    +0.000 C 
BRANCH  18  19
ATOM     19  N   UNL     1      -3.463  11.577  18.123  0.00  0.00    +0.000 NA
ATOM     20  C   UNL     1      -4.564  10.655  17.806  0.00  0.00    +0.000 C 
ATOM     21  C   UNL     1      -5.932  11.309  17.998  0.00  0.00    +0.000 C 
ATOM     22  C   UNL     1      -6.080  11.852  19.411  0.00  0.00    +0.000 C 
ATOM     23  C   UNL     1      -4.936  12.813  19.711  0.00  0.00    +0.000 C 
ATOM     24  C   UNL     1      -3.583  12.141  19.477  0.00  0.00    +0.000 C 
ENDBRANCH  18  19
ENDBRANCH  15  18
ENDBRANCH   1  16
BRANCH  11  25
ATOM     25  C   UNL     1       2.702   6.228  19.725  0.00  0.00    +0.000 C 
BRANCH  25  26
ATOM     26  C   UNL     1       3.349   5.403  18.637  0.00  0.00    +0.000 A 
ATOM     27  C   UNL     1       2.598   4.446  17.939  0.00  0.00    +0.000 A 
ATOM     28  C   UNL     1       3.211   3.599  17.017  0.00  0.00    +0.000 A 
ATOM     29  C   UNL     1       4.580   3.702  16.781  0.00  0.00    +0.000 A 
ATOM     30  C   UNL     1       5.334   4.662  17.455  0.00  0.00    +0.000 A 
ATOM     31  C   UNL     1       4.722   5.509  18.378  0.00  0.00    +0.000 A 
ENDBRANCH  25  26
ENDBRANCH  11  25
TORSDOF 5
ENDMDL
MODEL 9
REMARK VINA RESULT:      -7.9      0.779      1.196
REMARK  Name = 
REMARK  5 active torsions:
REMARK  status: ('A' for Active; 'I' for Inactive)
REMARK    1  A    between atoms: C_2  and  C_3
REMARK    2  A    between atoms: C_3  and  N_4
REMARK    3  A    between atoms: N_10  and  C_11
REMARK    4  A    between atoms: N_21  and  C_22
REMARK    5  A    between atoms: C_22  and  C_23
REMARK                            x       y       z     vdW  Elec       q    Type
REMARK                         _______ _______ _______ _____ _____    ______ ____
ROOT
ATOM      1  C   UNL     1       2.813   6.165  20.062  0.00  0.00    +0.000 A 
ATOM      2  C   UNL     1       1.966   7.259  20.112  0.00  0.00    +0.000 A 
ATOM      3  C   UNL     1       1.976   8.174  19.070  0.00  0.00    +0.000 A 
ATOM      4  N   UNL     1       2.781   8.082  18.008  0.00  0.00    +0.000 NA
ATOM      5  C   UNL     1       3.673   7.080  17.992  0.00  0.00    +0.000 A 
ATOM      6  C   UNL     1       4.581   7.046  16.944  0.00  0.00    +0.000 A 
ATOM      7  C   UNL     1       5.567   6.061  16.846  0.00  0.00    +0.000 A 
ATOM      8  C   UNL     1       5.636   5.065  17.806  0.00  0.00    +0.000 A 
ATOM      9  C   UNL     1       4.729   5.065  18.867  0.00  0.00    +0.000 A 
ATOM     10  C   UNL     1       3.745   6.080  18.997  0.00  0.00    +0.000 A 
ATOM     11  N   UNL     1       1.117   9.235  19.322  0.00  0.00    +0.000 N 
ATOM     12  C   UNL     1       0.388   8.956  20.539  0.00  0.00    +0.000 C 
ATOM     13  C   UNL     1       1.149   7.813  21.236  0.00  0.00    +0.000 C 
ENDROOT
BRANCH   1  16
ATOM     14  O   UNL     1       2.135   3.401  22.215  0.00  0.00    +0.000 OA
ATOM     15  C   UNL     1       1.982   4.141  21.236  0.00  0.00    +0.000 C 
ATOM     16  N   UNL     1       2.816   5.224  21.107  0.00  0.00    +0.000 N 
ATOM     17  H   UNL     1       3.678   5.084  21.618  0.00  0.00    +0.000 HD
BRANCH  15  18
ATOM     18  C   UNL     1       0.945   3.796  20.155  0.00  0.00    +0.000 C 
BRANCH  18  19
ATOM     19  N   UNL     1       1.505   2.933  19.089  0.00  0.00    +0.000 NA
ATOM     20  C   UNL     1       1.783   3.717  17.876  0.00  0.00    +0.000 C 
ATOM     21  C   UNL     1       2.418   2.867  16.776  0.00  0.00    +0.000 C 
ATOM     22  C   UNL     1       3.686   2.191  17.278  0.00  0.00    +0.000 C 
ATOM     23  C   UNL     1       3.371   1.376  18.526  0.00  0.00    +0.000 C 
ATOM     24  C   UNL     1       2.705   2.246  19.592  0.00  0.00    +0.000 C 
ENDBRANCH  18  19
ENDBRANCH  15  18
ENDBRANCH   1  16
BRANCH  11  25
ATOM     25  C   UNL     1       0.840  10.299  18.399  0.00  0.00    +0.000 C 
BRANCH  25  26
ATOM     26  C   UNL     1      -0.232  11.200  18.967  0.00  0.00    +0.000 A 
ATOM     27  C   UNL     1      -1.579  10.981  18.644  0.00  0.00    +0.000 A 
ATOM     28  C   UNL     1      -2.563  11.873  19.065  0.00  0.00    +0.000 A 
ATOM     29  C   UNL     1      -2.211  12.993  19.816  0.00  0.00    +0.000 A 
ATOM     30  C   UNL     1      -0.878  13.212  20.160  0.00  0.00    +0.000 A 
ATOM     31  C   UNL     1       0.108  12.320  19.738  0.00  0.00    +0.000 A 
ENDBRANCH  25  26
ENDBRANCH  11  25
TORSDOF 5
ENDMDL
