MODEL 1
REMARK VINA RESULT:      -9.1      0.000      0.000
REMARK  Name = 
REMARK  7 active torsions:
REMARK  status: ('A' for Active; 'I' for Inactive)
REMARK    1  A    between atoms: C_1  and  C_2
REMARK    2  A    between atoms: C_5  and  N_6
REMARK    3  A    between atoms: C_7  and  C_9
REMARK    4  A    between atoms: C_9  and  N_10
REMARK    5  A    between atoms: C_16  and  S_17
REMARK    6  A    between atoms: S_17  and  N_20
REMARK    7  A    between atoms: C_23  and  C_24
REMARK                            x       y       z     vdW  Elec       q    Type
REMARK                         _______ _______ _______ _____ _____    ______ ____
ROOT
ATOM      1  N   UNL     1       0.829  10.475  20.361  0.00  0.00    +0.000 N 
ATOM      2  C   UNL     1       0.843  11.170  19.165  0.00  0.00    +0.000 A 
ATOM      3  O   UNL     1       0.621  12.362  19.026  0.00  0.00    +0.000 OA
ATOM      4  O   UNL     1       1.199  10.327  18.104  0.00  0.00    +0.000 OA
ATOM      5  C   UNL     1       1.454   9.122  18.745  0.00  0.00    +0.000 A 
ATOM      6  C   UNL     1       2.083   8.036  18.160  0.00  0.00    +0.000 A 
ATOM      7  C   UNL     1       2.381   6.932  18.979  0.00  0.00    +0.000 A 
ATOM      8  C   UNL     1       1.961   6.933  20.335  0.00  0.00    +0.000 A 
ATOM      9  C   UNL     1       1.336   8.063  20.903  0.00  0.00    +0.000 A 
ATOM     10  C   UNL     1       1.157   9.162  20.095  0.00  0.00    +0.000 A 
ENDROOT
BRANCH   7  11
ATOM     11  S   UNL     1       3.703   5.797  18.453  0.00  0.00    +0.000 S 
ATOM     12  O   UNL     1       4.303   6.459  17.314  0.00  0.00    +0.000 OA
ATOM     13  O   UNL     1       4.483   5.510  19.639  0.00  0.00    +0.000 OA
BRANCH  11  14
ATOM     14  N   UNL     1       3.060   4.352  17.896  0.00  0.00    +0.000 NA
ATOM     15  C   UNL     1       1.632   4.112  17.789  0.00  0.00    +0.000 C 
ATOM     16  C   UNL     1       1.187   3.564  19.133  0.00  0.00    +0.000 C 
ATOM     17  C   UNL     1       2.178   2.584  19.826  0.00  0.00    +0.000 C 
ATOM     18  C   UNL     1       2.433   3.014  21.279  0.00  0.00    +0.000 C 
ATOM     19  C   UNL     1       3.555   2.332  19.156  0.00  0.00    +0.000 C 
ATOM     20  C   UNL     1       3.813   3.097  17.875  0.00  0.00    +0.000 C 
ENDBRANCH  11  14
ENDBRANCH   7  11
BRANCH   1  21
ATOM     21  C   UNL     1       0.695  11.098  21.654  0.00  0.00    +0.000 C 
BRANCH  21  23
ATOM     22  N   UNL     1      -1.512  12.193  22.060  0.00  0.00    +0.000 N 
ATOM     23  C   UNL     1      -0.705  11.096  22.308  0.00  0.00    +0.000 C 
ATOM     24  O   UNL     1      -1.002  10.154  23.043  0.00  0.00    +0.000 OA
ATOM     25  H   UNL     1      -1.099  12.959  21.539  0.00  0.00    +0.000 HD
BRANCH  22  30
ATOM     26  C   UNL     1      -6.871  13.227  23.911  0.00  0.00    +0.000 C 
ATOM     27  C   UNL     1      -5.477  12.937  23.407  0.00  0.00    +0.000 A 
ATOM     28  C   UNL     1      -4.477  12.611  24.329  0.00  0.00    +0.000 A 
ATOM     29  C   UNL     1      -3.167  12.355  23.900  0.00  0.00    +0.000 A 
ATOM     30  C   UNL     1      -2.826  12.405  22.544  0.00  0.00    +0.000 A 
ATOM     31  C   UNL     1      -3.838  12.676  21.618  0.00  0.00    +0.000 A 
ATOM     32  C   UNL     1      -5.150  12.948  22.049  0.00  0.00    +0.000 A 
ATOM     33 CL   UNL     1      -6.335  13.328  20.847  0.00  0.00    +0.000 Cl
ENDBRANCH  22  30
ENDBRANCH  21  23
ENDBRANCH   1  21
TORSDOF 5
ENDMDL
MODEL 2
REMARK VINA RESULT:      -8.6      2.432      3.686
REMARK  Name = 
REMARK  7 active torsions:
REMARK  status: ('A' for Active; 'I' for Inactive)
REMARK    1  A    between atoms: C_1  and  C_2
REMARK    2  A    between atoms: C_5  and  N_6
REMARK    3  A    between atoms: C_7  and  C_9
REMARK    4  A    between atoms: C_9  and  N_10
REMARK    5  A    between atoms: C_16  and  S_17
REMARK    6  A    between atoms: S_17  and  N_20
REMARK    7  A    between atoms: C_23  and  C_24
REMARK                            x       y       z     vdW  Elec       q    Type
REMARK                         _______ _______ _______ _____ _____    ______ ____
ROOT
ATOM      1  N   UNL     1       1.085   9.966  20.091  0.00  0.00    +0.000 N 
ATOM      2  C   UNL     1       0.851   9.766  21.439  0.00  0.00    +0.000 A 
ATOM      3  O   UNL     1       0.334  10.565  22.204  0.00  0.00    +0.000 OA
ATOM      4  O   UNL     1       1.248   8.480  21.828  0.00  0.00    +0.000 OA
ATOM      5  C   UNL     1       1.667   7.915  20.630  0.00  0.00    +0.000 A 
ATOM      6  C   UNL     1       1.918   6.567  20.440  0.00  0.00    +0.000 A 
ATOM      7  C   UNL     1       2.213   6.134  19.134  0.00  0.00    +0.000 A 
ATOM      8  C   UNL     1       2.323   7.088  18.089  0.00  0.00    +0.000 A 
ATOM      9  C   UNL     1       2.045   8.452  18.315  0.00  0.00    +0.000 A 
ATOM     10  C   UNL     1       1.658   8.818  19.583  0.00  0.00    +0.000 A 
ENDROOT
BRANCH   7  11
ATOM     11  S   UNL     1       1.942   4.383  18.723  0.00  0.00    +0.000 S 
ATOM     12  O   UNL     1       1.197   3.866  19.853  0.00  0.00    +0.000 OA
ATOM     13  O   UNL     1       1.373   4.365  17.391  0.00  0.00    +0.000 OA
BRANCH  11  14
ATOM     14  N   UNL     1       3.396   3.550  18.675  0.00  0.00    +0.000 NA
ATOM     15  C   UNL     1       4.522   3.876  19.531  0.00  0.00    +0.000 C 
ATOM     16  C   UNL     1       5.328   4.932  18.797  0.00  0.00    +0.000 C 
ATOM     17  C   UNL     1       5.441   4.747  17.256  0.00  0.00    +0.000 C 
ATOM     18  C   UNL     1       5.064   6.048  16.528  0.00  0.00    +0.000 C 
ATOM     19  C   UNL     1       4.653   3.587  16.593  0.00  0.00    +0.000 C 
ATOM     20  C   UNL     1       3.816   2.741  17.530  0.00  0.00    +0.000 C 
ENDBRANCH  11  14
ENDBRANCH   7  11
BRANCH   1  21
ATOM     21  C   UNL     1       0.608  11.107  19.350  0.00  0.00    +0.000 C 
BRANCH  21  23
ATOM     22  N   UNL     1      -1.763  11.889  19.333  0.00  0.00    +0.000 N 
ATOM     23  C   UNL     1      -0.824  11.038  18.775  0.00  0.00    +0.000 C 
ATOM     24  O   UNL     1      -1.058  10.207  17.897  0.00  0.00    +0.000 OA
ATOM     25  H   UNL     1      -1.469  12.435  20.135  0.00  0.00    +0.000 HD
BRANCH  22  30
ATOM     26  C   UNL     1      -7.361  12.268  18.017  0.00  0.00    +0.000 C 
ATOM     27  C   UNL     1      -5.894  12.196  18.370  0.00  0.00    +0.000 A 
ATOM     28  C   UNL     1      -4.989  11.725  17.414  0.00  0.00    +0.000 A 
ATOM     29  C   UNL     1      -3.622  11.626  17.713  0.00  0.00    +0.000 A 
ATOM     30  C   UNL     1      -3.126  12.005  18.965  0.00  0.00    +0.000 A 
ATOM     31  C   UNL     1      -4.023  12.528  19.902  0.00  0.00    +0.000 A 
ATOM     32  C   UNL     1      -5.397  12.613  19.607  0.00  0.00    +0.000 A 
ATOM     33 CL   UNL     1      -6.452  13.222  20.837  0.00  0.00    +0.000 Cl
ENDBRANCH  22  30
ENDBRANCH  21  23
ENDBRANCH   1  21
TORSDOF 5
ENDMDL
MODEL 3
REMARK VINA RESULT:      -8.6      1.355      1.523
REMARK  Name = 
REMARK  7 active torsions:
REMARK  status: ('A' for Active; 'I' for Inactive)
REMARK    1  A    between atoms: C_1  and  C_2
REMARK    2  A    between atoms: C_5  and  N_6
REMARK    3  A    between atoms: C_7  and  C_9
REMARK    4  A    between atoms: C_9  and  N_10
REMARK    5  A    between atoms: C_16  and  S_17
REMARK    6  A    between atoms: S_17  and  N_20
REMARK    7  A    between atoms: C_23  and  C_24
REMARK                            x       y       z     vdW  Elec       q    Type
REMARK                         _______ _______ _______ _____ _____    ______ ____
ROOT
ATOM      1  N   UNL     1       1.174  10.457  19.836  0.00  0.00    +0.000 N 
ATOM      2  C   UNL     1       1.396  11.104  18.634  0.00  0.00    +0.000 A 
ATOM      3  O   UNL     1       1.287  12.303  18.434  0.00  0.00    +0.000 OA
ATOM      4  O   UNL     1       1.818  10.199  17.652  0.00  0.00    +0.000 OA
ATOM      5  C   UNL     1       1.894   9.002  18.353  0.00  0.00    +0.000 A 
ATOM      6  C   UNL     1       2.506   7.852  17.885  0.00  0.00    +0.000 A 
ATOM      7  C   UNL     1       2.609   6.760  18.766  0.00  0.00    +0.000 A 
ATOM      8  C   UNL     1       2.020   6.843  20.054  0.00  0.00    +0.000 A 
ATOM      9  C   UNL     1       1.417   8.036  20.505  0.00  0.00    +0.000 A 
ATOM     10  C   UNL     1       1.430   9.114  19.651  0.00  0.00    +0.000 A 
ENDROOT
BRANCH   7  11
ATOM     11  S   UNL     1       3.894   5.512  18.449  0.00  0.00    +0.000 S 
ATOM     12  O   UNL     1       4.576   6.000  17.268  0.00  0.00    +0.000 OA
ATOM     13  O   UNL     1       4.607   5.340  19.698  0.00  0.00    +0.000 OA
BRANCH  11  14
ATOM     14  N   UNL     1       3.206   4.039  18.040  0.00  0.00    +0.000 NA
ATOM     15  C   UNL     1       1.783   3.868  17.812  0.00  0.00    +0.000 C 
ATOM     16  C   UNL     1       1.164   3.560  19.163  0.00  0.00    +0.000 C 
ATOM     17  C   UNL     1       2.004   2.642  20.098  0.00  0.00    +0.000 C 
ATOM     18  C   UNL     1       2.142   3.275  21.492  0.00  0.00    +0.000 C 
ATOM     19  C   UNL     1       3.419   2.211  19.631  0.00  0.00    +0.000 C 
ATOM     20  C   UNL     1       3.862   2.754  18.288  0.00  0.00    +0.000 C 
ENDBRANCH  11  14
ENDBRANCH   7  11
BRANCH   1  21
ATOM     21  C   UNL     1       0.924  11.136  21.083  0.00  0.00    +0.000 C 
BRANCH  21  23
ATOM     22  N   UNL     1      -0.638  12.574  22.397  0.00  0.00    +0.000 N 
ATOM     23  C   UNL     1      -0.475  11.756  21.291  0.00  0.00    +0.000 C 
ATOM     24  O   UNL     1      -1.370  11.453  20.501  0.00  0.00    +0.000 OA
ATOM     25  H   UNL     1       0.145  12.642  23.037  0.00  0.00    +0.000 HD
BRANCH  22  30
ATOM     26  C   UNL     1      -5.560  15.166  23.902  0.00  0.00    +0.000 C 
ATOM     27  C   UNL     1      -4.267  14.479  23.535  0.00  0.00    +0.000 A 
ATOM     28  C   UNL     1      -3.299  15.193  22.820  0.00  0.00    +0.000 A 
ATOM     29  C   UNL     1      -2.094  14.582  22.444  0.00  0.00    +0.000 A 
ATOM     30  C   UNL     1      -1.821  13.252  22.783  0.00  0.00    +0.000 A 
ATOM     31  C   UNL     1      -2.763  12.556  23.545  0.00  0.00    +0.000 A 
ATOM     32  C   UNL     1      -3.980  13.164  23.909  0.00  0.00    +0.000 A 
ATOM     33 CL   UNL     1      -5.120  12.221  24.807  0.00  0.00    +0.000 Cl
ENDBRANCH  22  30
ENDBRANCH  21  23
ENDBRANCH   1  21
TORSDOF 5
ENDMDL
MODEL 4
REMARK VINA RESULT:      -8.5      1.167      1.378
REMARK  Name = 
REMARK  7 active torsions:
REMARK  status: ('A' for Active; 'I' for Inactive)
REMARK    1  A    between atoms: C_1  and  C_2
REMARK    2  A    between atoms: C_5  and  N_6
REMARK    3  A    between atoms: C_7  and  C_9
REMARK    4  A    between atoms: C_9  and  N_10
REMARK    5  A    between atoms: C_16  and  S_17
REMARK    6  A    between atoms: S_17  and  N_20
REMARK    7  A    between atoms: C_23  and  C_24
REMARK                            x       y       z     vdW  Elec       q    Type
REMARK                         _______ _______ _______ _____ _____    ______ ____
ROOT
ATOM      1  N   UNL     1       0.970  10.444  20.220  0.00  0.00    +0.000 N 
ATOM      2  C   UNL     1       0.964  11.098  19.001  0.00  0.00    +0.000 A 
ATOM      3  O   UNL     1       0.759  12.289  18.828  0.00  0.00    +0.000 OA
ATOM      4  O   UNL     1       1.275  10.214  17.961  0.00  0.00    +0.000 OA
ATOM      5  C   UNL     1       1.526   9.026  18.634  0.00  0.00    +0.000 A 
ATOM      6  C   UNL     1       2.119   7.909  18.070  0.00  0.00    +0.000 A 
ATOM      7  C   UNL     1       2.419   6.828  18.918  0.00  0.00    +0.000 A 
ATOM      8  C   UNL     1       2.036   6.883  20.283  0.00  0.00    +0.000 A 
ATOM      9  C   UNL     1       1.448   8.042  20.830  0.00  0.00    +0.000 A 
ATOM     10  C   UNL     1       1.267   9.117  19.990  0.00  0.00    +0.000 A 
ENDROOT
BRANCH   7  11
ATOM     11  S   UNL     1       3.705   5.651  18.395  0.00  0.00    +0.000 S 
ATOM     12  O   UNL     1       4.276   6.256  17.210  0.00  0.00    +0.000 OA
ATOM     13  O   UNL     1       4.521   5.400  19.565  0.00  0.00    +0.000 OA
BRANCH  11  14
ATOM     14  N   UNL     1       3.022   4.196  17.919  0.00  0.00    +0.000 NA
ATOM     15  C   UNL     1       1.588   3.988  17.829  0.00  0.00    +0.000 C 
ATOM     16  C   UNL     1       1.133   3.527  19.203  0.00  0.00    +0.000 C 
ATOM     17  C   UNL     1       2.101   2.560  19.946  0.00  0.00    +0.000 C 
ATOM     18  C   UNL     1       2.373   3.063  21.373  0.00  0.00    +0.000 C 
ATOM     19  C   UNL     1       3.468   2.236  19.288  0.00  0.00    +0.000 C 
ATOM     20  C   UNL     1       3.742   2.922  17.966  0.00  0.00    +0.000 C 
ENDBRANCH  11  14
ENDBRANCH   7  11
BRANCH   1  21
ATOM     21  C   UNL     1       0.883  11.112  21.494  0.00  0.00    +0.000 C 
BRANCH  21  23
ATOM     22  N   UNL     1      -1.121  12.599  21.565  0.00  0.00    +0.000 N 
ATOM     23  C   UNL     1      -0.526  11.440  22.035  0.00  0.00    +0.000 C 
ATOM     24  O   UNL     1      -1.015  10.689  22.880  0.00  0.00    +0.000 OA
ATOM     25  H   UNL     1      -0.560  13.194  20.967  0.00  0.00    +0.000 HD
BRANCH  22  30
ATOM     26  C   UNL     1      -6.291  14.569  23.181  0.00  0.00    +0.000 C 
ATOM     27  C   UNL     1      -4.927  14.080  22.757  0.00  0.00    +0.000 A 
ATOM     28  C   UNL     1      -4.825  13.228  21.652  0.00  0.00    +0.000 A 
ATOM     29  C   UNL     1      -3.577  12.738  21.242  0.00  0.00    +0.000 A 
ATOM     30  C   UNL     1      -2.402  13.095  21.913  0.00  0.00    +0.000 A 
ATOM     31  C   UNL     1      -2.498  13.990  22.983  0.00  0.00    +0.000 A 
ATOM     32  C   UNL     1      -3.753  14.470  23.405  0.00  0.00    +0.000 A 
ATOM     33 CL   UNL     1      -3.795  15.534  24.770  0.00  0.00    +0.000 Cl
ENDBRANCH  22  30
ENDBRANCH  21  23
ENDBRANCH   1  21
TORSDOF 5
ENDMDL
MODEL 5
REMARK VINA RESULT:      -8.4      1.594      1.860
REMARK  Name = 
REMARK  7 active torsions:
REMARK  status: ('A' for Active; 'I' for Inactive)
REMARK    1  A    between atoms: C_1  and  C_2
REMARK    2  A    between atoms: C_5  and  N_6
REMARK    3  A    between atoms: C_7  and  C_9
REMARK    4  A    between atoms: C_9  and  N_10
REMARK    5  A    between atoms: C_16  and  S_17
REMARK    6  A    between atoms: S_17  and  N_20
REMARK    7  A    between atoms: C_23  and  C_24
REMARK                            x       y       z     vdW  Elec       q    Type
REMARK                         _______ _______ _______ _____ _____    ______ ____
ROOT
ATOM      1  N   UNL     1       1.126  10.249  19.732  0.00  0.00    +0.000 N 
ATOM      2  C   UNL     1       1.341  10.888  18.525  0.00  0.00    +0.000 A 
ATOM      3  O   UNL     1       1.145  12.071  18.295  0.00  0.00    +0.000 OA
ATOM      4  O   UNL     1       1.867  10.000  17.578  0.00  0.00    +0.000 OA
ATOM      5  C   UNL     1       2.011   8.827  18.307  0.00  0.00    +0.000 A 
ATOM      6  C   UNL     1       2.727   7.720  17.887  0.00  0.00    +0.000 A 
ATOM      7  C   UNL     1       2.884   6.657  18.795  0.00  0.00    +0.000 A 
ATOM      8  C   UNL     1       2.243   6.718  20.060  0.00  0.00    +0.000 A 
ATOM      9  C   UNL     1       1.534   7.868  20.463  0.00  0.00    +0.000 A 
ATOM     10  C   UNL     1       1.493   8.927  19.586  0.00  0.00    +0.000 A 
ENDROOT
BRANCH   7  11
ATOM     11  S   UNL     1       4.273   5.508  18.550  0.00  0.00    +0.000 S 
ATOM     12  O   UNL     1       5.007   6.075  17.437  0.00  0.00    +0.000 OA
ATOM     13  O   UNL     1       4.899   5.349  19.846  0.00  0.00    +0.000 OA
BRANCH  11  14
ATOM     14  N   UNL     1       3.722   4.004  18.055  0.00  0.00    +0.000 NA
ATOM     15  C   UNL     1       2.548   3.828  17.219  0.00  0.00    +0.000 C 
ATOM     16  C   UNL     1       1.360   3.736  18.160  0.00  0.00    +0.000 C 
ATOM     17  C   UNL     1       1.604   2.951  19.482  0.00  0.00    +0.000 C 
ATOM     18  C   UNL     1       1.149   3.781  20.693  0.00  0.00    +0.000 C 
ATOM     19  C   UNL     1       3.035   2.428  19.776  0.00  0.00    +0.000 C 
ATOM     20  C   UNL     1       4.083   2.758  18.733  0.00  0.00    +0.000 C 
ENDBRANCH  11  14
ENDBRANCH   7  11
BRANCH   1  21
ATOM     21  C   UNL     1       0.779  10.930  20.955  0.00  0.00    +0.000 C 
BRANCH  21  23
ATOM     22  N   UNL     1      -1.372  11.870  20.104  0.00  0.00    +0.000 N 
ATOM     23  C   UNL     1      -0.706  11.295  21.173  0.00  0.00    +0.000 C 
ATOM     24  O   UNL     1      -1.195  11.102  22.287  0.00  0.00    +0.000 OA
ATOM     25  H   UNL     1      -0.819  12.090  19.283  0.00  0.00    +0.000 HD
BRANCH  22  30
ATOM     26  C   UNL     1      -6.862  13.589  19.769  0.00  0.00    +0.000 C 
ATOM     27  C   UNL     1      -5.432  13.111  19.853  0.00  0.00    +0.000 A 
ATOM     28  C   UNL     1      -4.655  13.489  20.952  0.00  0.00    +0.000 A 
ATOM     29  C   UNL     1      -3.317  13.081  21.054  0.00  0.00    +0.000 A 
ATOM     30  C   UNL     1      -2.728  12.279  20.070  0.00  0.00    +0.000 A 
ATOM     31  C   UNL     1      -3.521  11.856  19.000  0.00  0.00    +0.000 A 
ATOM     32  C   UNL     1      -4.860  12.278  18.889  0.00  0.00    +0.000 A 
ATOM     33 CL   UNL     1      -5.762  11.756  17.507  0.00  0.00    +0.000 Cl
ENDBRANCH  22  30
ENDBRANCH  21  23
ENDBRANCH   1  21
TORSDOF 5
ENDMDL
MODEL 6
REMARK VINA RESULT:      -8.3      3.746      4.716
REMARK  Name = 
REMARK  7 active torsions:
REMARK  status: ('A' for Active; 'I' for Inactive)
REMARK    1  A    between atoms: C_1  and  C_2
REMARK    2  A    between atoms: C_5  and  N_6
REMARK    3  A    between atoms: C_7  and  C_9
REMARK    4  A    between atoms: C_9  and  N_10
REMARK    5  A    between atoms: C_16  and  S_17
REMARK    6  A    between atoms: S_17  and  N_20
REMARK    7  A    between atoms: C_23  and  C_24
REMARK                            x       y       z     vdW  Elec       q    Type
REMARK                         _______ _______ _______ _____ _____    ______ ____
ROOT
ATOM      1  N   UNL     1       0.674   9.109  19.860  0.00  0.00    +0.000 N 
ATOM      2  C   UNL     1       0.449   8.574  21.115  0.00  0.00    +0.000 A 
ATOM      3  O   UNL     1      -0.428   8.914  21.893  0.00  0.00    +0.000 OA
ATOM      4  O   UNL     1       1.346   7.531  21.380  0.00  0.00    +0.000 OA
ATOM      5  C   UNL     1       2.065   7.439  20.196  0.00  0.00    +0.000 A 
ATOM      6  C   UNL     1       2.905   6.390  19.863  0.00  0.00    +0.000 A 
ATOM      7  C   UNL     1       3.463   6.382  18.572  0.00  0.00    +0.000 A 
ATOM      8  C   UNL     1       3.218   7.473  17.697  0.00  0.00    +0.000 A 
ATOM      9  C   UNL     1       2.344   8.517  18.062  0.00  0.00    +0.000 A 
ATOM     10  C   UNL     1       1.736   8.434  19.293  0.00  0.00    +0.000 A 
ENDROOT
BRANCH   7  11
ATOM     11  S   UNL     1       4.034   4.796  17.887  0.00  0.00    +0.000 S 
ATOM     12  O   UNL     1       4.557   5.144  16.582  0.00  0.00    +0.000 OA
ATOM     13  O   UNL     1       4.891   4.207  18.895  0.00  0.00    +0.000 OA
BRANCH  11  14
ATOM     14  N   UNL     1       2.743   3.757  17.635  0.00  0.00    +0.000 NA
ATOM     15  C   UNL     1       1.363   4.140  17.870  0.00  0.00    +0.000 C 
ATOM     16  C   UNL     1       1.073   3.830  19.327  0.00  0.00    +0.000 C 
ATOM     17  C   UNL     1       1.713   2.523  19.881  0.00  0.00    +0.000 C 
ATOM     18  C   UNL     1       2.466   2.807  21.191  0.00  0.00    +0.000 C 
ATOM     19  C   UNL     1       2.660   1.716  18.955  0.00  0.00    +0.000 C 
ATOM     20  C   UNL     1       2.889   2.301  17.577  0.00  0.00    +0.000 C 
ENDBRANCH  11  14
ENDBRANCH   7  11
BRANCH   1  21
ATOM     21  C   UNL     1      -0.202  10.057  19.218  0.00  0.00    +0.000 C 
BRANCH  21  23
ATOM     22  N   UNL     1       0.412  12.362  18.483  0.00  0.00    +0.000 N 
ATOM     23  C   UNL     1       0.010  11.554  19.533  0.00  0.00    +0.000 C 
ATOM     24  O   UNL     1      -0.139  11.931  20.695  0.00  0.00    +0.000 OA
ATOM     25  H   UNL     1       0.621  11.903  17.603  0.00  0.00    +0.000 HD
BRANCH  22  30
ATOM     26  C   UNL     1       1.575  17.996  18.830  0.00  0.00    +0.000 C 
ATOM     27  C   UNL     1       1.286  16.518  18.714  0.00  0.00    +0.000 A 
ATOM     28  C   UNL     1      -0.042  16.081  18.764  0.00  0.00    +0.000 A 
ATOM     29  C   UNL     1      -0.347  14.715  18.680  0.00  0.00    +0.000 A 
ATOM     30  C   UNL     1       0.661  13.756  18.533  0.00  0.00    +0.000 A 
ATOM     31  C   UNL     1       1.984  14.197  18.428  0.00  0.00    +0.000 A 
ATOM     32  C   UNL     1       2.291  15.567  18.528  0.00  0.00    +0.000 A 
ATOM     33 CL   UNL     1       3.957  16.031  18.442  0.00  0.00    +0.000 Cl
ENDBRANCH  22  30
ENDBRANCH  21  23
ENDBRANCH   1  21
TORSDOF 5
ENDMDL
MODEL 7
REMARK VINA RESULT:      -8.3      3.463      4.477
REMARK  Name = 
REMARK  7 active torsions:
REMARK  status: ('A' for Active; 'I' for Inactive)
REMARK    1  A    between atoms: C_1  and  C_2
REMARK    2  A    between atoms: C_5  and  N_6
REMARK    3  A    between atoms: C_7  and  C_9
REMARK    4  A    between atoms: C_9  and  N_10
REMARK    5  A    between atoms: C_16  and  S_17
REMARK    6  A    between atoms: S_17  and  N_20
REMARK    7  A    between atoms: C_23  and  C_24
REMARK                            x       y       z     vdW  Elec       q    Type
REMARK                         _______ _______ _______ _____ _____    ______ ____
ROOT
ATOM      1  N   UNL     1       0.762   9.132  19.781  0.00  0.00    +0.000 N 
ATOM      2  C   UNL     1       0.512   8.606  21.036  0.00  0.00    +0.000 A 
ATOM      3  O   UNL     1      -0.364   8.969  21.804  0.00  0.00    +0.000 OA
ATOM      4  O   UNL     1       1.382   7.544  21.312  0.00  0.00    +0.000 OA
ATOM      5  C   UNL     1       2.110   7.432  20.135  0.00  0.00    +0.000 A 
ATOM      6  C   UNL     1       2.930   6.363  19.814  0.00  0.00    +0.000 A 
ATOM      7  C   UNL     1       3.500   6.339  18.528  0.00  0.00    +0.000 A 
ATOM      8  C   UNL     1       3.288   7.432  17.648  0.00  0.00    +0.000 A 
ATOM      9  C   UNL     1       2.435   8.497  18.001  0.00  0.00    +0.000 A 
ATOM     10  C   UNL     1       1.813   8.432  19.227  0.00  0.00    +0.000 A 
ENDROOT
BRANCH   7  11
ATOM     11  S   UNL     1       4.041   4.738  17.853  0.00  0.00    +0.000 S 
ATOM     12  O   UNL     1       4.549   5.065  16.536  0.00  0.00    +0.000 OA
ATOM     13  O   UNL     1       4.906   4.150  18.855  0.00  0.00    +0.000 OA
BRANCH  11  14
ATOM     14  N   UNL     1       2.734   3.712  17.632  0.00  0.00    +0.000 NA
ATOM     15  C   UNL     1       1.363   4.113  17.887  0.00  0.00    +0.000 C 
ATOM     16  C   UNL     1       1.094   3.819  19.352  0.00  0.00    +0.000 C 
ATOM     17  C   UNL     1       1.728   2.510  19.907  0.00  0.00    +0.000 C 
ATOM     18  C   UNL     1       2.507   2.795  21.201  0.00  0.00    +0.000 C 
ATOM     19  C   UNL     1       2.649   1.683  18.971  0.00  0.00    +0.000 C 
ATOM     20  C   UNL     1       2.862   2.254  17.585  0.00  0.00    +0.000 C 
ENDBRANCH  11  14
ENDBRANCH   7  11
BRANCH   1  21
ATOM     21  C   UNL     1      -0.087  10.098  19.128  0.00  0.00    +0.000 C 
BRANCH  21  23
ATOM     22  N   UNL     1       0.593  12.403  18.453  0.00  0.00    +0.000 N 
ATOM     23  C   UNL     1       0.130  11.588  19.472  0.00  0.00    +0.000 C 
ATOM     24  O   UNL     1      -0.070  11.952  20.631  0.00  0.00    +0.000 OA
ATOM     25  H   UNL     1       0.837  11.953  17.579  0.00  0.00    +0.000 HD
BRANCH  22  30
ATOM     26  C   UNL     1       1.513  18.089  18.643  0.00  0.00    +0.000 C 
ATOM     27  C   UNL     1       1.256  16.601  18.618  0.00  0.00    +0.000 A 
ATOM     28  C   UNL     1       2.341  15.729  18.475  0.00  0.00    +0.000 A 
ATOM     29  C   UNL     1       2.139  14.342  18.427  0.00  0.00    +0.000 A 
ATOM     30  C   UNL     1       0.857  13.793  18.533  0.00  0.00    +0.000 A 
ATOM     31  C   UNL     1      -0.220  14.661  18.732  0.00  0.00    +0.000 A 
ATOM     32  C   UNL     1      -0.020  16.055  18.765  0.00  0.00    +0.000 A 
ATOM     33 CL   UNL     1      -1.410  17.068  18.961  0.00  0.00    +0.000 Cl
ENDBRANCH  22  30
ENDBRANCH  21  23
ENDBRANCH   1  21
TORSDOF 5
ENDMDL
MODEL 8
REMARK VINA RESULT:      -8.3      2.335      3.242
REMARK  Name = 
REMARK  7 active torsions:
REMARK  status: ('A' for Active; 'I' for Inactive)
REMARK    1  A    between atoms: C_1  and  C_2
REMARK    2  A    between atoms: C_5  and  N_6
REMARK    3  A    between atoms: C_7  and  C_9
REMARK    4  A    between atoms: C_9  and  N_10
REMARK    5  A    between atoms: C_16  and  S_17
REMARK    6  A    between atoms: S_17  and  N_20
REMARK    7  A    between atoms: C_23  and  C_24
REMARK                            x       y       z     vdW  Elec       q    Type
REMARK                         _______ _______ _______ _____ _____    ______ ____
ROOT
ATOM      1  N   UNL     1       1.122   9.440  19.083  0.00  0.00    +0.000 N 
ATOM      2  C   UNL     1       0.600   9.090  20.315  0.00  0.00    +0.000 A 
ATOM      3  O   UNL     1      -0.327   9.644  20.884  0.00  0.00    +0.000 OA
ATOM      4  O   UNL     1       1.251   7.962  20.830  0.00  0.00    +0.000 OA
ATOM      5  C   UNL     1       2.136   7.631  19.812  0.00  0.00    +0.000 A 
ATOM      6  C   UNL     1       2.834   6.437  19.731  0.00  0.00    +0.000 A 
ATOM      7  C   UNL     1       3.594   6.200  18.572  0.00  0.00    +0.000 A 
ATOM      8  C   UNL     1       3.687   7.209  17.578  0.00  0.00    +0.000 A 
ATOM      9  C   UNL     1       2.951   8.407  17.684  0.00  0.00    +0.000 A 
ATOM     10  C   UNL     1       2.137   8.555  18.784  0.00  0.00    +0.000 A 
ENDROOT
BRANCH   7  11
ATOM     11  S   UNL     1       4.000   4.479  18.142  0.00  0.00    +0.000 S 
ATOM     12  O   UNL     1       4.668   4.585  16.861  0.00  0.00    +0.000 OA
ATOM     13  O   UNL     1       4.687   3.928  19.292  0.00  0.00    +0.000 OA
BRANCH  11  14
ATOM     14  N   UNL     1       2.606   3.582  17.893  0.00  0.00    +0.000 NA
ATOM     15  C   UNL     1       1.273   4.123  18.088  0.00  0.00    +0.000 C 
ATOM     16  C   UNL     1       0.925   3.894  19.548  0.00  0.00    +0.000 C 
ATOM     17  C   UNL     1       1.405   2.542  20.153  0.00  0.00    +0.000 C 
ATOM     18  C   UNL     1       2.162   2.781  21.470  0.00  0.00    +0.000 C 
ATOM     19  C   UNL     1       2.272   1.606  19.271  0.00  0.00    +0.000 C 
ATOM     20  C   UNL     1       2.589   2.118  17.882  0.00  0.00    +0.000 C 
ENDBRANCH  11  14
ENDBRANCH   7  11
BRANCH   1  21
ATOM     21  C   UNL     1       0.539  10.430  18.212  0.00  0.00    +0.000 C 
BRANCH  21  23
ATOM     22  N   UNL     1      -1.681  11.521  18.550  0.00  0.00    +0.000 N 
ATOM     23  C   UNL     1      -0.997  10.425  18.051  0.00  0.00    +0.000 C 
ATOM     24  O   UNL     1      -1.525   9.437  17.540  0.00  0.00    +0.000 OA
ATOM     25  H   UNL     1      -1.138  12.208  19.059  0.00  0.00    +0.000 HD
BRANCH  22  30
ATOM     26  C   UNL     1      -7.393  12.285  18.567  0.00  0.00    +0.000 C 
ATOM     27  C   UNL     1      -5.893  12.111  18.574  0.00  0.00    +0.000 A 
ATOM     28  C   UNL     1      -5.251  11.721  17.394  0.00  0.00    +0.000 A 
ATOM     29  C   UNL     1      -3.862  11.530  17.368  0.00  0.00    +0.000 A 
ATOM     30  C   UNL     1      -3.081  11.736  18.510  0.00  0.00    +0.000 A 
ATOM     31  C   UNL     1      -3.716  12.180  19.674  0.00  0.00    +0.000 A 
ATOM     32  C   UNL     1      -5.112  12.357  19.705  0.00  0.00    +0.000 A 
ATOM     33 CL   UNL     1      -5.832  12.857  21.198  0.00  0.00    +0.000 Cl
ENDBRANCH  22  30
ENDBRANCH  21  23
ENDBRANCH   1  21
TORSDOF 5
ENDMDL
MODEL 9
REMARK VINA RESULT:      -8.3      1.788      2.585
REMARK  Name = 
REMARK  7 active torsions:
REMARK  status: ('A' for Active; 'I' for Inactive)
REMARK    1  A    between atoms: C_1  and  C_2
REMARK    2  A    between atoms: C_5  and  N_6
REMARK    3  A    between atoms: C_7  and  C_9
REMARK    4  A    between atoms: C_9  and  N_10
REMARK    5  A    between atoms: C_16  and  S_17
REMARK    6  A    between atoms: S_17  and  N_20
REMARK    7  A    between atoms: C_23  and  C_24
REMARK                            x       y       z     vdW  Elec       q    Type
REMARK                         _______ _______ _______ _____ _____    ______ ____
ROOT
ATOM      1  N   UNL     1       1.079  10.186  20.053  0.00  0.00    +0.000 N 
ATOM      2  C   UNL     1       1.163  10.808  18.821  0.00  0.00    +0.000 A 
ATOM      3  O   UNL     1       0.997  11.997  18.604  0.00  0.00    +0.000 OA
ATOM      4  O   UNL     1       1.518   9.889  17.824  0.00  0.00    +0.000 OA
ATOM      5  C   UNL     1       1.699   8.715  18.542  0.00  0.00    +0.000 A 
ATOM      6  C   UNL     1       2.301   7.571  18.045  0.00  0.00    +0.000 A 
ATOM      7  C   UNL     1       2.524   6.507  18.938  0.00  0.00    +0.000 A 
ATOM      8  C   UNL     1       2.059   6.607  20.275  0.00  0.00    +0.000 A 
ATOM      9  C   UNL     1       1.464   7.793  20.753  0.00  0.00    +0.000 A 
ATOM     10  C   UNL     1       1.359   8.847  19.876  0.00  0.00    +0.000 A 
ENDROOT
BRANCH   7  11
ATOM     11  S   UNL     1       3.812   5.290  18.527  0.00  0.00    +0.000 S 
ATOM     12  O   UNL     1       4.050   4.594  19.774  0.00  0.00    +0.000 OA
ATOM     13  O   UNL     1       3.336   4.577  17.360  0.00  0.00    +0.000 OA
BRANCH  11  14
ATOM     14  N   UNL     1       5.246   6.056  18.114  0.00  0.00    +0.000 NA
ATOM     15  C   UNL     1       5.355   6.981  17.001  0.00  0.00    +0.000 C 
ATOM     16  C   UNL     1       5.678   6.144  15.776  0.00  0.00    +0.000 C 
ATOM     17  C   UNL     1       6.655   4.954  16.009  0.00  0.00    +0.000 C 
ATOM     18  C   UNL     1       6.068   3.656  15.432  0.00  0.00    +0.000 C 
ATOM     19  C   UNL     1       7.126   4.659  17.457  0.00  0.00    +0.000 C 
ATOM     20  C   UNL     1       6.561   5.567  18.530  0.00  0.00    +0.000 C 
ENDBRANCH  11  14
ENDBRANCH   7  11
BRANCH   1  21
ATOM     21  C   UNL     1       0.928  10.891  21.302  0.00  0.00    +0.000 C 
BRANCH  21  23
ATOM     22  N   UNL     1      -1.191  12.103  21.824  0.00  0.00    +0.000 N 
ATOM     23  C   UNL     1      -0.478  10.922  21.941  0.00  0.00    +0.000 C 
ATOM     24  O   UNL     1      -0.861   9.924  22.552  0.00  0.00    +0.000 OA
ATOM     25  H   UNL     1      -0.711  12.890  21.405  0.00  0.00    +0.000 HD
BRANCH  22  30
ATOM     26  C   UNL     1      -6.495  13.315  23.727  0.00  0.00    +0.000 C 
ATOM     27  C   UNL     1      -5.117  12.978  23.210  0.00  0.00    +0.000 A 
ATOM     28  C   UNL     1      -4.113  12.644  24.124  0.00  0.00    +0.000 A 
ATOM     29  C   UNL     1      -2.816  12.345  23.683  0.00  0.00    +0.000 A 
ATOM     30  C   UNL     1      -2.493  12.359  22.322  0.00  0.00    +0.000 A 
ATOM     31  C   UNL     1      -3.510  12.639  21.404  0.00  0.00    +0.000 A 
ATOM     32  C   UNL     1      -4.808  12.955  21.848  0.00  0.00    +0.000 A 
ATOM     33 CL   UNL     1      -6.000  13.342  20.654  0.00  0.00    +0.000 Cl
ENDBRANCH  22  30
ENDBRANCH  21  23
ENDBRANCH   1  21
TORSDOF 5
ENDMDL
