MODEL 1
REMARK VINA RESULT:      -8.9      0.000      0.000
REMARK  Name = 
REMARK  6 active torsions:
REMARK  status: ('A' for Active; 'I' for Inactive)
REMARK    1  A    between atoms: N_1  and  C_2
REMARK    2  A    between atoms: C_5  and  C_6
REMARK    3  A    between atoms: C_9  and  C_10
REMARK    4  A    between atoms: C_14  and  O_15
REMARK    5  A    between atoms: C_20  and  C_21
REMARK    6  A    between atoms: C_24  and  C_25
REMARK                            x       y       z     vdW  Elec       q    Type
REMARK                         _______ _______ _______ _____ _____    ______ ____
ROOT
ATOM      1  C   UNL     1      -0.177  12.974  18.535  0.00  0.00    +0.000 A 
ATOM      2  N   UNL     1       1.165  12.913  18.599  0.00  0.00    +0.000 NA
ATOM      3  C   UNL     1       1.697  11.675  18.738  0.00  0.00    +0.000 A 
ATOM      4  C   UNL     1       0.941  10.511  18.825  0.00  0.00    +0.000 A 
ATOM      5  N   UNL     1      -0.414  10.577  18.751  0.00  0.00    +0.000 NA
ATOM      6  C   UNL     1      -0.984  11.814  18.624  0.00  0.00    +0.000 A 
ENDROOT
BRANCH   4   7
ATOM      7  C   UNL     1       1.541   9.171  18.976  0.00  0.00    +0.000 A 
ATOM      8  C   UNL     1       2.200   8.532  17.909  0.00  0.00    +0.000 A 
ATOM      9  C   UNL     1       2.734   7.247  18.046  0.00  0.00    +0.000 A 
ATOM     10  C   UNL     1       2.618   6.563  19.260  0.00  0.00    +0.000 A 
ATOM     11  C   UNL     1       2.013   7.192  20.347  0.00  0.00    +0.000 A 
ATOM     12  C   UNL     1       1.479   8.479  20.202  0.00  0.00    +0.000 A 
BRANCH  10  13
ATOM     13  C   UNL     1       3.180   5.196  19.420  0.00  0.00    +0.000 C 
ATOM     14  O   UNL     1       4.387   5.030  19.542  0.00  0.00    +0.000 OA
ATOM     15  N   UNL     1       2.268   4.164  19.381  0.00  0.00    +0.000 N 
ATOM     16  C   UNL     1       2.572   2.739  19.550  0.00  0.00    +0.000 C 
ATOM     17  C   UNL     1       1.040   2.580  19.715  0.00  0.00    +0.000 C 
ATOM     18  C   UNL     1       1.068   4.040  20.222  0.00  0.00    +0.000 C 
BRANCH  17  19
ATOM     19  O   UNL     1       0.282   2.353  18.500  0.00  0.00    +0.000 OA
ATOM     20  H   UNL     1      -0.146   1.487  18.645  0.00  0.00    +0.000 HD
ENDBRANCH  17  19
ENDBRANCH  10  13
ENDBRANCH   4   7
BRANCH   6  21
ATOM     21  C   UNL     1      -2.467  11.816  18.527  0.00  0.00    +0.000 A 
ATOM     22  C   UNL     1      -3.150  11.311  17.407  0.00  0.00    +0.000 A 
ATOM     23  C   UNL     1      -4.547  11.226  17.367  0.00  0.00    +0.000 A 
ATOM     24  C   UNL     1      -5.318  11.690  18.436  0.00  0.00    +0.000 A 
ATOM     25  C   UNL     1      -4.661  12.258  19.535  0.00  0.00    +0.000 A 
ATOM     26  C   UNL     1      -3.260  12.317  19.576  0.00  0.00    +0.000 A 
BRANCH  24  27
ATOM     27  C   UNL     1      -6.822  11.589  18.410  0.00  0.00    +0.000 C 
ATOM     28  F   UNL     1      -7.418  12.042  19.548  0.00  0.00    +0.000 F 
ATOM     29  F   UNL     1      -7.375  12.307  17.393  0.00  0.00    +0.000 F 
ATOM     30  F   UNL     1      -7.259  10.308  18.245  0.00  0.00    +0.000 F 
ENDBRANCH  24  27
ENDBRANCH   6  21
BRANCH   1  31
ATOM     31  N   UNL     1      -0.665  14.270  18.390  0.00  0.00    +0.000 N 
ATOM     32  H   UNL     1       0.035  14.899  18.776  0.00  0.00    +0.000 HD
ATOM     33  H   UNL     1      -0.882  14.486  17.423  0.00  0.00    +0.000 HD
ENDBRANCH   1  31
TORSDOF 6
ENDMDL
MODEL 2
REMARK VINA RESULT:      -8.7      0.220      1.108
REMARK  Name = 
REMARK  6 active torsions:
REMARK  status: ('A' for Active; 'I' for Inactive)
REMARK    1  A    between atoms: N_1  and  C_2
REMARK    2  A    between atoms: C_5  and  C_6
REMARK    3  A    between atoms: C_9  and  C_10
REMARK    4  A    between atoms: C_14  and  O_15
REMARK    5  A    between atoms: C_20  and  C_21
REMARK    6  A    between atoms: C_24  and  C_25
REMARK                            x       y       z     vdW  Elec       q    Type
REMARK                         _______ _______ _______ _____ _____    ______ ____
ROOT
ATOM      1  C   UNL     1      -0.210  12.948  18.586  0.00  0.00    +0.000 A 
ATOM      2  N   UNL     1       1.132  12.894  18.634  0.00  0.00    +0.000 NA
ATOM      3  C   UNL     1       1.672  11.658  18.764  0.00  0.00    +0.000 A 
ATOM      4  C   UNL     1       0.923  10.490  18.858  0.00  0.00    +0.000 A 
ATOM      5  N   UNL     1      -0.433  10.549  18.801  0.00  0.00    +0.000 NA
ATOM      6  C   UNL     1      -1.011  11.784  18.683  0.00  0.00    +0.000 A 
ENDROOT
BRANCH   4   7
ATOM      7  C   UNL     1       1.532   9.153  18.999  0.00  0.00    +0.000 A 
ATOM      8  C   UNL     1       2.166   8.512  17.919  0.00  0.00    +0.000 A 
ATOM      9  C   UNL     1       2.708   7.229  18.048  0.00  0.00    +0.000 A 
ATOM     10  C   UNL     1       2.625   6.550  19.267  0.00  0.00    +0.000 A 
ATOM     11  C   UNL     1       2.045   7.181  20.365  0.00  0.00    +0.000 A 
ATOM     12  C   UNL     1       1.502   8.465  20.229  0.00  0.00    +0.000 A 
BRANCH  10  13
ATOM     13  C   UNL     1       3.195   5.185  19.418  0.00  0.00    +0.000 C 
ATOM     14  O   UNL     1       4.403   5.027  19.541  0.00  0.00    +0.000 OA
ATOM     15  N   UNL     1       2.291   4.148  19.369  0.00  0.00    +0.000 N 
ATOM     16  C   UNL     1       2.603   2.724  19.529  0.00  0.00    +0.000 C 
ATOM     17  C   UNL     1       1.073   2.553  19.689  0.00  0.00    +0.000 C 
ATOM     18  C   UNL     1       1.089   4.010  20.207  0.00  0.00    +0.000 C 
BRANCH  17  19
ATOM     19  O   UNL     1       0.319   2.330  18.471  0.00  0.00    +0.000 OA
ATOM     20  H   UNL     1       0.007   1.408  18.550  0.00  0.00    +0.000 HD
ENDBRANCH  17  19
ENDBRANCH  10  13
ENDBRANCH   4   7
BRANCH   6  21
ATOM     21  C   UNL     1      -2.495  11.779  18.604  0.00  0.00    +0.000 A 
ATOM     22  C   UNL     1      -3.306  12.324  19.615  0.00  0.00    +0.000 A 
ATOM     23  C   UNL     1      -4.698  12.403  19.486  0.00  0.00    +0.000 A 
ATOM     24  C   UNL     1      -5.336  11.895  18.351  0.00  0.00    +0.000 A 
ATOM     25  C   UNL     1      -4.554  11.289  17.360  0.00  0.00    +0.000 A 
ATOM     26  C   UNL     1      -3.158  11.235  17.488  0.00  0.00    +0.000 A 
BRANCH  24  27
ATOM     27  C   UNL     1      -6.833  11.991  18.195  0.00  0.00    +0.000 C 
ATOM     28  F   UNL     1      -7.460  10.781  18.207  0.00  0.00    +0.000 F 
ATOM     29  F   UNL     1      -7.415  12.719  19.188  0.00  0.00    +0.000 F 
ATOM     30  F   UNL     1      -7.201  12.589  17.026  0.00  0.00    +0.000 F 
ENDBRANCH  24  27
ENDBRANCH   6  21
BRANCH   1  31
ATOM     31  N   UNL     1      -0.707  14.242  18.449  0.00  0.00    +0.000 N 
ATOM     32  H   UNL     1      -1.343  14.403  19.228  0.00  0.00    +0.000 HD
ATOM     33  H   UNL     1       0.037  14.930  18.415  0.00  0.00    +0.000 HD
ENDBRANCH   1  31
TORSDOF 6
ENDMDL
MODEL 3
REMARK VINA RESULT:      -8.7      0.343      1.462
REMARK  Name = 
REMARK  6 active torsions:
REMARK  status: ('A' for Active; 'I' for Inactive)
REMARK    1  A    between atoms: N_1  and  C_2
REMARK    2  A    between atoms: C_5  and  C_6
REMARK    3  A    between atoms: C_9  and  C_10
REMARK    4  A    between atoms: C_14  and  O_15
REMARK    5  A    between atoms: C_20  and  C_21
REMARK    6  A    between atoms: C_24  and  C_25
REMARK                            x       y       z     vdW  Elec       q    Type
REMARK                         _______ _______ _______ _____ _____    ______ ____
ROOT
ATOM      1  C   UNL     1      -0.199  12.739  18.532  0.00  0.00    +0.000 A 
ATOM      2  N   UNL     1       1.145  12.696  18.544  0.00  0.00    +0.000 NA
ATOM      3  C   UNL     1       1.699  11.466  18.673  0.00  0.00    +0.000 A 
ATOM      4  C   UNL     1       0.962  10.294  18.801  0.00  0.00    +0.000 A 
ATOM      5  N   UNL     1      -0.395  10.341  18.781  0.00  0.00    +0.000 NA
ATOM      6  C   UNL     1      -0.986  11.570  18.665  0.00  0.00    +0.000 A 
ENDROOT
BRANCH   4   7
ATOM      7  C   UNL     1       1.586   8.963  18.941  0.00  0.00    +0.000 A 
ATOM      8  C   UNL     1       1.509   8.232  20.141  0.00  0.00    +0.000 A 
ATOM      9  C   UNL     1       2.135   6.990  20.281  0.00  0.00    +0.000 A 
ATOM     10  C   UNL     1       2.860   6.445  19.217  0.00  0.00    +0.000 A 
ATOM     11  C   UNL     1       2.912   7.124  18.003  0.00  0.00    +0.000 A 
ATOM     12  C   UNL     1       2.285   8.370  17.870  0.00  0.00    +0.000 A 
BRANCH  10  13
ATOM     13  C   UNL     1       3.532   5.125  19.352  0.00  0.00    +0.000 C 
ATOM     14  O   UNL     1       4.745   5.057  19.501  0.00  0.00    +0.000 OA
ATOM     15  N   UNL     1       2.712   4.022  19.256  0.00  0.00    +0.000 N 
ATOM     16  C   UNL     1       3.130   2.623  19.392  0.00  0.00    +0.000 C 
ATOM     17  C   UNL     1       1.615   2.330  19.509  0.00  0.00    +0.000 C 
ATOM     18  C   UNL     1       1.506   3.771  20.061  0.00  0.00    +0.000 C 
BRANCH  17  19
ATOM     19  O   UNL     1       0.908   2.080  18.268  0.00  0.00    +0.000 OA
ATOM     20  H   UNL     1       1.118   2.856  17.714  0.00  0.00    +0.000 HD
ENDBRANCH  17  19
ENDBRANCH  10  13
ENDBRANCH   4   7
BRANCH   6  21
ATOM     21  C   UNL     1      -2.472  11.552  18.627  0.00  0.00    +0.000 A 
ATOM     22  C   UNL     1      -3.259  12.244  19.564  0.00  0.00    +0.000 A 
ATOM     23  C   UNL     1      -4.654  12.302  19.461  0.00  0.00    +0.000 A 
ATOM     24  C   UNL     1      -5.319  11.627  18.435  0.00  0.00    +0.000 A 
ATOM     25  C   UNL     1      -4.560  10.877  17.527  0.00  0.00    +0.000 A 
ATOM     26  C   UNL     1      -3.161  10.844  17.625  0.00  0.00    +0.000 A 
BRANCH  24  27
ATOM     27  C   UNL     1      -6.820  11.696  18.305  0.00  0.00    +0.000 C 
ATOM     28  F   UNL     1      -7.241  12.383  17.206  0.00  0.00    +0.000 F 
ATOM     29  F   UNL     1      -7.392  10.463  18.211  0.00  0.00    +0.000 F 
ATOM     30  F   UNL     1      -7.411  12.304  19.373  0.00  0.00    +0.000 F 
ENDBRANCH  24  27
ENDBRANCH   6  21
BRANCH   1  31
ATOM     31  N   UNL     1      -0.710  14.027  18.395  0.00  0.00    +0.000 N 
ATOM     32  H   UNL     1      -0.829  14.198  17.399  0.00  0.00    +0.000 HD
ATOM     33  H   UNL     1      -1.576  14.146  18.909  0.00  0.00    +0.000 HD
ENDBRANCH   1  31
TORSDOF 6
ENDMDL
MODEL 4
REMARK VINA RESULT:      -8.5      1.320      2.400
REMARK  Name = 
REMARK  6 active torsions:
REMARK  status: ('A' for Active; 'I' for Inactive)
REMARK    1  A    between atoms: N_1  and  C_2
REMARK    2  A    between atoms: C_5  and  C_6
REMARK    3  A    between atoms: C_9  and  C_10
REMARK    4  A    between atoms: C_14  and  O_15
REMARK    5  A    between atoms: C_20  and  C_21
REMARK    6  A    between atoms: C_24  and  C_25
REMARK                            x       y       z     vdW  Elec       q    Type
REMARK                         _______ _______ _______ _____ _____    ______ ____
ROOT
ATOM      1  C   UNL     1      -0.329  13.163  18.869  0.00  0.00    +0.000 A 
ATOM      2  N   UNL     1       1.014  13.092  18.852  0.00  0.00    +0.000 NA
ATOM      3  C   UNL     1       1.543  11.845  18.887  0.00  0.00    +0.000 A 
ATOM      4  C   UNL     1       0.783  10.682  18.948  0.00  0.00    +0.000 A 
ATOM      5  N   UNL     1      -0.573  10.758  18.957  0.00  0.00    +0.000 NA
ATOM      6  C   UNL     1      -1.139  12.004  18.936  0.00  0.00    +0.000 A 
ENDROOT
BRANCH   4   7
ATOM      7  C   UNL     1       1.380   9.332  18.985  0.00  0.00    +0.000 A 
ATOM      8  C   UNL     1       1.943   8.741  17.839  0.00  0.00    +0.000 A 
ATOM      9  C   UNL     1       2.472   7.447  17.871  0.00  0.00    +0.000 A 
ATOM     10  C   UNL     1       2.450   6.706  19.056  0.00  0.00    +0.000 A 
ATOM     11  C   UNL     1       1.942   7.285  20.217  0.00  0.00    +0.000 A 
ATOM     12  C   UNL     1       1.411   8.581  20.178  0.00  0.00    +0.000 A 
BRANCH  10  13
ATOM     13  C   UNL     1       3.008   5.329  19.104  0.00  0.00    +0.000 C 
ATOM     14  O   UNL     1       2.264   4.358  19.152  0.00  0.00    +0.000 OA
ATOM     15  N   UNL     1       4.382   5.240  19.130  0.00  0.00    +0.000 N 
ATOM     16  C   UNL     1       5.165   3.999  19.141  0.00  0.00    +0.000 C 
ATOM     17  C   UNL     1       6.362   4.920  18.802  0.00  0.00    +0.000 C 
ATOM     18  C   UNL     1       5.305   5.849  18.160  0.00  0.00    +0.000 C 
BRANCH  17  19
ATOM     19  O   UNL     1       7.085   5.478  19.927  0.00  0.00    +0.000 OA
ATOM     20  H   UNL     1       7.996   5.591  19.592  0.00  0.00    +0.000 HD
ENDBRANCH  17  19
ENDBRANCH  10  13
ENDBRANCH   4   7
BRANCH   6  21
ATOM     21  C   UNL     1      -2.625  12.019  18.925  0.00  0.00    +0.000 A 
ATOM     22  C   UNL     1      -3.383  12.517  20.000  0.00  0.00    +0.000 A 
ATOM     23  C   UNL     1      -4.778  12.618  19.939  0.00  0.00    +0.000 A 
ATOM     24  C   UNL     1      -5.473  12.179  18.810  0.00  0.00    +0.000 A 
ATOM     25  C   UNL     1      -4.744  11.620  17.752  0.00  0.00    +0.000 A 
ATOM     26  C   UNL     1      -3.345  11.544  17.813  0.00  0.00    +0.000 A 
BRANCH  24  27
ATOM     27  C   UNL     1      -6.974  12.299  18.727  0.00  0.00    +0.000 C 
ATOM     28  F   UNL     1      -7.636  11.437  19.549  0.00  0.00    +0.000 F 
ATOM     29  F   UNL     1      -7.417  13.543  19.065  0.00  0.00    +0.000 F 
ATOM     30  F   UNL     1      -7.452  12.059  17.473  0.00  0.00    +0.000 F 
ENDBRANCH  24  27
ENDBRANCH   6  21
BRANCH   1  31
ATOM     31  N   UNL     1      -0.814  14.467  18.829  0.00  0.00    +0.000 N 
ATOM     32  H   UNL     1      -1.679  14.449  18.294  0.00  0.00    +0.000 HD
ATOM     33  H   UNL     1      -0.948  14.849  19.759  0.00  0.00    +0.000 HD
ENDBRANCH   1  31
TORSDOF 6
ENDMDL
MODEL 5
REMARK VINA RESULT:      -8.5      1.291      2.289
REMARK  Name = 
REMARK  6 active torsions:
REMARK  status: ('A' for Active; 'I' for Inactive)
REMARK    1  A    between atoms: N_1  and  C_2
REMARK    2  A    between atoms: C_5  and  C_6
REMARK    3  A    between atoms: C_9  and  C_10
REMARK    4  A    between atoms: C_14  and  O_15
REMARK    5  A    between atoms: C_20  and  C_21
REMARK    6  A    between atoms: C_24  and  C_25
REMARK                            x       y       z     vdW  Elec       q    Type
REMARK                         _______ _______ _______ _____ _____    ______ ____
ROOT
ATOM      1  C   UNL     1      -0.297  13.122  18.916  0.00  0.00    +0.000 A 
ATOM      2  N   UNL     1       1.046  13.066  18.954  0.00  0.00    +0.000 NA
ATOM      3  C   UNL     1       1.588  11.825  18.966  0.00  0.00    +0.000 A 
ATOM      4  C   UNL     1       0.840  10.652  18.953  0.00  0.00    +0.000 A 
ATOM      5  N   UNL     1      -0.516  10.714  18.907  0.00  0.00    +0.000 NA
ATOM      6  C   UNL     1      -1.096  11.954  18.906  0.00  0.00    +0.000 A 
ENDROOT
BRANCH   4   7
ATOM      7  C   UNL     1       1.451   9.309  18.967  0.00  0.00    +0.000 A 
ATOM      8  C   UNL     1       2.039   8.752  17.816  0.00  0.00    +0.000 A 
ATOM      9  C   UNL     1       2.582   7.463  17.825  0.00  0.00    +0.000 A 
ATOM     10  C   UNL     1       2.548   6.693  18.991  0.00  0.00    +0.000 A 
ATOM     11  C   UNL     1       2.016   7.238  20.157  0.00  0.00    +0.000 A 
ATOM     12  C   UNL     1       1.471   8.529  20.141  0.00  0.00    +0.000 A 
BRANCH  10  13
ATOM     13  C   UNL     1       3.121   5.321  19.014  0.00  0.00    +0.000 C 
ATOM     14  O   UNL     1       2.387   4.342  19.009  0.00  0.00    +0.000 OA
ATOM     15  N   UNL     1       4.495   5.246  19.081  0.00  0.00    +0.000 N 
ATOM     16  C   UNL     1       5.291   4.014  19.079  0.00  0.00    +0.000 C 
ATOM     17  C   UNL     1       6.487   4.958  18.806  0.00  0.00    +0.000 C 
ATOM     18  C   UNL     1       5.441   5.895  18.160  0.00  0.00    +0.000 C 
BRANCH  17  19
ATOM     19  O   UNL     1       7.169   5.488  19.971  0.00  0.00    +0.000 OA
ATOM     20  H   UNL     1       6.445   5.796  20.550  0.00  0.00    +0.000 HD
ENDBRANCH  17  19
ENDBRANCH  10  13
ENDBRANCH   4   7
BRANCH   6  21
ATOM     21  C   UNL     1      -2.580  11.953  18.832  0.00  0.00    +0.000 A 
ATOM     22  C   UNL     1      -3.280  11.438  17.726  0.00  0.00    +0.000 A 
ATOM     23  C   UNL     1      -4.677  11.352  17.708  0.00  0.00    +0.000 A 
ATOM     24  C   UNL     1      -5.432  11.824  18.785  0.00  0.00    +0.000 A 
ATOM     25  C   UNL     1      -4.759  12.402  19.869  0.00  0.00    +0.000 A 
ATOM     26  C   UNL     1      -3.358  12.462  19.889  0.00  0.00    +0.000 A 
BRANCH  24  27
ATOM     27  C   UNL     1      -6.936  11.721  18.783  0.00  0.00    +0.000 C 
ATOM     28  F   UNL     1      -7.548  12.697  18.055  0.00  0.00    +0.000 F 
ATOM     29  F   UNL     1      -7.377  10.541  18.263  0.00  0.00    +0.000 F 
ATOM     30  F   UNL     1      -7.469  11.800  20.035  0.00  0.00    +0.000 F 
ENDBRANCH  24  27
ENDBRANCH   6  21
BRANCH   1  31
ATOM     31  N   UNL     1      -0.796  14.423  18.902  0.00  0.00    +0.000 N 
ATOM     32  H   UNL     1      -0.002  15.047  18.781  0.00  0.00    +0.000 HD
ATOM     33  H   UNL     1      -1.497  14.551  18.180  0.00  0.00    +0.000 HD
ENDBRANCH   1  31
TORSDOF 6
ENDMDL
MODEL 6
REMARK VINA RESULT:      -8.4      1.316      2.674
REMARK  Name = 
REMARK  6 active torsions:
REMARK  status: ('A' for Active; 'I' for Inactive)
REMARK    1  A    between atoms: N_1  and  C_2
REMARK    2  A    between atoms: C_5  and  C_6
REMARK    3  A    between atoms: C_9  and  C_10
REMARK    4  A    between atoms: C_14  and  O_15
REMARK    5  A    between atoms: C_20  and  C_21
REMARK    6  A    between atoms: C_24  and  C_25
REMARK                            x       y       z     vdW  Elec       q    Type
REMARK                         _______ _______ _______ _____ _____    ______ ____
ROOT
ATOM      1  C   UNL     1      -0.246  13.070  18.750  0.00  0.00    +0.000 A 
ATOM      2  N   UNL     1       1.094  12.968  18.719  0.00  0.00    +0.000 NA
ATOM      3  C   UNL     1       1.595  11.711  18.783  0.00  0.00    +0.000 A 
ATOM      4  C   UNL     1       0.810  10.567  18.886  0.00  0.00    +0.000 A 
ATOM      5  N   UNL     1      -0.544  10.675  18.908  0.00  0.00    +0.000 NA
ATOM      6  C   UNL     1      -1.082  11.933  18.859  0.00  0.00    +0.000 A 
ENDROOT
BRANCH   4   7
ATOM      7  C   UNL     1       1.377   9.206  18.954  0.00  0.00    +0.000 A 
ATOM      8  C   UNL     1       1.419   8.482  20.160  0.00  0.00    +0.000 A 
ATOM      9  C   UNL     1       1.992   7.208  20.226  0.00  0.00    +0.000 A 
ATOM     10  C   UNL     1       2.544   6.625  19.082  0.00  0.00    +0.000 A 
ATOM     11  C   UNL     1       2.472   7.299  17.866  0.00  0.00    +0.000 A 
ATOM     12  C   UNL     1       1.899   8.576  17.806  0.00  0.00    +0.000 A 
BRANCH  10  13
ATOM     13  C   UNL     1       3.157   5.271  19.139  0.00  0.00    +0.000 C 
ATOM     14  O   UNL     1       2.453   4.272  19.195  0.00  0.00    +0.000 OA
ATOM     15  N   UNL     1       4.534   5.237  19.163  0.00  0.00    +0.000 N 
ATOM     16  C   UNL     1       5.365   4.029  19.181  0.00  0.00    +0.000 C 
ATOM     17  C   UNL     1       6.524   4.995  18.834  0.00  0.00    +0.000 C 
ATOM     18  C   UNL     1       5.430   5.877  18.188  0.00  0.00    +0.000 C 
BRANCH  17  19
ATOM     19  O   UNL     1       7.226   5.589  19.954  0.00  0.00    +0.000 OA
ATOM     20  H   UNL     1       6.539   5.688  20.641  0.00  0.00    +0.000 HD
ENDBRANCH  17  19
ENDBRANCH  10  13
ENDBRANCH   4   7
BRANCH   6  21
ATOM     21  C   UNL     1      -2.567  11.982  18.864  0.00  0.00    +0.000 A 
ATOM     22  C   UNL     1      -3.301  12.497  19.948  0.00  0.00    +0.000 A 
ATOM     23  C   UNL     1      -4.694  12.629  19.902  0.00  0.00    +0.000 A 
ATOM     24  C   UNL     1      -5.412  12.207  18.781  0.00  0.00    +0.000 A 
ATOM     25  C   UNL     1      -4.708  11.630  17.716  0.00  0.00    +0.000 A 
ATOM     26  C   UNL     1      -3.310  11.523  17.760  0.00  0.00    +0.000 A 
BRANCH  24  27
ATOM     27  C   UNL     1      -6.910  12.361  18.715  0.00  0.00    +0.000 C 
ATOM     28  F   UNL     1      -7.421  12.190  17.463  0.00  0.00    +0.000 F 
ATOM     29  F   UNL     1      -7.562  11.462  19.505  0.00  0.00    +0.000 F 
ATOM     30  F   UNL     1      -7.330  13.592  19.124  0.00  0.00    +0.000 F 
ENDBRANCH  24  27
ENDBRANCH   6  21
BRANCH   1  31
ATOM     31  N   UNL     1      -0.702  14.384  18.679  0.00  0.00    +0.000 N 
ATOM     32  H   UNL     1      -1.321  14.444  17.873  0.00  0.00    +0.000 HD
ATOM     33  H   UNL     1      -1.162  14.671  19.537  0.00  0.00    +0.000 HD
ENDBRANCH   1  31
TORSDOF 6
ENDMDL
MODEL 7
REMARK VINA RESULT:      -8.3      2.576      3.648
REMARK  Name = 
REMARK  6 active torsions:
REMARK  status: ('A' for Active; 'I' for Inactive)
REMARK    1  A    between atoms: N_1  and  C_2
REMARK    2  A    between atoms: C_5  and  C_6
REMARK    3  A    between atoms: C_9  and  C_10
REMARK    4  A    between atoms: C_14  and  O_15
REMARK    5  A    between atoms: C_20  and  C_21
REMARK    6  A    between atoms: C_24  and  C_25
REMARK                            x       y       z     vdW  Elec       q    Type
REMARK                         _______ _______ _______ _____ _____    ______ ____
ROOT
ATOM      1  C   UNL     1      -0.331  13.253  19.408  0.00  0.00    +0.000 A 
ATOM      2  N   UNL     1       0.703  13.086  18.566  0.00  0.00    +0.000 NA
ATOM      3  C   UNL     1       1.227  11.838  18.508  0.00  0.00    +0.000 A 
ATOM      4  C   UNL     1       0.762  10.767  19.265  0.00  0.00    +0.000 A 
ATOM      5  N   UNL     1      -0.288  10.939  20.109  0.00  0.00    +0.000 NA
ATOM      6  C   UNL     1      -0.831  12.191  20.200  0.00  0.00    +0.000 A 
ENDROOT
BRANCH   4   7
ATOM      7  C   UNL     1       1.347   9.414  19.187  0.00  0.00    +0.000 A 
ATOM      8  C   UNL     1       1.853   8.895  17.981  0.00  0.00    +0.000 A 
ATOM      9  C   UNL     1       2.371   7.599  17.904  0.00  0.00    +0.000 A 
ATOM     10  C   UNL     1       2.393   6.782  19.038  0.00  0.00    +0.000 A 
ATOM     11  C   UNL     1       1.943   7.287  20.256  0.00  0.00    +0.000 A 
ATOM     12  C   UNL     1       1.423   8.586  20.325  0.00  0.00    +0.000 A 
BRANCH  10  13
ATOM     13  C   UNL     1       2.940   5.401  18.971  0.00  0.00    +0.000 C 
ATOM     14  O   UNL     1       2.187   4.437  18.906  0.00  0.00    +0.000 OA
ATOM     15  N   UNL     1       4.312   5.295  19.027  0.00  0.00    +0.000 N 
ATOM     16  C   UNL     1       5.084   4.051  18.942  0.00  0.00    +0.000 C 
ATOM     17  C   UNL     1       6.298   4.988  18.725  0.00  0.00    +0.000 C 
ATOM     18  C   UNL     1       5.267   5.984  18.145  0.00  0.00    +0.000 C 
BRANCH  17  19
ATOM     19  O   UNL     1       6.993   5.430  19.918  0.00  0.00    +0.000 OA
ATOM     20  H   UNL     1       7.938   5.332  19.693  0.00  0.00    +0.000 HD
ENDBRANCH  17  19
ENDBRANCH  10  13
ENDBRANCH   4   7
BRANCH   6  21
ATOM     21  C   UNL     1      -1.990  12.308  21.123  0.00  0.00    +0.000 A 
ATOM     22  C   UNL     1      -1.868  12.135  22.513  0.00  0.00    +0.000 A 
ATOM     23  C   UNL     1      -2.945  12.345  23.383  0.00  0.00    +0.000 A 
ATOM     24  C   UNL     1      -4.203  12.693  22.885  0.00  0.00    +0.000 A 
ATOM     25  C   UNL     1      -4.364  12.807  21.498  0.00  0.00    +0.000 A 
ATOM     26  C   UNL     1      -3.274  12.618  20.636  0.00  0.00    +0.000 A 
BRANCH  24  27
ATOM     27  C   UNL     1      -5.365  12.937  23.815  0.00  0.00    +0.000 C 
ATOM     28  F   UNL     1      -5.270  12.263  24.995  0.00  0.00    +0.000 F 
ATOM     29  F   UNL     1      -5.497  14.251  24.150  0.00  0.00    +0.000 F 
ATOM     30  F   UNL     1      -6.559  12.568  23.270  0.00  0.00    +0.000 F 
ENDBRANCH  24  27
ENDBRANCH   6  21
BRANCH   1  31
ATOM     31  N   UNL     1      -0.828  14.554  19.423  0.00  0.00    +0.000 N 
ATOM     32  H   UNL     1      -0.786  14.880  20.386  0.00  0.00    +0.000 HD
ATOM     33  H   UNL     1      -0.317  15.161  18.790  0.00  0.00    +0.000 HD
ENDBRANCH   1  31
TORSDOF 6
ENDMDL
MODEL 8
REMARK VINA RESULT:      -8.3      0.660      1.269
REMARK  Name = 
REMARK  6 active torsions:
REMARK  status: ('A' for Active; 'I' for Inactive)
REMARK    1  A    between atoms: N_1  and  C_2
REMARK    2  A    between atoms: C_5  and  C_6
REMARK    3  A    between atoms: C_9  and  C_10
REMARK    4  A    between atoms: C_14  and  O_15
REMARK    5  A    between atoms: C_20  and  C_21
REMARK    6  A    between atoms: C_24  and  C_25
REMARK                            x       y       z     vdW  Elec       q    Type
REMARK                         _______ _______ _______ _____ _____    ______ ____
ROOT
ATOM      1  C   UNL     1      -0.268  13.117  18.642  0.00  0.00    +0.000 A 
ATOM      2  N   UNL     1       1.075  13.068  18.675  0.00  0.00    +0.000 NA
ATOM      3  C   UNL     1       1.622  11.832  18.768  0.00  0.00    +0.000 A 
ATOM      4  C   UNL     1       0.879  10.659  18.838  0.00  0.00    +0.000 A 
ATOM      5  N   UNL     1      -0.478  10.713  18.795  0.00  0.00    +0.000 NA
ATOM      6  C   UNL     1      -1.062  11.947  18.716  0.00  0.00    +0.000 A 
ENDROOT
BRANCH   4   7
ATOM      7  C   UNL     1       1.495   9.321  18.938  0.00  0.00    +0.000 A 
ATOM      8  C   UNL     1       1.426   8.561  20.120  0.00  0.00    +0.000 A 
ATOM      9  C   UNL     1       2.044   7.311  20.222  0.00  0.00    +0.000 A 
ATOM     10  C   UNL     1       2.755   6.788  19.138  0.00  0.00    +0.000 A 
ATOM     11  C   UNL     1       2.800   7.498  17.940  0.00  0.00    +0.000 A 
ATOM     12  C   UNL     1       2.180   8.751  17.846  0.00  0.00    +0.000 A 
BRANCH  10  13
ATOM     13  C   UNL     1       3.419   5.461  19.232  0.00  0.00    +0.000 C 
ATOM     14  O   UNL     1       4.522   5.281  18.731  0.00  0.00    +0.000 OA
ATOM     15  N   UNL     1       2.700   4.474  19.870  0.00  0.00    +0.000 N 
ATOM     16  C   UNL     1       3.154   3.102  20.119  0.00  0.00    +0.000 C 
ATOM     17  C   UNL     1       1.948   3.032  21.087  0.00  0.00    +0.000 C 
ATOM     18  C   UNL     1       2.126   4.562  21.221  0.00  0.00    +0.000 C 
BRANCH  17  19
ATOM     19  O   UNL     1       0.689   2.595  20.518  0.00  0.00    +0.000 OA
ATOM     20  H   UNL     1       0.054   3.288  20.784  0.00  0.00    +0.000 HD
ENDBRANCH  17  19
ENDBRANCH  10  13
ENDBRANCH   4   7
BRANCH   6  21
ATOM     21  C   UNL     1      -2.547  11.937  18.651  0.00  0.00    +0.000 A 
ATOM     22  C   UNL     1      -3.249  11.450  17.534  0.00  0.00    +0.000 A 
ATOM     23  C   UNL     1      -4.646  11.353  17.522  0.00  0.00    +0.000 A 
ATOM     24  C   UNL     1      -5.397  11.786  18.618  0.00  0.00    +0.000 A 
ATOM     25  C   UNL     1      -4.722  12.335  19.715  0.00  0.00    +0.000 A 
ATOM     26  C   UNL     1      -3.322  12.407  19.727  0.00  0.00    +0.000 A 
BRANCH  24  27
ATOM     27  C   UNL     1      -6.901  11.670  18.622  0.00  0.00    +0.000 C 
ATOM     28  F   UNL     1      -7.519  12.568  17.804  0.00  0.00    +0.000 F 
ATOM     29  F   UNL     1      -7.330  10.443  18.214  0.00  0.00    +0.000 F 
ATOM     30  F   UNL     1      -7.438  11.863  19.860  0.00  0.00    +0.000 F 
ENDBRANCH  24  27
ENDBRANCH   6  21
BRANCH   1  31
ATOM     31  N   UNL     1      -0.772  14.412  18.545  0.00  0.00    +0.000 N 
ATOM     32  H   UNL     1      -1.578  14.374  17.925  0.00  0.00    +0.000 HD
ATOM     33  H   UNL     1      -1.006  14.795  19.454  0.00  0.00    +0.000 HD
ENDBRANCH   1  31
TORSDOF 6
ENDMDL
MODEL 9
REMARK VINA RESULT:      -8.3      6.636     10.721
REMARK  Name = 
REMARK  6 active torsions:
REMARK  status: ('A' for Active; 'I' for Inactive)
REMARK    1  A    between atoms: N_1  and  C_2
REMARK    2  A    between atoms: C_5  and  C_6
REMARK    3  A    between atoms: C_9  and  C_10
REMARK    4  A    between atoms: C_14  and  O_15
REMARK    5  A    between atoms: C_20  and  C_21
REMARK    6  A    between atoms: C_24  and  C_25
REMARK                            x       y       z     vdW  Elec       q    Type
REMARK                         _______ _______ _______ _____ _____    ______ ____
ROOT
ATOM      1  C   UNL     1       4.465   4.197  18.766  0.00  0.00    +0.000 A 
ATOM      2  N   UNL     1       3.676   4.342  19.845  0.00  0.00    +0.000 NA
ATOM      3  C   UNL     1       2.949   5.484  19.899  0.00  0.00    +0.000 A 
ATOM      4  C   UNL     1       2.993   6.478  18.927  0.00  0.00    +0.000 A 
ATOM      5  N   UNL     1       3.785   6.323  17.835  0.00  0.00    +0.000 NA
ATOM      6  C   UNL     1       4.543   5.186  17.756  0.00  0.00    +0.000 A 
ENDROOT
BRANCH   4   7
ATOM      7  C   UNL     1       2.192   7.715  19.006  0.00  0.00    +0.000 A 
ATOM      8  C   UNL     1       1.993   8.540  17.884  0.00  0.00    +0.000 A 
ATOM      9  C   UNL     1       1.265   9.731  17.973  0.00  0.00    +0.000 A 
ATOM     10  C   UNL     1       0.718  10.131  19.196  0.00  0.00    +0.000 A 
ATOM     11  C   UNL     1       0.860   9.310  20.312  0.00  0.00    +0.000 A 
ATOM     12  C   UNL     1       1.592   8.119  20.216  0.00  0.00    +0.000 A 
BRANCH  10  13
ATOM     13  C   UNL     1      -0.056  11.396  19.306  0.00  0.00    +0.000 C 
ATOM     14  O   UNL     1      -1.273  11.369  19.439  0.00  0.00    +0.000 OA
ATOM     15  N   UNL     1       0.675  12.558  19.207  0.00  0.00    +0.000 N 
ATOM     16  C   UNL     1       0.146  13.921  19.321  0.00  0.00    +0.000 C 
ATOM     17  C   UNL     1       1.632  14.334  19.453  0.00  0.00    +0.000 C 
ATOM     18  C   UNL     1       1.847  12.912  20.024  0.00  0.00    +0.000 C 
BRANCH  17  19
ATOM     19  O   UNL     1       2.333  14.625  18.219  0.00  0.00    +0.000 OA
ATOM     20  H   UNL     1       3.179  15.016  18.512  0.00  0.00    +0.000 HD
ENDBRANCH  17  19
ENDBRANCH  10  13
ENDBRANCH   4   7
BRANCH   6  21
ATOM     21  C   UNL     1       5.370   5.066  16.527  0.00  0.00    +0.000 A 
ATOM     22  C   UNL     1       4.922   4.387  15.380  0.00  0.00    +0.000 A 
ATOM     23  C   UNL     1       5.667   4.364  14.194  0.00  0.00    +0.000 A 
ATOM     24  C   UNL     1       6.917   4.986  14.129  0.00  0.00    +0.000 A 
ATOM     25  C   UNL     1       7.412   5.612  15.280  0.00  0.00    +0.000 A 
ATOM     26  C   UNL     1       6.649   5.650  16.456  0.00  0.00    +0.000 A 
BRANCH  24  27
ATOM     27  C   UNL     1       7.720   4.982  12.853  0.00  0.00    +0.000 C 
ATOM     28  F   UNL     1       7.522   3.871  12.089  0.00  0.00    +0.000 F 
ATOM     29  F   UNL     1       7.424   6.041  12.048  0.00  0.00    +0.000 F 
ATOM     30  F   UNL     1       9.063   5.046  13.078  0.00  0.00    +0.000 F 
ENDBRANCH  24  27
ENDBRANCH   6  21
BRANCH   1  31
ATOM     31  N   UNL     1       5.185   3.005  18.763  0.00  0.00    +0.000 N 
ATOM     32  H   UNL     1       5.044   2.567  19.672  0.00  0.00    +0.000 HD
ATOM     33  H   UNL     1       4.907   2.397  18.000  0.00  0.00    +0.000 HD
ENDBRANCH   1  31
TORSDOF 6
ENDMDL
