MODEL 1
REMARK VINA RESULT:      -7.8      0.000      0.000
REMARK  Name = 
REMARK  3 active torsions:
REMARK  status: ('A' for Active; 'I' for Inactive)
REMARK    1  A    between atoms: C_2  and  C_3
REMARK    2  A    between atoms: C_3  and  N_4
REMARK    3  A    between atoms: C_6  and  C_7
REMARK                            x       y       z     vdW  Elec       q    Type
REMARK                         _______ _______ _______ _____ _____    ______ ____
ROOT
ATOM      1  N   UNL     1       2.114   6.434  19.866  0.00  0.00    +0.000 N 
ATOM      2  C   UNL     1       2.946   6.807  18.843  0.00  0.00    +0.000 A 
ATOM      3  C   UNL     1       3.300   5.677  18.142  0.00  0.00    +0.000 A 
ATOM      4  C   UNL     1       2.622   4.572  18.735  0.00  0.00    +0.000 A 
ATOM      5  C   UNL     1       2.576   3.188  18.461  0.00  0.00    +0.000 A 
ATOM      6  C   UNL     1       1.812   2.347  19.274  0.00  0.00    +0.000 A 
ATOM      7  C   UNL     1       1.101   2.863  20.351  0.00  0.00    +0.000 A 
ATOM      8  C   UNL     1       1.127   4.230  20.647  0.00  0.00    +0.000 A 
ATOM      9  C   UNL     1       1.893   5.071  19.822  0.00  0.00    +0.000 A 
ENDROOT
BRANCH   3  10
ATOM     10  C   UNL     1       4.164   5.643  17.006  0.00  0.00    +0.000 C 
ATOM     11  C   UNL     1       5.455   5.305  17.004  0.00  0.00    +0.000 C 
ATOM     12  N   UNL     1       6.216   4.866  18.051  0.00  0.00    +0.000 N 
ATOM     13  C   UNL     1       7.511   4.644  17.636  0.00  0.00    +0.000 C 
ATOM     14  O   UNL     1       8.428   4.256  18.339  0.00  0.00    +0.000 OA
ATOM     15  N   UNL     1       7.576   4.937  16.300  0.00  0.00    +0.000 N 
ATOM     16  C   UNL     1       6.362   5.338  15.816  0.00  0.00    +0.000 C 
ATOM     17  O   UNL     1       6.078   5.663  14.680  0.00  0.00    +0.000 OA
ATOM     18  H   UNL     1       5.891   4.684  18.987  0.00  0.00    +0.000 HD
ATOM     19  H   UNL     1       8.414   4.855  15.750  0.00  0.00    +0.000 HD
ENDBRANCH   3  10
BRANCH   1  20
ATOM     20  C   UNL     1       1.590   7.369  20.853  0.00  0.00    +0.000 C 
BRANCH  20  22
ATOM     21  C   UNL     1       0.932   9.822  19.617  0.00  0.00    +0.000 C 
ATOM     22  C   UNL     1       1.236   8.690  20.188  0.00  0.00    +0.000 C 
ENDBRANCH  20  22
ENDBRANCH   1  20
TORSDOF 3
ENDMDL
MODEL 2
REMARK VINA RESULT:      -7.8      3.544      6.060
REMARK  Name = 
REMARK  3 active torsions:
REMARK  status: ('A' for Active; 'I' for Inactive)
REMARK    1  A    between atoms: C_2  and  C_3
REMARK    2  A    between atoms: C_3  and  N_4
REMARK    3  A    between atoms: C_6  and  C_7
REMARK                            x       y       z     vdW  Elec       q    Type
REMARK                         _______ _______ _______ _____ _____    ______ ____
ROOT
ATOM      1  N   UNL     1       6.416   4.997  18.042  0.00  0.00    +0.000 N 
ATOM      2  C   UNL     1       5.245   4.594  18.631  0.00  0.00    +0.000 A 
ATOM      3  C   UNL     1       4.404   4.129  17.645  0.00  0.00    +0.000 A 
ATOM      4  C   UNL     1       5.106   4.212  16.407  0.00  0.00    +0.000 A 
ATOM      5  C   UNL     1       4.783   3.882  15.073  0.00  0.00    +0.000 A 
ATOM      6  C   UNL     1       5.712   4.120  14.057  0.00  0.00    +0.000 A 
ATOM      7  C   UNL     1       6.950   4.681  14.351  0.00  0.00    +0.000 A 
ATOM      8  C   UNL     1       7.298   5.017  15.663  0.00  0.00    +0.000 A 
ATOM      9  C   UNL     1       6.362   4.771  16.681  0.00  0.00    +0.000 A 
ENDROOT
BRANCH   3  10
ATOM     10  C   UNL     1       3.085   3.625  17.850  0.00  0.00    +0.000 C 
ATOM     11  C   UNL     1       2.510   3.369  19.026  0.00  0.00    +0.000 C 
ATOM     12  N   UNL     1       3.015   3.580  20.279  0.00  0.00    +0.000 N 
ATOM     13  C   UNL     1       2.113   3.160  21.232  0.00  0.00    +0.000 C 
ATOM     14  O   UNL     1       2.277   3.210  22.439  0.00  0.00    +0.000 OA
ATOM     15  N   UNL     1       1.009   2.682  20.578  0.00  0.00    +0.000 N 
ATOM     16  C   UNL     1       1.150   2.780  19.222  0.00  0.00    +0.000 C 
ATOM     17  O   UNL     1       0.358   2.452  18.359  0.00  0.00    +0.000 OA
ATOM     18  H   UNL     1       3.897   4.015  20.498  0.00  0.00    +0.000 HD
ATOM     19  H   UNL     1       0.198   2.315  21.045  0.00  0.00    +0.000 HD
ENDBRANCH   3  10
BRANCH   1  20
ATOM     20  C   UNL     1       7.515   5.603  18.781  0.00  0.00    +0.000 C 
BRANCH  20  22
ATOM     21  C   UNL     1       8.006   8.217  17.830  0.00  0.00    +0.000 C 
ATOM     22  C   UNL     1       7.779   7.010  18.269  0.00  0.00    +0.000 C 
ENDBRANCH  20  22
ENDBRANCH   1  20
TORSDOF 3
ENDMDL
MODEL 3
REMARK VINA RESULT:      -7.6      1.156      2.014
REMARK  Name = 
REMARK  3 active torsions:
REMARK  status: ('A' for Active; 'I' for Inactive)
REMARK    1  A    between atoms: C_2  and  C_3
REMARK    2  A    between atoms: C_3  and  N_4
REMARK    3  A    between atoms: C_6  and  C_7
REMARK                            x       y       z     vdW  Elec       q    Type
REMARK                         _______ _______ _______ _____ _____    ______ ____
ROOT
ATOM      1  N   UNL     1       2.591   6.416  19.785  0.00  0.00    +0.000 N 
ATOM      2  C   UNL     1       3.882   6.512  19.334  0.00  0.00    +0.000 A 
ATOM      3  C   UNL     1       4.417   5.245  19.281  0.00  0.00    +0.000 A 
ATOM      4  C   UNL     1       3.396   4.331  19.677  0.00  0.00    +0.000 A 
ATOM      5  C   UNL     1       3.336   2.927  19.811  0.00  0.00    +0.000 A 
ATOM      6  C   UNL     1       2.159   2.325  20.262  0.00  0.00    +0.000 A 
ATOM      7  C   UNL     1       1.049   3.099  20.581  0.00  0.00    +0.000 A 
ATOM      8  C   UNL     1       1.079   4.492  20.457  0.00  0.00    +0.000 A 
ATOM      9  C   UNL     1       2.264   5.091  19.999  0.00  0.00    +0.000 A 
ENDROOT
BRANCH   3  10
ATOM     10  C   UNL     1       5.745   4.922  18.869  0.00  0.00    +0.000 C 
ATOM     11  C   UNL     1       6.186   4.845  17.613  0.00  0.00    +0.000 C 
ATOM     12  N   UNL     1       5.504   5.110  16.459  0.00  0.00    +0.000 N 
ATOM     13  C   UNL     1       6.315   4.889  15.367  0.00  0.00    +0.000 C 
ATOM     14  O   UNL     1       5.992   5.031  14.200  0.00  0.00    +0.000 OA
ATOM     15  N   UNL     1       7.538   4.486  15.831  0.00  0.00    +0.000 N 
ATOM     16  C   UNL     1       7.564   4.441  17.197  0.00  0.00    +0.000 C 
ATOM     17  O   UNL     1       8.491   4.129  17.920  0.00  0.00    +0.000 OA
ATOM     18  H   UNL     1       4.560   5.457  16.393  0.00  0.00    +0.000 HD
ATOM     19  H   UNL     1       8.316   4.262  15.235  0.00  0.00    +0.000 HD
ENDBRANCH   3  10
BRANCH   1  20
ATOM     20  C   UNL     1       1.738   7.572  20.022  0.00  0.00    +0.000 C 
BRANCH  20  22
ATOM     21  C   UNL     1       1.876   9.351  17.833  0.00  0.00    +0.000 C 
ATOM     22  C   UNL     1       1.812   8.529  18.844  0.00  0.00    +0.000 C 
ENDBRANCH  20  22
ENDBRANCH   1  20
TORSDOF 3
ENDMDL
MODEL 4
REMARK VINA RESULT:      -7.5      0.886      3.444
REMARK  Name = 
REMARK  3 active torsions:
REMARK  status: ('A' for Active; 'I' for Inactive)
REMARK    1  A    between atoms: C_2  and  C_3
REMARK    2  A    between atoms: C_3  and  N_4
REMARK    3  A    between atoms: C_6  and  C_7
REMARK                            x       y       z     vdW  Elec       q    Type
REMARK                         _______ _______ _______ _____ _____    ______ ____
ROOT
ATOM      1  N   UNL     1       2.640   5.788  19.991  0.00  0.00    +0.000 N 
ATOM      2  C   UNL     1       3.466   5.236  19.047  0.00  0.00    +0.000 A 
ATOM      3  C   UNL     1       3.594   6.130  18.009  0.00  0.00    +0.000 A 
ATOM      4  C   UNL     1       2.849   7.296  18.352  0.00  0.00    +0.000 A 
ATOM      5  C   UNL     1       2.611   8.532  17.711  0.00  0.00    +0.000 A 
ATOM      6  C   UNL     1       1.786   9.480  18.321  0.00  0.00    +0.000 A 
ATOM      7  C   UNL     1       1.198   9.215  19.553  0.00  0.00    +0.000 A 
ATOM      8  C   UNL     1       1.417   8.000  20.212  0.00  0.00    +0.000 A 
ATOM      9  C   UNL     1       2.250   7.053  19.595  0.00  0.00    +0.000 A 
ENDROOT
BRANCH   3  10
ATOM     10  C   UNL     1       4.366   5.923  16.826  0.00  0.00    +0.000 C 
ATOM     11  C   UNL     1       5.603   5.427  16.766  0.00  0.00    +0.000 C 
ATOM     12  N   UNL     1       6.376   4.957  17.790  0.00  0.00    +0.000 N 
ATOM     13  C   UNL     1       7.603   4.551  17.310  0.00  0.00    +0.000 C 
ATOM     14  O   UNL     1       8.513   4.092  17.979  0.00  0.00    +0.000 OA
ATOM     15  N   UNL     1       7.609   4.757  15.957  0.00  0.00    +0.000 N 
ATOM     16  C   UNL     1       6.422   5.278  15.524  0.00  0.00    +0.000 C 
ATOM     17  O   UNL     1       6.100   5.572  14.389  0.00  0.00    +0.000 OA
ATOM     18  H   UNL     1       6.097   4.870  18.755  0.00  0.00    +0.000 HD
ATOM     19  H   UNL     1       8.390   4.539  15.362  0.00  0.00    +0.000 HD
ENDBRANCH   3  10
BRANCH   1  20
ATOM     20  C   UNL     1       2.233   5.092  21.204  0.00  0.00    +0.000 C 
BRANCH  20  22
ATOM     21  C   UNL     1       1.128   2.574  20.557  0.00  0.00    +0.000 C 
ATOM     22  C   UNL     1       1.638   3.737  20.857  0.00  0.00    +0.000 C 
ENDBRANCH  20  22
ENDBRANCH   1  20
TORSDOF 3
ENDMDL
MODEL 5
REMARK VINA RESULT:      -7.5      3.063      4.562
REMARK  Name = 
REMARK  3 active torsions:
REMARK  status: ('A' for Active; 'I' for Inactive)
REMARK    1  A    between atoms: C_2  and  C_3
REMARK    2  A    between atoms: C_3  and  N_4
REMARK    3  A    between atoms: C_6  and  C_7
REMARK                            x       y       z     vdW  Elec       q    Type
REMARK                         _______ _______ _______ _____ _____    ______ ____
ROOT
ATOM      1  N   UNL     1       6.517   5.116  18.142  0.00  0.00    +0.000 N 
ATOM      2  C   UNL     1       6.898   4.763  16.873  0.00  0.00    +0.000 A 
ATOM      3  C   UNL     1       5.835   4.138  16.262  0.00  0.00    +0.000 A 
ATOM      4  C   UNL     1       4.744   4.148  17.180  0.00  0.00    +0.000 A 
ATOM      5  C   UNL     1       3.414   3.678  17.128  0.00  0.00    +0.000 A 
ATOM      6  C   UNL     1       2.584   3.823  18.242  0.00  0.00    +0.000 A 
ATOM      7  C   UNL     1       3.060   4.426  19.401  0.00  0.00    +0.000 A 
ATOM      8  C   UNL     1       4.373   4.902  19.482  0.00  0.00    +0.000 A 
ATOM      9  C   UNL     1       5.201   4.757  18.356  0.00  0.00    +0.000 A 
ENDROOT
BRANCH   3  10
ATOM     10  C   UNL     1       5.833   3.614  14.934  0.00  0.00    +0.000 C 
ATOM     11  C   UNL     1       6.482   4.118  13.884  0.00  0.00    +0.000 C 
ATOM     12  N   UNL     1       7.326   5.192  13.847  0.00  0.00    +0.000 N 
ATOM     13  C   UNL     1       7.774   5.400  12.560  0.00  0.00    +0.000 C 
ATOM     14  O   UNL     1       8.533   6.285  12.204  0.00  0.00    +0.000 OA
ATOM     15  N   UNL     1       7.214   4.436  11.764  0.00  0.00    +0.000 N 
ATOM     16  C   UNL     1       6.416   3.593  12.485  0.00  0.00    +0.000 C 
ATOM     17  O   UNL     1       5.781   2.636  12.086  0.00  0.00    +0.000 OA
ATOM     18  H   UNL     1       7.625   5.741  14.638  0.00  0.00    +0.000 HD
ATOM     19  H   UNL     1       7.383   4.361  10.776  0.00  0.00    +0.000 HD
ENDBRANCH   3  10
BRANCH   1  20
ATOM     20  C   UNL     1       7.415   5.746  19.101  0.00  0.00    +0.000 C 
BRANCH  20  22
ATOM     21  C   UNL     1       8.297   8.242  18.116  0.00  0.00    +0.000 C 
ATOM     22  C   UNL     1       7.890   7.089  18.570  0.00  0.00    +0.000 C 
ENDBRANCH  20  22
ENDBRANCH   1  20
TORSDOF 3
ENDMDL
MODEL 6
REMARK VINA RESULT:      -7.5      1.349      1.366
REMARK  Name = 
REMARK  3 active torsions:
REMARK  status: ('A' for Active; 'I' for Inactive)
REMARK    1  A    between atoms: C_2  and  C_3
REMARK    2  A    between atoms: C_3  and  N_4
REMARK    3  A    between atoms: C_6  and  C_7
REMARK                            x       y       z     vdW  Elec       q    Type
REMARK                         _______ _______ _______ _____ _____    ______ ____
ROOT
ATOM      1  N   UNL     1       2.338   6.233  19.245  0.00  0.00    +0.000 N 
ATOM      2  C   UNL     1       3.220   6.217  18.195  0.00  0.00    +0.000 A 
ATOM      3  C   UNL     1       3.487   4.905  17.876  0.00  0.00    +0.000 A 
ATOM      4  C   UNL     1       2.702   4.084  18.739  0.00  0.00    +0.000 A 
ATOM      5  C   UNL     1       2.540   2.690  18.885  0.00  0.00    +0.000 A 
ATOM      6  C   UNL     1       1.689   2.193  19.876  0.00  0.00    +0.000 A 
ATOM      7  C   UNL     1       1.006   3.061  20.719  0.00  0.00    +0.000 A 
ATOM      8  C   UNL     1       1.147   4.448  20.598  0.00  0.00    +0.000 A 
ATOM      9  C   UNL     1       1.999   4.941  19.596  0.00  0.00    +0.000 A 
ENDROOT
BRANCH   3  10
ATOM     10  C   UNL     1       4.366   4.465  16.841  0.00  0.00    +0.000 C 
ATOM     11  C   UNL     1       5.516   5.039  16.484  0.00  0.00    +0.000 C 
ATOM     12  N   UNL     1       6.135   6.117  17.051  0.00  0.00    +0.000 N 
ATOM     13  C   UNL     1       7.298   6.409  16.371  0.00  0.00    +0.000 C 
ATOM     14  O   UNL     1       8.066   7.319  16.631  0.00  0.00    +0.000 OA
ATOM     15  N   UNL     1       7.429   5.495  15.360  0.00  0.00    +0.000 N 
ATOM     16  C   UNL     1       6.393   4.603  15.354  0.00  0.00    +0.000 C 
ATOM     17  O   UNL     1       6.210   3.670  14.596  0.00  0.00    +0.000 OA
ATOM     18  H   UNL     1       5.828   6.617  17.871  0.00  0.00    +0.000 HD
ATOM     19  H   UNL     1       8.198   5.484  14.713  0.00  0.00    +0.000 HD
ENDBRANCH   3  10
BRANCH   1  20
ATOM     20  C   UNL     1       1.880   7.458  19.886  0.00  0.00    +0.000 C 
BRANCH  20  22
ATOM     21  C   UNL     1       1.691   9.540  17.986  0.00  0.00    +0.000 C 
ATOM     22  C   UNL     1       1.779   8.579  18.864  0.00  0.00    +0.000 C 
ENDBRANCH  20  22
ENDBRANCH   1  20
TORSDOF 3
ENDMDL
MODEL 7
REMARK VINA RESULT:      -7.4      3.037      5.772
REMARK  Name = 
REMARK  3 active torsions:
REMARK  status: ('A' for Active; 'I' for Inactive)
REMARK    1  A    between atoms: C_2  and  C_3
REMARK    2  A    between atoms: C_3  and  N_4
REMARK    3  A    between atoms: C_6  and  C_7
REMARK                            x       y       z     vdW  Elec       q    Type
REMARK                         _______ _______ _______ _____ _____    ______ ____
ROOT
ATOM      1  N   UNL     1       5.055   5.096  17.617  0.00  0.00    +0.000 N 
ATOM      2  C   UNL     1       4.689   6.417  17.633  0.00  0.00    +0.000 A 
ATOM      3  C   UNL     1       3.323   6.484  17.788  0.00  0.00    +0.000 A 
ATOM      4  C   UNL     1       2.838   5.149  17.914  0.00  0.00    +0.000 A 
ATOM      5  C   UNL     1       1.558   4.585  18.100  0.00  0.00    +0.000 A 
ATOM      6  C   UNL     1       1.416   3.196  18.156  0.00  0.00    +0.000 A 
ATOM      7  C   UNL     1       2.525   2.368  18.026  0.00  0.00    +0.000 A 
ATOM      8  C   UNL     1       3.806   2.899  17.841  0.00  0.00    +0.000 A 
ATOM      9  C   UNL     1       3.943   4.296  17.791  0.00  0.00    +0.000 A 
ENDROOT
BRANCH   3  10
ATOM     10  C   UNL     1       2.553   7.685  17.845  0.00  0.00    +0.000 C 
ATOM     11  C   UNL     1       1.993   8.214  18.933  0.00  0.00    +0.000 C 
ATOM     12  N   UNL     1       2.074   7.775  20.225  0.00  0.00    +0.000 N 
ATOM     13  C   UNL     1       1.332   8.591  21.052  0.00  0.00    +0.000 C 
ATOM     14  O   UNL     1       1.201   8.455  22.256  0.00  0.00    +0.000 OA
ATOM     15  N   UNL     1       0.777   9.574  20.277  0.00  0.00    +0.000 N 
ATOM     16  C   UNL     1       1.134   9.438  18.964  0.00  0.00    +0.000 C 
ATOM     17  O   UNL     1       0.818  10.141  18.024  0.00  0.00    +0.000 OA
ATOM     18  H   UNL     1       2.622   6.996  20.555  0.00  0.00    +0.000 HD
ATOM     19  H   UNL     1       0.189  10.305  20.638  0.00  0.00    +0.000 HD
ENDBRANCH   3  10
BRANCH   1  20
ATOM     20  C   UNL     1       6.425   4.648  17.408  0.00  0.00    +0.000 C 
BRANCH  20  22
ATOM     21  C   UNL     1       7.037   4.630  14.650  0.00  0.00    +0.000 C 
ATOM     22  C   UNL     1       6.754   4.639  15.924  0.00  0.00    +0.000 C 
ENDBRANCH  20  22
ENDBRANCH   1  20
TORSDOF 3
ENDMDL
MODEL 8
REMARK VINA RESULT:      -7.4      3.089      5.585
REMARK  Name = 
REMARK  3 active torsions:
REMARK  status: ('A' for Active; 'I' for Inactive)
REMARK    1  A    between atoms: C_2  and  C_3
REMARK    2  A    between atoms: C_3  and  N_4
REMARK    3  A    between atoms: C_6  and  C_7
REMARK                            x       y       z     vdW  Elec       q    Type
REMARK                         _______ _______ _______ _____ _____    ______ ____
ROOT
ATOM      1  N   UNL     1       5.009   5.053  17.867  0.00  0.00    +0.000 N 
ATOM      2  C   UNL     1       4.611   6.364  17.852  0.00  0.00    +0.000 A 
ATOM      3  C   UNL     1       3.237   6.399  17.920  0.00  0.00    +0.000 A 
ATOM      4  C   UNL     1       2.778   5.053  18.025  0.00  0.00    +0.000 A 
ATOM      5  C   UNL     1       1.502   4.459  18.135  0.00  0.00    +0.000 A 
ATOM      6  C   UNL     1       1.390   3.067  18.191  0.00  0.00    +0.000 A 
ATOM      7  C   UNL     1       2.525   2.266  18.138  0.00  0.00    +0.000 A 
ATOM      8  C   UNL     1       3.801   2.827  18.029  0.00  0.00    +0.000 A 
ATOM      9  C   UNL     1       3.908   4.227  17.978  0.00  0.00    +0.000 A 
ENDROOT
BRANCH   3  10
ATOM     10  C   UNL     1       2.436   7.581  17.920  0.00  0.00    +0.000 C 
ATOM     11  C   UNL     1       1.903   8.175  18.989  0.00  0.00    +0.000 C 
ATOM     12  N   UNL     1       2.046   7.834  20.305  0.00  0.00    +0.000 N 
ATOM     13  C   UNL     1       1.314   8.691  21.099  0.00  0.00    +0.000 C 
ATOM     14  O   UNL     1       1.233   8.641  22.314  0.00  0.00    +0.000 OA
ATOM     15  N   UNL     1       0.702   9.599  20.277  0.00  0.00    +0.000 N 
ATOM     16  C   UNL     1       1.013   9.375  18.965  0.00  0.00    +0.000 C 
ATOM     17  O   UNL     1       0.641   9.999  17.989  0.00  0.00    +0.000 OA
ATOM     18  H   UNL     1       2.628   7.096  20.668  0.00  0.00    +0.000 HD
ATOM     19  H   UNL     1       0.108  10.340  20.607  0.00  0.00    +0.000 HD
ENDBRANCH   3  10
BRANCH   1  20
ATOM     20  C   UNL     1       6.400   4.637  17.748  0.00  0.00    +0.000 C 
BRANCH  20  22
ATOM     21  C   UNL     1       8.111   6.681  18.683  0.00  0.00    +0.000 C 
ATOM     22  C   UNL     1       7.321   5.736  18.251  0.00  0.00    +0.000 C 
ENDBRANCH  20  22
ENDBRANCH   1  20
TORSDOF 3
ENDMDL
MODEL 9
REMARK VINA RESULT:      -7.3      2.299      4.518
REMARK  Name = 
REMARK  3 active torsions:
REMARK  status: ('A' for Active; 'I' for Inactive)
REMARK    1  A    between atoms: C_2  and  C_3
REMARK    2  A    between atoms: C_3  and  N_4
REMARK    3  A    between atoms: C_6  and  C_7
REMARK                            x       y       z     vdW  Elec       q    Type
REMARK                         _______ _______ _______ _____ _____    ______ ____
ROOT
ATOM      1  N   UNL     1       4.294   3.867  18.252  0.00  0.00    +0.000 N 
ATOM      2  C   UNL     1       5.311   3.773  17.338  0.00  0.00    +0.000 A 
ATOM      3  C   UNL     1       5.433   4.988  16.701  0.00  0.00    +0.000 A 
ATOM      4  C   UNL     1       4.479   5.874  17.281  0.00  0.00    +0.000 A 
ATOM      5  C   UNL     1       4.137   7.227  17.063  0.00  0.00    +0.000 A 
ATOM      6  C   UNL     1       3.104   7.807  17.802  0.00  0.00    +0.000 A 
ATOM      7  C   UNL     1       2.409   7.062  18.749  0.00  0.00    +0.000 A 
ATOM      8  C   UNL     1       2.725   5.721  18.987  0.00  0.00    +0.000 A 
ATOM      9  C   UNL     1       3.769   5.144  18.244  0.00  0.00    +0.000 A 
ENDROOT
BRANCH   3  10
ATOM     10  C   UNL     1       6.375   5.295  15.674  0.00  0.00    +0.000 C 
ATOM     11  C   UNL     1       6.425   4.749  14.458  0.00  0.00    +0.000 C 
ATOM     12  N   UNL     1       5.572   3.835  13.905  0.00  0.00    +0.000 N 
ATOM     13  C   UNL     1       5.986   3.508  12.632  0.00  0.00    +0.000 C 
ATOM     14  O   UNL     1       5.437   2.716  11.886  0.00  0.00    +0.000 OA
ATOM     15  N   UNL     1       7.116   4.233  12.364  0.00  0.00    +0.000 N 
ATOM     16  C   UNL     1       7.459   5.034  13.416  0.00  0.00    +0.000 C 
ATOM     17  O   UNL     1       8.399   5.801  13.501  0.00  0.00    +0.000 OA
ATOM     18  H   UNL     1       4.734   3.470  14.331  0.00  0.00    +0.000 HD
ATOM     19  H   UNL     1       7.619   4.182  11.494  0.00  0.00    +0.000 HD
ENDBRANCH   3  10
BRANCH   1  20
ATOM     20  C   UNL     1       3.846   2.746  19.067  0.00  0.00    +0.000 C 
BRANCH  20  22
ATOM     21  C   UNL     1       1.081   2.310  18.688  0.00  0.00    +0.000 C 
ATOM     22  C   UNL     1       2.358   2.511  18.863  0.00  0.00    +0.000 C 
ENDBRANCH  20  22
ENDBRANCH   1  20
TORSDOF 3
ENDMDL
