MODEL 1
REMARK VINA RESULT:      -7.2      0.000      0.000
REMARK  Name = 
REMARK  1 active torsions:
REMARK  status: ('A' for Active; 'I' for Inactive)
REMARK    1  A    between atoms: C_5  and  C_6
REMARK                            x       y       z     vdW  Elec       q    Type
REMARK                         _______ _______ _______ _____ _____    ______ ____
ROOT
ATOM      1  C   UNL     1       0.569  12.159  18.510  0.00  0.00    +0.000 C 
ATOM      2  N   UNL     1      -0.660  12.414  19.208  0.00  0.00    +0.000 N 
ATOM      3  C   UNL     1      -0.862  13.519  19.959  0.00  0.00    +0.000 C 
ATOM      4  N   UNL     1      -2.160  13.615  20.392  0.00  0.00    +0.000 N 
ATOM      5  C   UNL     1      -3.044  12.442  20.631  0.00  0.00    +0.000 C 
ATOM      6  C   UNL     1      -3.636  12.434  22.061  0.00  0.00    +0.000 C 
ATOM      7  N   UNL     1      -4.266  13.733  22.266  0.00  0.00    +0.000 N 
ATOM      8  C   UNL     1      -5.490  13.890  22.870  0.00  0.00    +0.000 A 
ATOM      9  C   UNL     1      -6.289  14.970  22.481  0.00  0.00    +0.000 A 
ATOM     10  C   UNL     1      -7.505  15.208  23.100  0.00  0.00    +0.000 A 
ATOM     11  C   UNL     1      -7.915  14.359  24.112  0.00  0.00    +0.000 A 
ATOM     12  C   UNL     1      -7.097  13.281  24.418  0.00  0.00    +0.000 A 
ATOM     13  N   UNL     1      -5.916  13.017  23.807  0.00  0.00    +0.000 NA
ATOM     14  C   UNL     1      -3.337  14.863  22.199  0.00  0.00    +0.000 C 
ATOM     15  C   UNL     1      -2.735  14.916  20.788  0.00  0.00    +0.000 C 
ATOM     16  N   UNL     1       0.059  14.395  20.249  0.00  0.00    +0.000 NA
ATOM     17  C   UNL     1       1.321  14.166  19.755  0.00  0.00    +0.000 C 
ATOM     18  C   UNL     1       1.613  13.154  18.909  0.00  0.00    +0.000 C 
ATOM     19  C   UNL     1       3.001  12.942  18.355  0.00  0.00    +0.000 C 
ATOM     20  C   UNL     1       3.778  14.249  18.222  0.00  0.00    +0.000 C 
ATOM     21  C   UNL     1       3.657  15.065  19.480  0.00  0.00    +0.000 A 
ATOM     22  C   UNL     1       4.721  15.872  19.903  0.00  0.00    +0.000 A 
ATOM     23  C   UNL     1       4.610  16.612  21.079  0.00  0.00    +0.000 A 
ATOM     24  C   UNL     1       3.436  16.556  21.825  0.00  0.00    +0.000 A 
ATOM     25  C   UNL     1       2.361  15.776  21.391  0.00  0.00    +0.000 A 
ATOM     26  C   UNL     1       2.449  15.025  20.211  0.00  0.00    +0.000 A 
ATOM     27  H   UNL     1      -1.480  12.025  18.763  0.00  0.00    +0.000 HD
ENDROOT
BRANCH   1  32
ATOM     28 CL   UNL     1       2.247   6.523  19.878  0.00  0.00    +0.000 Cl
ATOM     29  C   UNL     1       1.756   8.122  19.480  0.00  0.00    +0.000 A 
ATOM     30  C   UNL     1       1.948   8.607  18.186  0.00  0.00    +0.000 A 
ATOM     31  C   UNL     1       1.556   9.907  17.859  0.00  0.00    +0.000 A 
ATOM     32  C   UNL     1       0.970  10.729  18.832  0.00  0.00    +0.000 A 
ATOM     33  C   UNL     1       0.776  10.219  20.131  0.00  0.00    +0.000 A 
ATOM     34  C   UNL     1       1.167   8.927  20.456  0.00  0.00    +0.000 A 
ENDBRANCH   1  32
TORSDOF 1
ENDMDL
MODEL 2
REMARK VINA RESULT:      -7.0      7.640      9.851
REMARK  Name = 
REMARK  1 active torsions:
REMARK  status: ('A' for Active; 'I' for Inactive)
REMARK    1  A    between atoms: C_5  and  C_6
REMARK                            x       y       z     vdW  Elec       q    Type
REMARK                         _______ _______ _______ _____ _____    ______ ____
ROOT
ATOM      1  C   UNL     1       7.329  16.056  20.268  0.00  0.00    +0.000 C 
ATOM      2  N   UNL     1       7.043  15.285  21.445  0.00  0.00    +0.000 N 
ATOM      3  C   UNL     1       7.787  14.223  21.825  0.00  0.00    +0.000 C 
ATOM      4  N   UNL     1       7.416  13.751  23.058  0.00  0.00    +0.000 N 
ATOM      5  C   UNL     1       6.039  13.868  23.611  0.00  0.00    +0.000 C 
ATOM      6  C   UNL     1       5.459  12.497  24.037  0.00  0.00    +0.000 C 
ATOM      7  N   UNL     1       6.433  11.884  24.931  0.00  0.00    +0.000 N 
ATOM      8  C   UNL     1       6.086  11.233  26.091  0.00  0.00    +0.000 A 
ATOM      9  C   UNL     1       6.990  11.247  27.157  0.00  0.00    +0.000 A 
ATOM     10  C   UNL     1       6.716  10.556  28.326  0.00  0.00    +0.000 A 
ATOM     11  C   UNL     1       5.531   9.849  28.419  0.00  0.00    +0.000 A 
ATOM     12  C   UNL     1       4.658   9.913  27.343  0.00  0.00    +0.000 A 
ATOM     13  N   UNL     1       4.897  10.604  26.201  0.00  0.00    +0.000 NA
ATOM     14  C   UNL     1       7.730  11.618  24.307  0.00  0.00    +0.000 C 
ATOM     15  C   UNL     1       8.349  12.956  23.881  0.00  0.00    +0.000 C 
ATOM     16  N   UNL     1       8.743  13.696  21.112  0.00  0.00    +0.000 NA
ATOM     17  C   UNL     1       9.001  14.267  19.888  0.00  0.00    +0.000 C 
ATOM     18  C   UNL     1       8.394  15.392  19.453  0.00  0.00    +0.000 C 
ATOM     19  C   UNL     1       8.717  16.017  18.118  0.00  0.00    +0.000 C 
ATOM     20  C   UNL     1      10.159  15.756  17.688  0.00  0.00    +0.000 C 
ATOM     21  C   UNL     1      10.507  14.303  17.871  0.00  0.00    +0.000 A 
ATOM     22  C   UNL     1      11.398  13.676  16.990  0.00  0.00    +0.000 A 
ATOM     23  C   UNL     1      11.704  12.326  17.153  0.00  0.00    +0.000 A 
ATOM     24  C   UNL     1      11.131  11.606  18.199  0.00  0.00    +0.000 A 
ATOM     25  C   UNL     1      10.267  12.236  19.098  0.00  0.00    +0.000 A 
ATOM     26  C   UNL     1       9.946  13.593  18.955  0.00  0.00    +0.000 A 
ATOM     27  H   UNL     1       6.607  15.809  22.191  0.00  0.00    +0.000 HD
ENDROOT
BRANCH   1  32
ATOM     28 CL   UNL     1       2.064  16.627  17.368  0.00  0.00    +0.000 Cl
ATOM     29  C   UNL     1       3.572  16.471  18.180  0.00  0.00    +0.000 A 
ATOM     30  C   UNL     1       4.457  15.457  17.814  0.00  0.00    +0.000 A 
ATOM     31  C   UNL     1       5.681  15.322  18.474  0.00  0.00    +0.000 A 
ATOM     32  C   UNL     1       6.020  16.205  19.510  0.00  0.00    +0.000 A 
ATOM     33  C   UNL     1       5.117  17.227  19.860  0.00  0.00    +0.000 A 
ATOM     34  C   UNL     1       3.901  17.361  19.203  0.00  0.00    +0.000 A 
ENDBRANCH   1  32
TORSDOF 1
ENDMDL
MODEL 3
REMARK VINA RESULT:      -6.8      6.125      8.852
REMARK  Name = 
REMARK  1 active torsions:
REMARK  status: ('A' for Active; 'I' for Inactive)
REMARK    1  A    between atoms: C_5  and  C_6
REMARK                            x       y       z     vdW  Elec       q    Type
REMARK                         _______ _______ _______ _____ _____    ______ ____
ROOT
ATOM      1  C   UNL     1       7.994  13.617  21.783  0.00  0.00    +0.000 C 
ATOM      2  N   UNL     1       6.713  14.165  21.437  0.00  0.00    +0.000 N 
ATOM      3  C   UNL     1       6.463  14.751  20.245  0.00  0.00    +0.000 C 
ATOM      4  N   UNL     1       5.134  15.051  20.089  0.00  0.00    +0.000 N 
ATOM      5  C   UNL     1       4.214  15.355  21.218  0.00  0.00    +0.000 C 
ATOM      6  C   UNL     1       3.498  16.716  21.043  0.00  0.00    +0.000 C 
ATOM      7  N   UNL     1       2.873  16.699  19.726  0.00  0.00    +0.000 N 
ATOM      8  C   UNL     1       1.603  17.167  19.489  0.00  0.00    +0.000 A 
ATOM      9  C   UNL     1       0.859  16.577  18.463  0.00  0.00    +0.000 A 
ATOM     10  C   UNL     1      -0.404  17.050  18.142  0.00  0.00    +0.000 A 
ATOM     11  C   UNL     1      -0.914  18.119  18.855  0.00  0.00    +0.000 A 
ATOM     12  C   UNL     1      -0.144  18.630  19.890  0.00  0.00    +0.000 A 
ATOM     13  N   UNL     1       1.082  18.164  20.235  0.00  0.00    +0.000 NA
ATOM     14  C   UNL     1       3.822  16.575  18.618  0.00  0.00    +0.000 C 
ATOM     15  C   UNL     1       4.546  15.228  18.746  0.00  0.00    +0.000 C 
ATOM     16  N   UNL     1       7.368  15.011  19.344  0.00  0.00    +0.000 NA
ATOM     17  C   UNL     1       8.665  14.664  19.639  0.00  0.00    +0.000 C 
ATOM     18  C   UNL     1       9.015  13.981  20.751  0.00  0.00    +0.000 C 
ATOM     19  C   UNL     1      10.442  13.584  21.038  0.00  0.00    +0.000 C 
ATOM     20  C   UNL     1      11.249  13.358  19.762  0.00  0.00    +0.000 C 
ATOM     21  C   UNL     1      11.031  14.489  18.793  0.00  0.00    +0.000 A 
ATOM     22  C   UNL     1      12.066  14.901  17.945  0.00  0.00    +0.000 A 
ATOM     23  C   UNL     1      11.864  15.961  17.062  0.00  0.00    +0.000 A 
ATOM     24  C   UNL     1      10.627  16.600  17.018  0.00  0.00    +0.000 A 
ATOM     25  C   UNL     1       9.582  16.173  17.841  0.00  0.00    +0.000 A 
ATOM     26  C   UNL     1       9.763  15.108  18.735  0.00  0.00    +0.000 A 
ATOM     27  H   UNL     1       5.929  13.701  21.874  0.00  0.00    +0.000 HD
ENDROOT
BRANCH   1  32
ATOM     28 CL   UNL     1       9.258  15.701  27.307  0.00  0.00    +0.000 Cl
ATOM     29  C   UNL     1       8.915  15.108  25.730  0.00  0.00    +0.000 A 
ATOM     30  C   UNL     1       8.968  15.971  24.635  0.00  0.00    +0.000 A 
ATOM     31  C   UNL     1       8.685  15.497  23.353  0.00  0.00    +0.000 A 
ATOM     32  C   UNL     1       8.343  14.150  23.163  0.00  0.00    +0.000 A 
ATOM     33  C   UNL     1       8.303  13.291  24.279  0.00  0.00    +0.000 A 
ATOM     34  C   UNL     1       8.584  13.764  25.554  0.00  0.00    +0.000 A 
ENDBRANCH   1  32
TORSDOF 1
ENDMDL
MODEL 4
REMARK VINA RESULT:      -6.8      3.078      8.347
REMARK  Name = 
REMARK  1 active torsions:
REMARK  status: ('A' for Active; 'I' for Inactive)
REMARK    1  A    between atoms: C_5  and  C_6
REMARK                            x       y       z     vdW  Elec       q    Type
REMARK                         _______ _______ _______ _____ _____    ______ ____
ROOT
ATOM      1  C   UNL     1      -0.055  11.797  21.074  0.00  0.00    +0.000 C 
ATOM      2  N   UNL     1       1.161  12.522  20.834  0.00  0.00    +0.000 N 
ATOM      3  C   UNL     1       1.483  13.653  21.500  0.00  0.00    +0.000 C 
ATOM      4  N   UNL     1       2.757  14.072  21.213  0.00  0.00    +0.000 N 
ATOM      5  C   UNL     1       3.446  13.807  19.920  0.00  0.00    +0.000 C 
ATOM      6  C   UNL     1       3.956  15.106  19.249  0.00  0.00    +0.000 C 
ATOM      7  N   UNL     1       4.758  15.808  20.242  0.00  0.00    +0.000 N 
ATOM      8  C   UNL     1       5.960  16.410  19.952  0.00  0.00    +0.000 A 
ATOM      9  C   UNL     1       6.927  16.479  20.959  0.00  0.00    +0.000 A 
ATOM     10  C   UNL     1       8.132  17.127  20.738  0.00  0.00    +0.000 A 
ATOM     11  C   UNL     1       8.360  17.706  19.503  0.00  0.00    +0.000 A 
ATOM     12  C   UNL     1       7.378  17.562  18.534  0.00  0.00    +0.000 A 
ATOM     13  N   UNL     1       6.204  16.910  18.723  0.00  0.00    +0.000 NA
ATOM     14  C   UNL     1       4.010  16.214  21.434  0.00  0.00    +0.000 C 
ATOM     15  C   UNL     1       3.497  14.952  22.139  0.00  0.00    +0.000 C 
ATOM     16  N   UNL     1       0.688  14.283  22.318  0.00  0.00    +0.000 NA
ATOM     17  C   UNL     1      -0.567  13.754  22.505  0.00  0.00    +0.000 C 
ATOM     18  C   UNL     1      -0.961  12.575  21.975  0.00  0.00    +0.000 C 
ATOM     19  C   UNL     1      -2.334  12.000  22.220  0.00  0.00    +0.000 C 
ATOM     20  C   UNL     1      -2.903  12.414  23.575  0.00  0.00    +0.000 C 
ATOM     21  C   UNL     1      -2.728  13.893  23.790  0.00  0.00    +0.000 A 
ATOM     22  C   UNL     1      -3.683  14.619  24.514  0.00  0.00    +0.000 A 
ATOM     23  C   UNL     1      -3.525  15.991  24.695  0.00  0.00    +0.000 A 
ATOM     24  C   UNL     1      -2.412  16.638  24.164  0.00  0.00    +0.000 A 
ATOM     25  C   UNL     1      -1.442  15.913  23.466  0.00  0.00    +0.000 A 
ATOM     26  C   UNL     1      -1.579  14.531  23.274  0.00  0.00    +0.000 A 
ATOM     27  H   UNL     1       1.936  11.949  20.533  0.00  0.00    +0.000 HD
ENDROOT
BRANCH   1  32
ATOM     28 CL   UNL     1      -2.633  10.770  15.711  0.00  0.00    +0.000 Cl
ATOM     29  C   UNL     1      -1.884  11.056  17.232  0.00  0.00    +0.000 A 
ATOM     30  C   UNL     1      -1.622   9.988  18.091  0.00  0.00    +0.000 A 
ATOM     31  C   UNL     1      -1.019  10.215  19.329  0.00  0.00    +0.000 A 
ATOM     32  C   UNL     1      -0.678  11.520  19.716  0.00  0.00    +0.000 A 
ATOM     33  C   UNL     1      -0.942  12.584  18.832  0.00  0.00    +0.000 A 
ATOM     34  C   UNL     1      -1.542  12.358  17.601  0.00  0.00    +0.000 A 
ENDBRANCH   1  32
TORSDOF 1
ENDMDL
MODEL 5
REMARK VINA RESULT:      -6.7      2.864      8.234
REMARK  Name = 
REMARK  1 active torsions:
REMARK  status: ('A' for Active; 'I' for Inactive)
REMARK    1  A    between atoms: C_5  and  C_6
REMARK                            x       y       z     vdW  Elec       q    Type
REMARK                         _______ _______ _______ _____ _____    ______ ____
ROOT
ATOM      1  C   UNL     1      -2.084  11.761  19.916  0.00  0.00    +0.000 C 
ATOM      2  N   UNL     1      -0.713  12.169  19.784  0.00  0.00    +0.000 N 
ATOM      3  C   UNL     1      -0.246  13.338  20.274  0.00  0.00    +0.000 C 
ATOM      4  N   UNL     1       1.119  13.432  20.165  0.00  0.00    +0.000 N 
ATOM      5  C   UNL     1       1.915  12.754  19.105  0.00  0.00    +0.000 C 
ATOM      6  C   UNL     1       2.801  13.746  18.313  0.00  0.00    +0.000 C 
ATOM      7  N   UNL     1       3.584  14.490  19.291  0.00  0.00    +0.000 N 
ATOM      8  C   UNL     1       4.920  14.770  19.132  0.00  0.00    +0.000 A 
ATOM      9  C   UNL     1       5.716  14.881  20.276  0.00  0.00    +0.000 A 
ATOM     10  C   UNL     1       7.055  15.221  20.175  0.00  0.00    +0.000 A 
ATOM     11  C   UNL     1       7.591  15.450  18.921  0.00  0.00    +0.000 A 
ATOM     12  C   UNL     1       6.758  15.279  17.824  0.00  0.00    +0.000 A 
ATOM     13  N   UNL     1       5.453  14.923  17.902  0.00  0.00    +0.000 NA
ATOM     14  C   UNL     1       2.777  15.290  20.216  0.00  0.00    +0.000 C 
ATOM     15  C   UNL     1       1.891  14.342  21.034  0.00  0.00    +0.000 C 
ATOM     16  N   UNL     1      -0.991  14.277  20.786  0.00  0.00    +0.000 NA
ATOM     17  C   UNL     1      -2.347  14.052  20.822  0.00  0.00    +0.000 C 
ATOM     18  C   UNL     1      -2.914  12.881  20.459  0.00  0.00    +0.000 C 
ATOM     19  C   UNL     1      -4.402  12.648  20.537  0.00  0.00    +0.000 C 
ATOM     20  C   UNL     1      -5.059  13.459  21.651  0.00  0.00    +0.000 C 
ATOM     21  C   UNL     1      -4.587  14.888  21.611  0.00  0.00    +0.000 A 
ATOM     22  C   UNL     1      -5.449  15.926  21.985  0.00  0.00    +0.000 A 
ATOM     23  C   UNL     1      -5.013  17.249  21.930  0.00  0.00    +0.000 A 
ATOM     24  C   UNL     1      -3.715  17.534  21.512  0.00  0.00    +0.000 A 
ATOM     25  C   UNL     1      -2.842  16.499  21.167  0.00  0.00    +0.000 A 
ATOM     26  C   UNL     1      -3.259  15.161  21.218  0.00  0.00    +0.000 A 
ATOM     27  H   UNL     1      -0.052  11.406  19.754  0.00  0.00    +0.000 HD
ENDROOT
BRANCH   1  32
ATOM     28 CL   UNL     1      -3.798  10.006  14.399  0.00  0.00    +0.000 Cl
ATOM     29  C   UNL     1      -3.322  10.496  15.977  0.00  0.00    +0.000 A 
ATOM     30  C   UNL     1      -4.111  11.396  16.694  0.00  0.00    +0.000 A 
ATOM     31  C   UNL     1      -3.726  11.801  17.973  0.00  0.00    +0.000 A 
ATOM     32  C   UNL     1      -2.543  11.307  18.540  0.00  0.00    +0.000 A 
ATOM     33  C   UNL     1      -1.763  10.392  17.805  0.00  0.00    +0.000 A 
ATOM     34  C   UNL     1      -2.146   9.990  16.532  0.00  0.00    +0.000 A 
ENDBRANCH   1  32
TORSDOF 1
ENDMDL
MODEL 6
REMARK VINA RESULT:      -6.6      3.564      8.801
REMARK  Name = 
REMARK  1 active torsions:
REMARK  status: ('A' for Active; 'I' for Inactive)
REMARK    1  A    between atoms: C_5  and  C_6
REMARK                            x       y       z     vdW  Elec       q    Type
REMARK                         _______ _______ _______ _____ _____    ______ ____
ROOT
ATOM      1  C   UNL     1      -1.639  15.795  21.786  0.00  0.00    +0.000 C 
ATOM      2  N   UNL     1      -0.954  14.622  21.320  0.00  0.00    +0.000 N 
ATOM      3  C   UNL     1      -1.565  13.653  20.602  0.00  0.00    +0.000 C 
ATOM      4  N   UNL     1      -0.674  12.719  20.139  0.00  0.00    +0.000 N 
ATOM      5  C   UNL     1       0.600  12.375  20.828  0.00  0.00    +0.000 C 
ATOM      6  C   UNL     1       0.719  10.859  21.120  0.00  0.00    +0.000 C 
ATOM      7  N   UNL     1       0.493  10.166  19.858  0.00  0.00    +0.000 N 
ATOM      8  C   UNL     1       1.250   9.096  19.440  0.00  0.00    +0.000 A 
ATOM      9  C   UNL     1       1.427   8.906  18.066  0.00  0.00    +0.000 A 
ATOM     10  C   UNL     1       2.130   7.811  17.589  0.00  0.00    +0.000 A 
ATOM     11  C   UNL     1       2.651   6.908  18.497  0.00  0.00    +0.000 A 
ATOM     12  C   UNL     1       2.477   7.179  19.847  0.00  0.00    +0.000 A 
ATOM     13  N   UNL     1       1.815   8.258  20.333  0.00  0.00    +0.000 NA
ATOM     14  C   UNL     1      -0.838  10.383  19.288  0.00  0.00    +0.000 C 
ATOM     15  C   UNL     1      -0.993  11.876  18.970  0.00  0.00    +0.000 C 
ATOM     16  N   UNL     1      -2.847  13.598  20.373  0.00  0.00    +0.000 NA
ATOM     17  C   UNL     1      -3.623  14.599  20.907  0.00  0.00    +0.000 C 
ATOM     18  C   UNL     1      -3.111  15.670  21.551  0.00  0.00    +0.000 C 
ATOM     19  C   UNL     1      -3.983  16.772  22.102  0.00  0.00    +0.000 C 
ATOM     20  C   UNL     1      -5.268  16.952  21.298  0.00  0.00    +0.000 C 
ATOM     21  C   UNL     1      -5.921  15.621  21.042  0.00  0.00    +0.000 A 
ATOM     22  C   UNL     1      -7.317  15.520  20.980  0.00  0.00    +0.000 A 
ATOM     23  C   UNL     1      -7.917  14.281  20.760  0.00  0.00    +0.000 A 
ATOM     24  C   UNL     1      -7.125  13.147  20.593  0.00  0.00    +0.000 A 
ATOM     25  C   UNL     1      -5.732  13.248  20.624  0.00  0.00    +0.000 A 
ATOM     26  C   UNL     1      -5.107  14.484  20.841  0.00  0.00    +0.000 A 
ATOM     27  H   UNL     1       0.028  14.759  21.131  0.00  0.00    +0.000 HD
ENDROOT
BRANCH   1  32
ATOM     28 CL   UNL     1      -0.140  16.385  27.605  0.00  0.00    +0.000 Cl
ATOM     29  C   UNL     1      -0.582  16.225  25.951  0.00  0.00    +0.000 A 
ATOM     30  C   UNL     1      -1.550  15.294  25.576  0.00  0.00    +0.000 A 
ATOM     31  C   UNL     1      -1.909  15.156  24.234  0.00  0.00    +0.000 A 
ATOM     32  C   UNL     1      -1.293  15.952  23.257  0.00  0.00    +0.000 A 
ATOM     33  C   UNL     1      -0.323  16.893  23.656  0.00  0.00    +0.000 A 
ATOM     34  C   UNL     1       0.033  17.029  24.991  0.00  0.00    +0.000 A 
ENDBRANCH   1  32
TORSDOF 1
ENDMDL
MODEL 7
REMARK VINA RESULT:      -6.5      4.070      7.621
REMARK  Name = 
REMARK  1 active torsions:
REMARK  status: ('A' for Active; 'I' for Inactive)
REMARK    1  A    between atoms: C_5  and  C_6
REMARK                            x       y       z     vdW  Elec       q    Type
REMARK                         _______ _______ _______ _____ _____    ______ ____
ROOT
ATOM      1  C   UNL     1       1.845   5.559  18.032  0.00  0.00    +0.000 C 
ATOM      2  N   UNL     1       1.408   6.856  18.467  0.00  0.00    +0.000 N 
ATOM      3  C   UNL     1       2.139   7.977  18.281  0.00  0.00    +0.000 C 
ATOM      4  N   UNL     1       1.446   9.106  18.637  0.00  0.00    +0.000 N 
ATOM      5  C   UNL     1       0.383   9.134  19.679  0.00  0.00    +0.000 C 
ATOM      6  C   UNL     1       0.664  10.190  20.776  0.00  0.00    +0.000 C 
ATOM      7  N   UNL     1       0.893  11.458  20.094  0.00  0.00    +0.000 N 
ATOM      8  C   UNL     1       0.367  12.652  20.527  0.00  0.00    +0.000 A 
ATOM      9  C   UNL     1       0.074  13.633  19.575  0.00  0.00    +0.000 A 
ATOM     10  C   UNL     1      -0.401  14.875  19.963  0.00  0.00    +0.000 A 
ATOM     11  C   UNL     1      -0.578  15.129  21.310  0.00  0.00    +0.000 A 
ATOM     12  C   UNL     1      -0.311  14.098  22.200  0.00  0.00    +0.000 A 
ATOM     13  N   UNL     1       0.129  12.868  21.838  0.00  0.00    +0.000 NA
ATOM     14  C   UNL     1       2.055  11.455  19.203  0.00  0.00    +0.000 C 
ATOM     15  C   UNL     1       1.811  10.428  18.089  0.00  0.00    +0.000 C 
ATOM     16  N   UNL     1       3.359   7.998  17.825  0.00  0.00    +0.000 NA
ATOM     17  C   UNL     1       3.935   6.788  17.517  0.00  0.00    +0.000 C 
ATOM     18  C   UNL     1       3.265   5.616  17.563  0.00  0.00    +0.000 C 
ATOM     19  C   UNL     1       3.911   4.304  17.191  0.00  0.00    +0.000 C 
ATOM     20  C   UNL     1       5.008   4.474  16.144  0.00  0.00    +0.000 C 
ATOM     21  C   UNL     1       5.923   5.609  16.518  0.00  0.00    +0.000 A 
ATOM     22  C   UNL     1       7.284   5.555  16.193  0.00  0.00    +0.000 A 
ATOM     23  C   UNL     1       8.130   6.601  16.557  0.00  0.00    +0.000 A 
ATOM     24  C   UNL     1       7.616   7.704  17.235  0.00  0.00    +0.000 A 
ATOM     25  C   UNL     1       6.254   7.776  17.534  0.00  0.00    +0.000 A 
ATOM     26  C   UNL     1       5.384   6.736  17.176  0.00  0.00    +0.000 A 
ATOM     27  H   UNL     1       0.405   6.977  18.473  0.00  0.00    +0.000 HD
ENDROOT
BRANCH   1  32
ATOM     28 CL   UNL     1       1.214   1.784  22.701  0.00  0.00    +0.000 Cl
ATOM     29  C   UNL     1       1.377   2.864  21.373  0.00  0.00    +0.000 A 
ATOM     30  C   UNL     1       0.811   2.541  20.140  0.00  0.00    +0.000 A 
ATOM     31  C   UNL     1       0.945   3.411  19.056  0.00  0.00    +0.000 A 
ATOM     32  C   UNL     1       1.654   4.613  19.205  0.00  0.00    +0.000 A 
ATOM     33  C   UNL     1       2.212   4.926  20.460  0.00  0.00    +0.000 A 
ATOM     34  C   UNL     1       2.078   4.059  21.537  0.00  0.00    +0.000 A 
ENDBRANCH   1  32
TORSDOF 1
ENDMDL
MODEL 8
REMARK VINA RESULT:      -6.5      4.029      8.430
REMARK  Name = 
REMARK  1 active torsions:
REMARK  status: ('A' for Active; 'I' for Inactive)
REMARK    1  A    between atoms: C_5  and  C_6
REMARK                            x       y       z     vdW  Elec       q    Type
REMARK                         _______ _______ _______ _____ _____    ______ ____
ROOT
ATOM      1  C   UNL     1      -4.741  14.556  21.967  0.00  0.00    +0.000 C 
ATOM      2  N   UNL     1      -3.829  13.567  21.464  0.00  0.00    +0.000 N 
ATOM      3  C   UNL     1      -2.602  13.365  21.993  0.00  0.00    +0.000 C 
ATOM      4  N   UNL     1      -1.983  12.268  21.450  0.00  0.00    +0.000 N 
ATOM      5  C   UNL     1      -2.235  11.773  20.069  0.00  0.00    +0.000 C 
ATOM      6  C   UNL     1      -0.932  11.653  19.242  0.00  0.00    +0.000 C 
ATOM      7  N   UNL     1      -0.005  10.848  20.026  0.00  0.00    +0.000 N 
ATOM      8  C   UNL     1       0.778   9.857  19.484  0.00  0.00    +0.000 A 
ATOM      9  C   UNL     1       1.118   8.764  20.287  0.00  0.00    +0.000 A 
ATOM     10  C   UNL     1       1.954   7.768  19.809  0.00  0.00    +0.000 A 
ATOM     11  C   UNL     1       2.448   7.874  18.522  0.00  0.00    +0.000 A 
ATOM     12  C   UNL     1       2.037   8.960  17.763  0.00  0.00    +0.000 A 
ATOM     13  N   UNL     1       1.200   9.931  18.204  0.00  0.00    +0.000 NA
ATOM     14  C   UNL     1       0.364  11.445  21.311  0.00  0.00    +0.000 C 
ATOM     15  C   UNL     1      -0.901  11.570  22.171  0.00  0.00    +0.000 C 
ATOM     16  N   UNL     1      -2.057  14.117  22.907  0.00  0.00    +0.000 NA
ATOM     17  C   UNL     1      -2.789  15.192  23.355  0.00  0.00    +0.000 C 
ATOM     18  C   UNL     1      -4.064  15.429  22.975  0.00  0.00    +0.000 C 
ATOM     19  C   UNL     1      -4.857  16.598  23.504  0.00  0.00    +0.000 C 
ATOM     20  C   UNL     1      -4.432  16.997  24.915  0.00  0.00    +0.000 C 
ATOM     21  C   UNL     1      -2.933  17.085  25.009  0.00  0.00    +0.000 A 
ATOM     22  C   UNL     1      -2.332  18.025  25.856  0.00  0.00    +0.000 A 
ATOM     23  C   UNL     1      -0.943  18.113  25.926  0.00  0.00    +0.000 A 
ATOM     24  C   UNL     1      -0.155  17.258  25.160  0.00  0.00    +0.000 A 
ATOM     25  C   UNL     1      -0.749  16.298  24.337  0.00  0.00    +0.000 A 
ATOM     26  C   UNL     1      -2.145  16.190  24.253  0.00  0.00    +0.000 A 
ATOM     27  H   UNL     1      -4.275  12.757  21.058  0.00  0.00    +0.000 HD
ENDROOT
BRANCH   1  32
ATOM     28 CL   UNL     1      -6.793  17.756  17.277  0.00  0.00    +0.000 Cl
ATOM     29  C   UNL     1      -6.202  16.833  18.601  0.00  0.00    +0.000 A 
ATOM     30  C   UNL     1      -6.855  15.659  18.978  0.00  0.00    +0.000 A 
ATOM     31  C   UNL     1      -6.384  14.908  20.056  0.00  0.00    +0.000 A 
ATOM     32  C   UNL     1      -5.252  15.335  20.767  0.00  0.00    +0.000 A 
ATOM     33  C   UNL     1      -4.601  16.519  20.367  0.00  0.00    +0.000 A 
ATOM     34  C   UNL     1      -5.071  17.265  19.295  0.00  0.00    +0.000 A 
ENDBRANCH   1  32
TORSDOF 1
ENDMDL
MODEL 9
REMARK VINA RESULT:      -6.4      3.986      9.400
REMARK  Name = 
REMARK  1 active torsions:
REMARK  status: ('A' for Active; 'I' for Inactive)
REMARK    1  A    between atoms: C_5  and  C_6
REMARK                            x       y       z     vdW  Elec       q    Type
REMARK                         _______ _______ _______ _____ _____    ______ ____
ROOT
ATOM      1  C   UNL     1       1.977  13.674  20.469  0.00  0.00    +0.000 C 
ATOM      2  N   UNL     1       3.319  14.107  20.199  0.00  0.00    +0.000 N 
ATOM      3  C   UNL     1       3.616  15.357  19.779  0.00  0.00    +0.000 C 
ATOM      4  N   UNL     1       4.969  15.579  19.743  0.00  0.00    +0.000 N 
ATOM      5  C   UNL     1       5.979  14.510  19.512  0.00  0.00    +0.000 C 
ATOM      6  C   UNL     1       6.919  14.837  18.326  0.00  0.00    +0.000 C 
ATOM      7  N   UNL     1       7.470  16.163  18.576  0.00  0.00    +0.000 N 
ATOM      8  C   UNL     1       8.792  16.481  18.372  0.00  0.00    +0.000 A 
ATOM      9  C   UNL     1       9.370  17.465  19.179  0.00  0.00    +0.000 A 
ATOM     10  C   UNL     1      10.681  17.865  18.976  0.00  0.00    +0.000 A 
ATOM     11  C   UNL     1      11.408  17.274  17.958  0.00  0.00    +0.000 A 
ATOM     12  C   UNL     1      10.789  16.273  17.224  0.00  0.00    +0.000 A 
ATOM     13  N   UNL     1       9.516  15.850  17.424  0.00  0.00    +0.000 NA
ATOM     14  C   UNL     1       6.465  17.227  18.624  0.00  0.00    +0.000 C 
ATOM     15  C   UNL     1       5.518  16.948  19.798  0.00  0.00    +0.000 C 
ATOM     16  N   UNL     1       2.732  16.253  19.440  0.00  0.00    +0.000 NA
ATOM     17  C   UNL     1       1.409  15.889  19.516  0.00  0.00    +0.000 C 
ATOM     18  C   UNL     1       0.993  14.707  20.020  0.00  0.00    +0.000 C 
ATOM     19  C   UNL     1      -0.468  14.343  20.121  0.00  0.00    +0.000 C 
ATOM     20  C   UNL     1      -1.360  15.568  20.310  0.00  0.00    +0.000 C 
ATOM     21  C   UNL     1      -0.985  16.648  19.331  0.00  0.00    +0.000 A 
ATOM     22  C   UNL     1      -1.967  17.503  18.814  0.00  0.00    +0.000 A 
ATOM     23  C   UNL     1      -1.618  18.490  17.894  0.00  0.00    +0.000 A 
ATOM     24  C   UNL     1      -0.290  18.631  17.498  0.00  0.00    +0.000 A 
ATOM     25  C   UNL     1       0.697  17.800  18.034  0.00  0.00    +0.000 A 
ATOM     26  C   UNL     1       0.369  16.801  18.962  0.00  0.00    +0.000 A 
ATOM     27  H   UNL     1       4.026  13.649  20.757  0.00  0.00    +0.000 HD
ENDROOT
BRANCH   1  32
ATOM     28 CL   UNL     1       1.187   8.449  17.549  0.00  0.00    +0.000 Cl
ATOM     29  C   UNL     1       1.423   9.928  18.391  0.00  0.00    +0.000 A 
ATOM     30  C   UNL     1       0.838  10.118  19.643  0.00  0.00    +0.000 A 
ATOM     31  C   UNL     1       1.022  11.320  20.330  0.00  0.00    +0.000 A 
ATOM     32  C   UNL     1       1.793  12.343  19.759  0.00  0.00    +0.000 A 
ATOM     33  C   UNL     1       2.383  12.131  18.497  0.00  0.00    +0.000 A 
ATOM     34  C   UNL     1       2.199  10.935  17.815  0.00  0.00    +0.000 A 
ENDBRANCH   1  32
TORSDOF 1
ENDMDL
