MODEL 1
REMARK VINA RESULT:      -8.3      0.000      0.000
REMARK  Name = 
REMARK  16 active torsions:
REMARK  status: ('A' for Active; 'I' for Inactive)
REMARK    1  A    between atoms: C_1  and  O_2
REMARK    2  A    between atoms: O_2  and  C_3
REMARK    3  A    between atoms: C_6  and  C_7
REMARK    4  A    between atoms: C_7  and  C_8
REMARK    5  A    between atoms: C_10  and  O_11
REMARK    6  A    between atoms: C_13  and  C_14
REMARK    7  A    between atoms: C_16  and  C_17
REMARK    8  A    between atoms: C_17  and  C_18
REMARK    9  A    between atoms: C_17  and  C_27
REMARK   10  A    between atoms: C_18  and  C_19
REMARK   11  A    between atoms: C_19  and  C_20
REMARK   12  A    between atoms: C_20  and  C_21
REMARK   13  A    between atoms: C_27  and  C_28
REMARK   14  A    between atoms: C_27  and  O_29
REMARK   15  A    between atoms: C_33  and  O_34
REMARK   16  A    between atoms: O_34  and  C_35
REMARK                            x       y       z     vdW  Elec       q    Type
REMARK                         _______ _______ _______ _____ _____    ______ ____
ROOT
ATOM      1  C   UNL     1       2.706   6.635  18.227  0.00  0.00    +0.000 A 
ATOM      2  N   UNL     1       1.752   5.858  18.852  0.00  0.00    +0.000 NA
ATOM      3  C   UNL     1       2.161   4.753  19.338  0.00  0.00    +0.000 A 
ATOM      4  C   UNL     1       3.476   4.306  19.224  0.00  0.00    +0.000 A 
ATOM      5  C   UNL     1       4.193   3.223  19.653  0.00  0.00    +0.000 A 
ATOM      6  C   UNL     1       3.797   2.051  20.461  0.00  0.00    +0.000 C 
ATOM      7  N   UNL     1       5.477   3.323  19.200  0.00  0.00    +0.000 NA
ATOM      8  C   UNL     1       5.561   4.445  18.501  0.00  0.00    +0.000 A 
ATOM      9  N   UNL     1       4.337   5.105  18.524  0.00  0.00    +0.000 N 
ATOM     10  N   UNL     1       3.959   6.318  18.009  0.00  0.00    +0.000 NA
ENDROOT
BRANCH   3  11
ATOM     11  O   UNL     1       1.314   3.939  19.984  0.00  0.00    +0.000 OA
ATOM     12  H   UNL     1       0.590   4.483  20.334  0.00  0.00    +0.000 HD
ENDBRANCH   3  11
BRANCH   1  13
ATOM     13  C   UNL     1       2.152   8.001  17.841  0.00  0.00    +0.000 C 
BRANCH  13  17
ATOM     14  C   UNL     1       0.750  10.131  21.352  0.00  0.00    +0.000 A 
ATOM     15  C   UNL     1       1.317   8.848  21.448  0.00  0.00    +0.000 A 
ATOM     16  C   UNL     1       1.795   8.180  20.322  0.00  0.00    +0.000 A 
ATOM     17  C   UNL     1       1.693   8.764  19.062  0.00  0.00    +0.000 A 
ATOM     18  C   UNL     1       1.089  10.028  18.957  0.00  0.00    +0.000 A 
ATOM     19  C   UNL     1       0.610  10.720  20.087  0.00  0.00    +0.000 A 
BRANCH  14  21
ATOM     20  C   UNL     1      -0.944  10.375  23.000  0.00  0.00    +0.000 C 
ATOM     21  O   UNL     1       0.307  10.800  22.462  0.00  0.00    +0.000 OA
ENDBRANCH  14  21
BRANCH  19  22
ATOM     22  O   UNL     1       0.073  11.936  19.753  0.00  0.00    +0.000 OA
ATOM     23  C   UNL     1       0.888  13.096  19.796  0.00  0.00    +0.000 C 
ENDBRANCH  19  22
ENDBRANCH  13  17
ENDBRANCH   1  13
BRANCH   8  24
ATOM     24  C   UNL     1       6.804   4.835  17.714  0.00  0.00    +0.000 C 
BRANCH  24  25
ATOM     25  C   UNL     1       7.752   5.734  18.587  0.00  0.00    +0.000 C 
ATOM     26  C   UNL     1       7.805   7.230  18.242  0.00  0.00    +0.000 C 
BRANCH  25  27
ATOM     27  O   UNL     1       7.438   5.587  19.976  0.00  0.00    +0.000 OA
ATOM     28  H   UNL     1       7.893   6.324  20.429  0.00  0.00    +0.000 HD
ENDBRANCH  25  27
ENDBRANCH  24  25
BRANCH  24  29
ATOM     29  C   UNL     1       6.449   5.528  16.378  0.00  0.00    +0.000 C 
BRANCH  29  30
ATOM     30  C   UNL     1       5.890   4.599  15.279  0.00  0.00    +0.000 C 
BRANCH  30  31
ATOM     31  C   UNL     1       6.777   4.517  14.032  0.00  0.00    +0.000 C 
BRANCH  31  32
ATOM     32  C   UNL     1       6.128   3.718  12.926  0.00  0.00    +0.000 A 
ATOM     33  C   UNL     1       4.786   3.939  12.579  0.00  0.00    +0.000 A 
ATOM     34  C   UNL     1       4.186   3.195  11.560  0.00  0.00    +0.000 A 
ATOM     35  C   UNL     1       4.918   2.223  10.880  0.00  0.00    +0.000 A 
ATOM     36  C   UNL     1       6.250   1.992  11.223  0.00  0.00    +0.000 A 
ATOM     37  C   UNL     1       6.852   2.732  12.242  0.00  0.00    +0.000 A 
ENDBRANCH  31  32
ENDBRANCH  30  31
ENDBRANCH  29  30
ENDBRANCH  24  29
ENDBRANCH   8  24
TORSDOF 12
ENDMDL
MODEL 2
REMARK VINA RESULT:      -8.3      2.403      5.235
REMARK  Name = 
REMARK  16 active torsions:
REMARK  status: ('A' for Active; 'I' for Inactive)
REMARK    1  A    between atoms: C_1  and  O_2
REMARK    2  A    between atoms: O_2  and  C_3
REMARK    3  A    between atoms: C_6  and  C_7
REMARK    4  A    between atoms: C_7  and  C_8
REMARK    5  A    between atoms: C_10  and  O_11
REMARK    6  A    between atoms: C_13  and  C_14
REMARK    7  A    between atoms: C_16  and  C_17
REMARK    8  A    between atoms: C_17  and  C_18
REMARK    9  A    between atoms: C_17  and  C_27
REMARK   10  A    between atoms: C_18  and  C_19
REMARK   11  A    between atoms: C_19  and  C_20
REMARK   12  A    between atoms: C_20  and  C_21
REMARK   13  A    between atoms: C_27  and  C_28
REMARK   14  A    between atoms: C_27  and  O_29
REMARK   15  A    between atoms: C_33  and  O_34
REMARK   16  A    between atoms: O_34  and  C_35
REMARK                            x       y       z     vdW  Elec       q    Type
REMARK                         _______ _______ _______ _____ _____    ______ ____
ROOT
ATOM      1  C   UNL     1       2.460   7.437  18.118  0.00  0.00    +0.000 A 
ATOM      2  N   UNL     1       1.730   6.522  18.850  0.00  0.00    +0.000 NA
ATOM      3  C   UNL     1       2.342   5.455  19.184  0.00  0.00    +0.000 A 
ATOM      4  C   UNL     1       3.656   5.178  18.812  0.00  0.00    +0.000 A 
ATOM      5  C   UNL     1       4.556   4.174  19.037  0.00  0.00    +0.000 A 
ATOM      6  C   UNL     1       4.449   2.928  19.825  0.00  0.00    +0.000 C 
ATOM      7  N   UNL     1       5.717   4.450  18.374  0.00  0.00    +0.000 NA
ATOM      8  C   UNL     1       5.545   5.602  17.745  0.00  0.00    +0.000 A 
ATOM      9  N   UNL     1       4.280   6.107  18.025  0.00  0.00    +0.000 N 
ATOM     10  N   UNL     1       3.680   7.285  17.664  0.00  0.00    +0.000 NA
ENDROOT
BRANCH   3  11
ATOM     11  O   UNL     1       1.724   4.516  19.914  0.00  0.00    +0.000 OA
ATOM     12  H   UNL     1       0.780   4.538  19.686  0.00  0.00    +0.000 HD
ENDBRANCH   3  11
BRANCH   1  13
ATOM     13  C   UNL     1       1.695   8.740  17.925  0.00  0.00    +0.000 C 
BRANCH  13  17
ATOM     14  C   UNL     1       0.423  10.389  21.732  0.00  0.00    +0.000 A 
ATOM     15  C   UNL     1       0.746   9.028  21.592  0.00  0.00    +0.000 A 
ATOM     16  C   UNL     1       1.185   8.508  20.374  0.00  0.00    +0.000 A 
ATOM     17  C   UNL     1       1.285   9.330  19.254  0.00  0.00    +0.000 A 
ATOM     18  C   UNL     1       0.922  10.682  19.381  0.00  0.00    +0.000 A 
ATOM     19  C   UNL     1       0.487  11.224  20.606  0.00  0.00    +0.000 A 
BRANCH  14  21
ATOM     20  C   UNL     1      -1.387  11.028  23.131  0.00  0.00    +0.000 C 
ATOM     21  O   UNL     1       0.020  10.906  22.935  0.00  0.00    +0.000 OA
ENDBRANCH  14  21
BRANCH  19  22
ATOM     22  O   UNL     1       0.200  12.560  20.502  0.00  0.00    +0.000 OA
ATOM     23  C   UNL     1      -1.007  12.969  19.879  0.00  0.00    +0.000 C 
ENDBRANCH  19  22
ENDBRANCH  13  17
ENDBRANCH   1  13
BRANCH   8  24
ATOM     24  C   UNL     1       6.573   6.176  16.780  0.00  0.00    +0.000 C 
BRANCH  24  25
ATOM     25  C   UNL     1       7.059   5.077  15.769  0.00  0.00    +0.000 C 
ATOM     26  C   UNL     1       5.978   4.202  15.118  0.00  0.00    +0.000 C 
BRANCH  25  27
ATOM     27  O   UNL     1       7.862   5.667  14.741  0.00  0.00    +0.000 OA
ATOM     28  H   UNL     1       8.546   6.188  15.206  0.00  0.00    +0.000 HD
ENDBRANCH  25  27
ENDBRANCH  24  25
BRANCH  24  29
ATOM     29  C   UNL     1       7.766   6.822  17.522  0.00  0.00    +0.000 C 
BRANCH  29  30
ATOM     30  C   UNL     1       7.742   8.364  17.598  0.00  0.00    +0.000 C 
BRANCH  30  31
ATOM     31  C   UNL     1       8.679   8.941  18.666  0.00  0.00    +0.000 C 
BRANCH  31  32
ATOM     32  C   UNL     1       9.012  10.391  18.402  0.00  0.00    +0.000 A 
ATOM     33  C   UNL     1       8.123  11.209  17.687  0.00  0.00    +0.000 A 
ATOM     34  C   UNL     1       8.436  12.548  17.440  0.00  0.00    +0.000 A 
ATOM     35  C   UNL     1       9.637  13.083  17.902  0.00  0.00    +0.000 A 
ATOM     36  C   UNL     1      10.528  12.277  18.608  0.00  0.00    +0.000 A 
ATOM     37  C   UNL     1      10.221  10.937  18.854  0.00  0.00    +0.000 A 
ENDBRANCH  31  32
ENDBRANCH  30  31
ENDBRANCH  29  30
ENDBRANCH  24  29
ENDBRANCH   8  24
TORSDOF 12
ENDMDL
MODEL 3
REMARK VINA RESULT:      -8.0      3.837      9.972
REMARK  Name = 
REMARK  16 active torsions:
REMARK  status: ('A' for Active; 'I' for Inactive)
REMARK    1  A    between atoms: C_1  and  O_2
REMARK    2  A    between atoms: O_2  and  C_3
REMARK    3  A    between atoms: C_6  and  C_7
REMARK    4  A    between atoms: C_7  and  C_8
REMARK    5  A    between atoms: C_10  and  O_11
REMARK    6  A    between atoms: C_13  and  C_14
REMARK    7  A    between atoms: C_16  and  C_17
REMARK    8  A    between atoms: C_17  and  C_18
REMARK    9  A    between atoms: C_17  and  C_27
REMARK   10  A    between atoms: C_18  and  C_19
REMARK   11  A    between atoms: C_19  and  C_20
REMARK   12  A    between atoms: C_20  and  C_21
REMARK   13  A    between atoms: C_27  and  C_28
REMARK   14  A    between atoms: C_27  and  O_29
REMARK   15  A    between atoms: C_33  and  O_34
REMARK   16  A    between atoms: O_34  and  C_35
REMARK                            x       y       z     vdW  Elec       q    Type
REMARK                         _______ _______ _______ _____ _____    ______ ____
ROOT
ATOM      1  C   UNL     1       2.152   8.174  18.573  0.00  0.00    +0.000 A 
ATOM      2  N   UNL     1       2.300   7.572  19.806  0.00  0.00    +0.000 NA
ATOM      3  C   UNL     1       1.571   8.032  20.746  0.00  0.00    +0.000 A 
ATOM      4  C   UNL     1       0.699   9.107  20.582  0.00  0.00    +0.000 A 
ATOM      5  C   UNL     1      -0.200   9.778  21.362  0.00  0.00    +0.000 A 
ATOM      6  C   UNL     1      -0.606   9.581  22.769  0.00  0.00    +0.000 C 
ATOM      7  N   UNL     1      -0.760  10.791  20.638  0.00  0.00    +0.000 NA
ATOM      8  C   UNL     1      -0.220  10.755  19.429  0.00  0.00    +0.000 A 
ATOM      9  N   UNL     1       0.672   9.691  19.345  0.00  0.00    +0.000 N 
ATOM     10  N   UNL     1       1.410   9.216  18.292  0.00  0.00    +0.000 NA
ENDROOT
BRANCH   3  11
ATOM     11  O   UNL     1       1.626   7.498  21.974  0.00  0.00    +0.000 OA
ATOM     12  H   UNL     1       0.748   7.139  22.180  0.00  0.00    +0.000 HD
ENDBRANCH   3  11
BRANCH   1  13
ATOM     13  C   UNL     1       2.933   7.438  17.493  0.00  0.00    +0.000 C 
BRANCH  13  17
ATOM     14  C   UNL     1       3.868   3.353  18.621  0.00  0.00    +0.000 A 
ATOM     15  C   UNL     1       4.824   4.380  18.719  0.00  0.00    +0.000 A 
ATOM     16  C   UNL     1       4.510   5.697  18.385  0.00  0.00    +0.000 A 
ATOM     17  C   UNL     1       3.239   6.020  17.916  0.00  0.00    +0.000 A 
ATOM     18  C   UNL     1       2.295   4.988  17.777  0.00  0.00    +0.000 A 
ATOM     19  C   UNL     1       2.593   3.655  18.120  0.00  0.00    +0.000 A 
BRANCH  14  21
ATOM     20  C   UNL     1       4.479   1.843  20.351  0.00  0.00    +0.000 C 
ATOM     21  O   UNL     1       4.167   2.064  18.977  0.00  0.00    +0.000 OA
ENDBRANCH  14  21
BRANCH  19  22
ATOM     22  O   UNL     1       1.524   2.822  17.917  0.00  0.00    +0.000 OA
ATOM     23  C   UNL     1       0.772   2.366  19.031  0.00  0.00    +0.000 C 
ENDBRANCH  19  22
ENDBRANCH  13  17
ENDBRANCH   1  13
BRANCH   8  24
ATOM     24  C   UNL     1      -0.488  11.819  18.374  0.00  0.00    +0.000 C 
BRANCH  24  25
ATOM     25  C   UNL     1       0.329  13.125  18.683  0.00  0.00    +0.000 C 
ATOM     26  C   UNL     1      -0.475  14.419  18.872  0.00  0.00    +0.000 C 
BRANCH  25  27
ATOM     27  O   UNL     1       1.170  12.927  19.824  0.00  0.00    +0.000 OA
ATOM     28  H   UNL     1       1.374  13.822  20.160  0.00  0.00    +0.000 HD
ENDBRANCH  25  27
ENDBRANCH  24  25
BRANCH  24  29
ATOM     29  C   UNL     1      -1.998  12.123  18.230  0.00  0.00    +0.000 C 
BRANCH  29  30
ATOM     30  C   UNL     1      -2.731  11.325  17.130  0.00  0.00    +0.000 C 
BRANCH  30  31
ATOM     31  C   UNL     1      -3.876  10.456  17.662  0.00  0.00    +0.000 C 
BRANCH  31  32
ATOM     32  C   UNL     1      -5.149  11.249  17.849  0.00  0.00    +0.000 A 
ATOM     33  C   UNL     1      -5.990  10.999  18.944  0.00  0.00    +0.000 A 
ATOM     34  C   UNL     1      -7.170  11.730  19.113  0.00  0.00    +0.000 A 
ATOM     35  C   UNL     1      -7.521  12.713  18.190  0.00  0.00    +0.000 A 
ATOM     36  C   UNL     1      -6.695  12.964  17.096  0.00  0.00    +0.000 A 
ATOM     37  C   UNL     1      -5.517  12.234  16.923  0.00  0.00    +0.000 A 
ENDBRANCH  31  32
ENDBRANCH  30  31
ENDBRANCH  29  30
ENDBRANCH  24  29
ENDBRANCH   8  24
TORSDOF 12
ENDMDL
MODEL 4
REMARK VINA RESULT:      -8.0      3.500      9.677
REMARK  Name = 
REMARK  16 active torsions:
REMARK  status: ('A' for Active; 'I' for Inactive)
REMARK    1  A    between atoms: C_1  and  O_2
REMARK    2  A    between atoms: O_2  and  C_3
REMARK    3  A    between atoms: C_6  and  C_7
REMARK    4  A    between atoms: C_7  and  C_8
REMARK    5  A    between atoms: C_10  and  O_11
REMARK    6  A    between atoms: C_13  and  C_14
REMARK    7  A    between atoms: C_16  and  C_17
REMARK    8  A    between atoms: C_17  and  C_18
REMARK    9  A    between atoms: C_17  and  C_27
REMARK   10  A    between atoms: C_18  and  C_19
REMARK   11  A    between atoms: C_19  and  C_20
REMARK   12  A    between atoms: C_20  and  C_21
REMARK   13  A    between atoms: C_27  and  C_28
REMARK   14  A    between atoms: C_27  and  O_29
REMARK   15  A    between atoms: C_33  and  O_34
REMARK   16  A    between atoms: O_34  and  C_35
REMARK                            x       y       z     vdW  Elec       q    Type
REMARK                         _______ _______ _______ _____ _____    ______ ____
ROOT
ATOM      1  C   UNL     1       1.779   8.622  18.742  0.00  0.00    +0.000 A 
ATOM      2  N   UNL     1       2.172   8.208  19.999  0.00  0.00    +0.000 NA
ATOM      3  C   UNL     1       1.496   8.668  20.977  0.00  0.00    +0.000 A 
ATOM      4  C   UNL     1       0.445   9.571  20.824  0.00  0.00    +0.000 A 
ATOM      5  C   UNL     1      -0.451  10.192  21.648  0.00  0.00    +0.000 A 
ATOM      6  C   UNL     1      -0.646  10.114  23.111  0.00  0.00    +0.000 C 
ATOM      7  N   UNL     1      -1.254  11.010  20.907  0.00  0.00    +0.000 NA
ATOM      8  C   UNL     1      -0.865  10.905  19.645  0.00  0.00    +0.000 A 
ATOM      9  N   UNL     1       0.173   9.985  19.549  0.00  0.00    +0.000 N 
ATOM     10  N   UNL     1       0.846   9.498  18.459  0.00  0.00    +0.000 NA
ENDROOT
BRANCH   3  11
ATOM     11  O   UNL     1       1.787   8.306  22.235  0.00  0.00    +0.000 OA
ATOM     12  H   UNL     1       2.057   7.374  22.219  0.00  0.00    +0.000 HD
ENDBRANCH   3  11
BRANCH   1  13
ATOM     13  C   UNL     1       2.535   7.882  17.646  0.00  0.00    +0.000 C 
BRANCH  13  17
ATOM     14  C   UNL     1       3.459   3.856  18.974  0.00  0.00    +0.000 A 
ATOM     15  C   UNL     1       2.144   4.243  18.663  0.00  0.00    +0.000 A 
ATOM     16  C   UNL     1       1.855   5.529  18.206  0.00  0.00    +0.000 A 
ATOM     17  C   UNL     1       2.871   6.473  18.076  0.00  0.00    +0.000 A 
ATOM     18  C   UNL     1       4.180   6.101  18.427  0.00  0.00    +0.000 A 
ATOM     19  C   UNL     1       4.489   4.804  18.880  0.00  0.00    +0.000 A 
BRANCH  14  21
ATOM     20  C   UNL     1       3.571   1.545  18.435  0.00  0.00    +0.000 C 
ATOM     21  O   UNL     1       3.748   2.584  19.395  0.00  0.00    +0.000 OA
ENDBRANCH  14  21
BRANCH  19  22
ATOM     22  O   UNL     1       5.825   4.660  19.151  0.00  0.00    +0.000 OA
ATOM     23  C   UNL     1       6.763   4.702  18.087  0.00  0.00    +0.000 C 
ENDBRANCH  19  22
ENDBRANCH  13  17
ENDBRANCH   1  13
BRANCH   8  24
ATOM     24  C   UNL     1      -1.431  11.776  18.532  0.00  0.00    +0.000 C 
BRANCH  24  25
ATOM     25  C   UNL     1      -1.863  10.896  17.305  0.00  0.00    +0.000 C 
ATOM     26  C   UNL     1      -2.948   9.838  17.554  0.00  0.00    +0.000 C 
BRANCH  25  27
ATOM     27  O   UNL     1      -2.266  11.730  16.213  0.00  0.00    +0.000 OA
ATOM     28  H   UNL     1      -1.872  11.327  15.414  0.00  0.00    +0.000 HD
ENDBRANCH  25  27
ENDBRANCH  24  25
BRANCH  24  29
ATOM     29  C   UNL     1      -0.440  12.884  18.106  0.00  0.00    +0.000 C 
BRANCH  29  30
ATOM     30  C   UNL     1      -0.405  14.128  19.020  0.00  0.00    +0.000 C 
BRANCH  30  31
ATOM     31  C   UNL     1       0.814  14.176  19.946  0.00  0.00    +0.000 C 
BRANCH  31  32
ATOM     32  C   UNL     1       2.018  14.788  19.268  0.00  0.00    +0.000 A 
ATOM     33  C   UNL     1       3.296  14.239  19.453  0.00  0.00    +0.000 A 
ATOM     34  C   UNL     1       4.409  14.810  18.829  0.00  0.00    +0.000 A 
ATOM     35  C   UNL     1       4.256  15.933  18.017  0.00  0.00    +0.000 A 
ATOM     36  C   UNL     1       2.991  16.488  17.833  0.00  0.00    +0.000 A 
ATOM     37  C   UNL     1       1.877  15.922  18.457  0.00  0.00    +0.000 A 
ENDBRANCH  31  32
ENDBRANCH  30  31
ENDBRANCH  29  30
ENDBRANCH  24  29
ENDBRANCH   8  24
TORSDOF 12
ENDMDL
MODEL 5
REMARK VINA RESULT:      -8.0      0.938      1.762
REMARK  Name = 
REMARK  16 active torsions:
REMARK  status: ('A' for Active; 'I' for Inactive)
REMARK    1  A    between atoms: C_1  and  O_2
REMARK    2  A    between atoms: O_2  and  C_3
REMARK    3  A    between atoms: C_6  and  C_7
REMARK    4  A    between atoms: C_7  and  C_8
REMARK    5  A    between atoms: C_10  and  O_11
REMARK    6  A    between atoms: C_13  and  C_14
REMARK    7  A    between atoms: C_16  and  C_17
REMARK    8  A    between atoms: C_17  and  C_18
REMARK    9  A    between atoms: C_17  and  C_27
REMARK   10  A    between atoms: C_18  and  C_19
REMARK   11  A    between atoms: C_19  and  C_20
REMARK   12  A    between atoms: C_20  and  C_21
REMARK   13  A    between atoms: C_27  and  C_28
REMARK   14  A    between atoms: C_27  and  O_29
REMARK   15  A    between atoms: C_33  and  O_34
REMARK   16  A    between atoms: O_34  and  C_35
REMARK                            x       y       z     vdW  Elec       q    Type
REMARK                         _______ _______ _______ _____ _____    ______ ____
ROOT
ATOM      1  C   UNL     1       3.166   6.840  17.995  0.00  0.00    +0.000 A 
ATOM      2  N   UNL     1       2.082   6.168  18.521  0.00  0.00    +0.000 NA
ATOM      3  C   UNL     1       2.331   5.044  19.068  0.00  0.00    +0.000 A 
ATOM      4  C   UNL     1       3.604   4.478  19.110  0.00  0.00    +0.000 A 
ATOM      5  C   UNL     1       4.167   3.348  19.633  0.00  0.00    +0.000 A 
ATOM      6  C   UNL     1       3.579   2.237  20.410  0.00  0.00    +0.000 C 
ATOM      7  N   UNL     1       5.497   3.320  19.326  0.00  0.00    +0.000 NA
ATOM      8  C   UNL     1       5.760   4.411  18.622  0.00  0.00    +0.000 A 
ATOM      9  N   UNL     1       4.607   5.179  18.497  0.00  0.00    +0.000 N 
ATOM     10  N   UNL     1       4.401   6.407  17.924  0.00  0.00    +0.000 NA
ENDROOT
BRANCH   3  11
ATOM     11  O   UNL     1       1.347   4.326  19.628  0.00  0.00    +0.000 OA
ATOM     12  H   UNL     1       1.562   4.212  20.568  0.00  0.00    +0.000 HD
ENDBRANCH   3  11
BRANCH   1  13
ATOM     13  C   UNL     1       2.786   8.239  17.527  0.00  0.00    +0.000 C 
BRANCH  13  17
ATOM     14  C   UNL     1      -0.116  10.094  20.167  0.00  0.00    +0.000 A 
ATOM     15  C   UNL     1       0.011  10.486  18.823  0.00  0.00    +0.000 A 
ATOM     16  C   UNL     1       0.923   9.866  17.969  0.00  0.00    +0.000 A 
ATOM     17  C   UNL     1       1.755   8.856  18.445  0.00  0.00    +0.000 A 
ATOM     18  C   UNL     1       1.660   8.491  19.798  0.00  0.00    +0.000 A 
ATOM     19  C   UNL     1       0.737   9.101  20.670  0.00  0.00    +0.000 A 
BRANCH  14  21
ATOM     20  C   UNL     1      -0.923  12.095  21.161  0.00  0.00    +0.000 C 
ATOM     21  O   UNL     1      -1.032  10.683  20.999  0.00  0.00    +0.000 OA
ENDBRANCH  14  21
BRANCH  19  22
ATOM     22  O   UNL     1       0.809   8.582  21.937  0.00  0.00    +0.000 OA
ATOM     23  C   UNL     1       0.922   9.459  23.047  0.00  0.00    +0.000 C 
ENDBRANCH  19  22
ENDBRANCH  13  17
ENDBRANCH   1  13
BRANCH   8  24
ATOM     24  C   UNL     1       7.113   4.669  17.974  0.00  0.00    +0.000 C 
BRANCH  24  25
ATOM     25  C   UNL     1       7.973   5.646  18.855  0.00  0.00    +0.000 C 
ATOM     26  C   UNL     1       7.981   7.126  18.446  0.00  0.00    +0.000 C 
BRANCH  25  27
ATOM     27  O   UNL     1       7.589   5.544  20.230  0.00  0.00    +0.000 OA
ATOM     28  H   UNL     1       8.336   5.914  20.741  0.00  0.00    +0.000 HD
ENDBRANCH  25  27
ENDBRANCH  24  25
BRANCH  24  29
ATOM     29  C   UNL     1       6.971   5.197  16.528  0.00  0.00    +0.000 C 
BRANCH  29  30
ATOM     30  C   UNL     1       6.191   4.279  15.562  0.00  0.00    +0.000 C 
BRANCH  30  31
ATOM     31  C   UNL     1       5.900   4.923  14.202  0.00  0.00    +0.000 C 
BRANCH  31  32
ATOM     32  C   UNL     1       5.958   3.917  13.076  0.00  0.00    +0.000 A 
ATOM     33  C   UNL     1       7.193   3.475  12.578  0.00  0.00    +0.000 A 
ATOM     34  C   UNL     1       7.244   2.549  11.532  0.00  0.00    +0.000 A 
ATOM     35  C   UNL     1       6.065   2.059  10.973  0.00  0.00    +0.000 A 
ATOM     36  C   UNL     1       4.834   2.497  11.457  0.00  0.00    +0.000 A 
ATOM     37  C   UNL     1       4.779   3.424  12.500  0.00  0.00    +0.000 A 
ENDBRANCH  31  32
ENDBRANCH  30  31
ENDBRANCH  29  30
ENDBRANCH  24  29
ENDBRANCH   8  24
TORSDOF 12
ENDMDL
MODEL 6
REMARK VINA RESULT:      -8.0      1.220      1.489
REMARK  Name = 
REMARK  16 active torsions:
REMARK  status: ('A' for Active; 'I' for Inactive)
REMARK    1  A    between atoms: C_1  and  O_2
REMARK    2  A    between atoms: O_2  and  C_3
REMARK    3  A    between atoms: C_6  and  C_7
REMARK    4  A    between atoms: C_7  and  C_8
REMARK    5  A    between atoms: C_10  and  O_11
REMARK    6  A    between atoms: C_13  and  C_14
REMARK    7  A    between atoms: C_16  and  C_17
REMARK    8  A    between atoms: C_17  and  C_18
REMARK    9  A    between atoms: C_17  and  C_27
REMARK   10  A    between atoms: C_18  and  C_19
REMARK   11  A    between atoms: C_19  and  C_20
REMARK   12  A    between atoms: C_20  and  C_21
REMARK   13  A    between atoms: C_27  and  C_28
REMARK   14  A    between atoms: C_27  and  O_29
REMARK   15  A    between atoms: C_33  and  O_34
REMARK   16  A    between atoms: O_34  and  C_35
REMARK                            x       y       z     vdW  Elec       q    Type
REMARK                         _______ _______ _______ _____ _____    ______ ____
ROOT
ATOM      1  C   UNL     1       2.885   7.004  18.075  0.00  0.00    +0.000 A 
ATOM      2  N   UNL     1       1.852   6.201  18.516  0.00  0.00    +0.000 NA
ATOM      3  C   UNL     1       2.191   5.102  19.064  0.00  0.00    +0.000 A 
ATOM      4  C   UNL     1       3.515   4.686  19.189  0.00  0.00    +0.000 A 
ATOM      5  C   UNL     1       4.167   3.617  19.737  0.00  0.00    +0.000 A 
ATOM      6  C   UNL     1       3.660   2.430  20.458  0.00  0.00    +0.000 C 
ATOM      7  N   UNL     1       5.509   3.748  19.524  0.00  0.00    +0.000 NA
ATOM      8  C   UNL     1       5.692   4.876  18.855  0.00  0.00    +0.000 A 
ATOM      9  N   UNL     1       4.470   5.509  18.658  0.00  0.00    +0.000 N 
ATOM     10  N   UNL     1       4.163   6.716  18.087  0.00  0.00    +0.000 NA
ENDROOT
BRANCH   3  11
ATOM     11  O   UNL     1       1.260   4.265  19.544  0.00  0.00    +0.000 OA
ATOM     12  H   UNL     1       0.989   3.678  18.820  0.00  0.00    +0.000 HD
ENDBRANCH   3  11
BRANCH   1  13
ATOM     13  C   UNL     1       2.378   8.359  17.599  0.00  0.00    +0.000 C 
BRANCH  13  17
ATOM     14  C   UNL     1      -0.253  10.095  20.582  0.00  0.00    +0.000 A 
ATOM     15  C   UNL     1       0.802   9.238  20.942  0.00  0.00    +0.000 A 
ATOM     16  C   UNL     1       1.665   8.707  19.983  0.00  0.00    +0.000 A 
ATOM     17  C   UNL     1       1.478   8.996  18.634  0.00  0.00    +0.000 A 
ATOM     18  C   UNL     1       0.399   9.818  18.267  0.00  0.00    +0.000 A 
ATOM     19  C   UNL     1      -0.475  10.369  19.225  0.00  0.00    +0.000 A 
BRANCH  14  21
ATOM     20  C   UNL     1      -0.533  11.686  22.324  0.00  0.00    +0.000 C 
ATOM     21  O   UNL     1      -1.083  10.640  21.526  0.00  0.00    +0.000 OA
ENDBRANCH  14  21
BRANCH  19  22
ATOM     22  O   UNL     1      -1.444  11.147  18.646  0.00  0.00    +0.000 OA
ATOM     23  C   UNL     1      -1.220  12.539  18.486  0.00  0.00    +0.000 C 
ENDBRANCH  19  22
ENDBRANCH  13  17
ENDBRANCH   1  13
BRANCH   8  24
ATOM     24  C   UNL     1       7.048   5.300  18.308  0.00  0.00    +0.000 C 
BRANCH  24  25
ATOM     25  C   UNL     1       7.098   6.855  18.092  0.00  0.00    +0.000 C 
ATOM     26  C   UNL     1       8.358   7.585  18.578  0.00  0.00    +0.000 C 
BRANCH  25  27
ATOM     27  O   UNL     1       6.876   7.174  16.714  0.00  0.00    +0.000 OA
ATOM     28  H   UNL     1       6.242   6.505  16.388  0.00  0.00    +0.000 HD
ENDBRANCH  25  27
ENDBRANCH  24  25
BRANCH  24  29
ATOM     29  C   UNL     1       7.410   4.543  17.008  0.00  0.00    +0.000 C 
BRANCH  29  30
ATOM     30  C   UNL     1       6.257   3.739  16.369  0.00  0.00    +0.000 C 
BRANCH  30  31
ATOM     31  C   UNL     1       5.472   4.525  15.312  0.00  0.00    +0.000 C 
BRANCH  31  32
ATOM     32  C   UNL     1       6.002   4.283  13.918  0.00  0.00    +0.000 A 
ATOM     33  C   UNL     1       5.362   3.376  13.059  0.00  0.00    +0.000 A 
ATOM     34  C   UNL     1       5.857   3.150  11.771  0.00  0.00    +0.000 A 
ATOM     35  C   UNL     1       6.994   3.825  11.331  0.00  0.00    +0.000 A 
ATOM     36  C   UNL     1       7.639   4.723  12.179  0.00  0.00    +0.000 A 
ATOM     37  C   UNL     1       7.149   4.949  13.467  0.00  0.00    +0.000 A 
ENDBRANCH  31  32
ENDBRANCH  30  31
ENDBRANCH  29  30
ENDBRANCH  24  29
ENDBRANCH   8  24
TORSDOF 12
ENDMDL
MODEL 7
REMARK VINA RESULT:      -7.9      1.017      1.436
REMARK  Name = 
REMARK  16 active torsions:
REMARK  status: ('A' for Active; 'I' for Inactive)
REMARK    1  A    between atoms: C_1  and  O_2
REMARK    2  A    between atoms: O_2  and  C_3
REMARK    3  A    between atoms: C_6  and  C_7
REMARK    4  A    between atoms: C_7  and  C_8
REMARK    5  A    between atoms: C_10  and  O_11
REMARK    6  A    between atoms: C_13  and  C_14
REMARK    7  A    between atoms: C_16  and  C_17
REMARK    8  A    between atoms: C_17  and  C_18
REMARK    9  A    between atoms: C_17  and  C_27
REMARK   10  A    between atoms: C_18  and  C_19
REMARK   11  A    between atoms: C_19  and  C_20
REMARK   12  A    between atoms: C_20  and  C_21
REMARK   13  A    between atoms: C_27  and  C_28
REMARK   14  A    between atoms: C_27  and  O_29
REMARK   15  A    between atoms: C_33  and  O_34
REMARK   16  A    between atoms: O_34  and  C_35
REMARK                            x       y       z     vdW  Elec       q    Type
REMARK                         _______ _______ _______ _____ _____    ______ ____
ROOT
ATOM      1  C   UNL     1       2.603   6.857  18.287  0.00  0.00    +0.000 A 
ATOM      2  N   UNL     1       1.679   5.932  18.730  0.00  0.00    +0.000 NA
ATOM      3  C   UNL     1       2.153   4.843  19.192  0.00  0.00    +0.000 A 
ATOM      4  C   UNL     1       3.516   4.553  19.222  0.00  0.00    +0.000 A 
ATOM      5  C   UNL     1       4.298   3.524  19.667  0.00  0.00    +0.000 A 
ATOM      6  C   UNL     1       3.948   2.255  20.339  0.00  0.00    +0.000 C 
ATOM      7  N   UNL     1       5.606   3.799  19.394  0.00  0.00    +0.000 NA
ATOM      8  C   UNL     1       5.642   4.976  18.787  0.00  0.00    +0.000 A 
ATOM      9  N   UNL     1       4.355   5.495  18.694  0.00  0.00    +0.000 N 
ATOM     10  N   UNL     1       3.902   6.696  18.214  0.00  0.00    +0.000 NA
ENDROOT
BRANCH   3  11
ATOM     11  O   UNL     1       1.336   3.892  19.667  0.00  0.00    +0.000 OA
ATOM     12  H   UNL     1       1.883   3.232  20.122  0.00  0.00    +0.000 HD
ENDBRANCH   3  11
BRANCH   1  13
ATOM     13  C   UNL     1       1.943   8.180  17.923  0.00  0.00    +0.000 C 
BRANCH  13  17
ATOM     14  C   UNL     1       0.646  10.294  21.485  0.00  0.00    +0.000 A 
ATOM     15  C   UNL     1       1.103   8.965  21.544  0.00  0.00    +0.000 A 
ATOM     16  C   UNL     1       1.549   8.300  20.402  0.00  0.00    +0.000 A 
ATOM     17  C   UNL     1       1.522   8.935  19.163  0.00  0.00    +0.000 A 
ATOM     18  C   UNL     1       1.026  10.248  19.094  0.00  0.00    +0.000 A 
ATOM     19  C   UNL     1       0.582  10.937  20.240  0.00  0.00    +0.000 A 
BRANCH  14  21
ATOM     20  C   UNL     1      -1.131  10.791  22.980  0.00  0.00    +0.000 C 
ATOM     21  O   UNL     1       0.236  10.958  22.611  0.00  0.00    +0.000 OA
ENDBRANCH  14  21
BRANCH  19  22
ATOM     22  O   UNL     1       0.155  12.205  19.942  0.00  0.00    +0.000 OA
ATOM     23  C   UNL     1       1.093  13.174  19.501  0.00  0.00    +0.000 C 
ENDBRANCH  19  22
ENDBRANCH  13  17
ENDBRANCH   1  13
BRANCH   8  24
ATOM     24  C   UNL     1       6.917   5.562  18.197  0.00  0.00    +0.000 C 
BRANCH  24  25
ATOM     25  C   UNL     1       6.696   7.058  17.774  0.00  0.00    +0.000 C 
ATOM     26  C   UNL     1       7.912   7.992  17.856  0.00  0.00    +0.000 C 
BRANCH  25  27
ATOM     27  O   UNL     1       6.144   7.125  16.454  0.00  0.00    +0.000 OA
ATOM     28  H   UNL     1       5.292   7.596  16.548  0.00  0.00    +0.000 HD
ENDBRANCH  25  27
ENDBRANCH  24  25
BRANCH  24  29
ATOM     29  C   UNL     1       7.448   4.718  17.015  0.00  0.00    +0.000 C 
BRANCH  29  30
ATOM     30  C   UNL     1       6.438   3.722  16.407  0.00  0.00    +0.000 C 
BRANCH  30  31
ATOM     31  C   UNL     1       5.524   4.344  15.345  0.00  0.00    +0.000 C 
BRANCH  31  32
ATOM     32  C   UNL     1       6.130   4.271  13.963  0.00  0.00    +0.000 A 
ATOM     33  C   UNL     1       7.212   5.094  13.614  0.00  0.00    +0.000 A 
ATOM     34  C   UNL     1       7.767   5.029  12.334  0.00  0.00    +0.000 A 
ATOM     35  C   UNL     1       7.247   4.145  11.390  0.00  0.00    +0.000 A 
ATOM     36  C   UNL     1       6.169   3.329  11.725  0.00  0.00    +0.000 A 
ATOM     37  C   UNL     1       5.610   3.393  13.003  0.00  0.00    +0.000 A 
ENDBRANCH  31  32
ENDBRANCH  30  31
ENDBRANCH  29  30
ENDBRANCH  24  29
ENDBRANCH   8  24
TORSDOF 12
ENDMDL
MODEL 8
REMARK VINA RESULT:      -7.9      3.710      9.969
REMARK  Name = 
REMARK  16 active torsions:
REMARK  status: ('A' for Active; 'I' for Inactive)
REMARK    1  A    between atoms: C_1  and  O_2
REMARK    2  A    between atoms: O_2  and  C_3
REMARK    3  A    between atoms: C_6  and  C_7
REMARK    4  A    between atoms: C_7  and  C_8
REMARK    5  A    between atoms: C_10  and  O_11
REMARK    6  A    between atoms: C_13  and  C_14
REMARK    7  A    between atoms: C_16  and  C_17
REMARK    8  A    between atoms: C_17  and  C_18
REMARK    9  A    between atoms: C_17  and  C_27
REMARK   10  A    between atoms: C_18  and  C_19
REMARK   11  A    between atoms: C_19  and  C_20
REMARK   12  A    between atoms: C_20  and  C_21
REMARK   13  A    between atoms: C_27  and  C_28
REMARK   14  A    between atoms: C_27  and  O_29
REMARK   15  A    between atoms: C_33  and  O_34
REMARK   16  A    between atoms: O_34  and  C_35
REMARK                            x       y       z     vdW  Elec       q    Type
REMARK                         _______ _______ _______ _____ _____    ______ ____
ROOT
ATOM      1  C   UNL     1       2.013   8.495  18.596  0.00  0.00    +0.000 A 
ATOM      2  N   UNL     1       2.186   7.834  19.796  0.00  0.00    +0.000 NA
ATOM      3  C   UNL     1       1.496   8.265  20.777  0.00  0.00    +0.000 A 
ATOM      4  C   UNL     1       0.643   9.363  20.690  0.00  0.00    +0.000 A 
ATOM      5  C   UNL     1      -0.218  10.016  21.527  0.00  0.00    +0.000 A 
ATOM      6  C   UNL     1      -0.585   9.762  22.936  0.00  0.00    +0.000 C 
ATOM      7  N   UNL     1      -0.778  11.071  20.868  0.00  0.00    +0.000 NA
ATOM      8  C   UNL     1      -0.276  11.080  19.643  0.00  0.00    +0.000 A 
ATOM      9  N   UNL     1       0.590  10.004  19.482  0.00  0.00    +0.000 N 
ATOM     10  N   UNL     1       1.285   9.564  18.386  0.00  0.00    +0.000 NA
ENDROOT
BRANCH   3  11
ATOM     11  O   UNL     1       1.578   7.674  21.978  0.00  0.00    +0.000 OA
ATOM     12  H   UNL     1       0.675   7.461  22.264  0.00  0.00    +0.000 HD
ENDBRANCH   3  11
BRANCH   1  13
ATOM     13  C   UNL     1       2.745   7.794  17.459  0.00  0.00    +0.000 C 
BRANCH  13  17
ATOM     14  C   UNL     1       3.751   3.684  18.426  0.00  0.00    +0.000 A 
ATOM     15  C   UNL     1       4.723   4.700  18.431  0.00  0.00    +0.000 A 
ATOM     16  C   UNL     1       4.391   6.025  18.151  0.00  0.00    +0.000 A 
ATOM     17  C   UNL     1       3.080   6.367  17.828  0.00  0.00    +0.000 A 
ATOM     18  C   UNL     1       2.114   5.347  17.781  0.00  0.00    +0.000 A 
ATOM     19  C   UNL     1       2.433   4.006  18.071  0.00  0.00    +0.000 A 
BRANCH  14  21
ATOM     20  C   UNL     1       4.409   2.122  20.090  0.00  0.00    +0.000 C 
ATOM     21  O   UNL     1       4.072   2.388  18.730  0.00  0.00    +0.000 OA
ENDBRANCH  14  21
BRANCH  19  22
ATOM     22  O   UNL     1       1.338   3.187  17.976  0.00  0.00    +0.000 OA
ATOM     23  C   UNL     1       0.729   2.693  19.159  0.00  0.00    +0.000 C 
ENDBRANCH  19  22
ENDBRANCH  13  17
ENDBRANCH   1  13
BRANCH   8  24
ATOM     24  C   UNL     1      -0.554  12.196  18.645  0.00  0.00    +0.000 C 
BRANCH  24  25
ATOM     25  C   UNL     1      -0.163  13.592  19.252  0.00  0.00    +0.000 C 
ATOM     26  C   UNL     1       1.325  13.832  19.544  0.00  0.00    +0.000 C 
BRANCH  25  27
ATOM     27  O   UNL     1      -0.652  14.650  18.421  0.00  0.00    +0.000 OA
ATOM     28  H   UNL     1      -1.627  14.592  18.466  0.00  0.00    +0.000 HD
ENDBRANCH  25  27
ENDBRANCH  24  25
BRANCH  24  29
ATOM     29  C   UNL     1      -2.023  12.187  18.161  0.00  0.00    +0.000 C 
BRANCH  29  30
ATOM     30  C   UNL     1      -2.425  10.976  17.293  0.00  0.00    +0.000 C 
BRANCH  30  31
ATOM     31  C   UNL     1      -3.723  10.298  17.747  0.00  0.00    +0.000 C 
BRANCH  31  32
ATOM     32  C   UNL     1      -4.842  11.293  17.946  0.00  0.00    +0.000 A 
ATOM     33  C   UNL     1      -5.317  12.057  16.868  0.00  0.00    +0.000 A 
ATOM     34  C   UNL     1      -6.349  12.980  17.055  0.00  0.00    +0.000 A 
ATOM     35  C   UNL     1      -6.914  13.152  18.317  0.00  0.00    +0.000 A 
ATOM     36  C   UNL     1      -6.445  12.402  19.394  0.00  0.00    +0.000 A 
ATOM     37  C   UNL     1      -5.412  11.480  19.212  0.00  0.00    +0.000 A 
ENDBRANCH  31  32
ENDBRANCH  30  31
ENDBRANCH  29  30
ENDBRANCH  24  29
ENDBRANCH   8  24
TORSDOF 12
ENDMDL
MODEL 9
REMARK VINA RESULT:      -7.9      3.831     10.377
REMARK  Name = 
REMARK  16 active torsions:
REMARK  status: ('A' for Active; 'I' for Inactive)
REMARK    1  A    between atoms: C_1  and  O_2
REMARK    2  A    between atoms: O_2  and  C_3
REMARK    3  A    between atoms: C_6  and  C_7
REMARK    4  A    between atoms: C_7  and  C_8
REMARK    5  A    between atoms: C_10  and  O_11
REMARK    6  A    between atoms: C_13  and  C_14
REMARK    7  A    between atoms: C_16  and  C_17
REMARK    8  A    between atoms: C_17  and  C_18
REMARK    9  A    between atoms: C_17  and  C_27
REMARK   10  A    between atoms: C_18  and  C_19
REMARK   11  A    between atoms: C_19  and  C_20
REMARK   12  A    between atoms: C_20  and  C_21
REMARK   13  A    between atoms: C_27  and  C_28
REMARK   14  A    between atoms: C_27  and  O_29
REMARK   15  A    between atoms: C_33  and  O_34
REMARK   16  A    between atoms: O_34  and  C_35
REMARK                            x       y       z     vdW  Elec       q    Type
REMARK                         _______ _______ _______ _____ _____    ______ ____
ROOT
ATOM      1  C   UNL     1       1.819   8.505  18.692  0.00  0.00    +0.000 A 
ATOM      2  N   UNL     1       2.194   8.130  19.966  0.00  0.00    +0.000 NA
ATOM      3  C   UNL     1       1.517   8.635  20.921  0.00  0.00    +0.000 A 
ATOM      4  C   UNL     1       0.482   9.548  20.726  0.00  0.00    +0.000 A 
ATOM      5  C   UNL     1      -0.412  10.212  21.519  0.00  0.00    +0.000 A 
ATOM      6  C   UNL     1      -0.621  10.190  22.982  0.00  0.00    +0.000 C 
ATOM      7  N   UNL     1      -1.195  11.016  20.742  0.00  0.00    +0.000 NA
ATOM      8  C   UNL     1      -0.797  10.860  19.489  0.00  0.00    +0.000 A 
ATOM      9  N   UNL     1       0.227   9.921  19.435  0.00  0.00    +0.000 N 
ATOM     10  N   UNL     1       0.903   9.385  18.369  0.00  0.00    +0.000 NA
ENDROOT
BRANCH   3  11
ATOM     11  O   UNL     1       1.790   8.314  22.193  0.00  0.00    +0.000 OA
ATOM     12  H   UNL     1       1.111   8.723  22.754  0.00  0.00    +0.000 HD
ENDBRANCH   3  11
BRANCH   1  13
ATOM     13  C   UNL     1       2.572   7.715  17.630  0.00  0.00    +0.000 C 
BRANCH  13  17
ATOM     14  C   UNL     1       3.716   3.766  19.020  0.00  0.00    +0.000 A 
ATOM     15  C   UNL     1       4.653   4.643  18.445  0.00  0.00    +0.000 A 
ATOM     16  C   UNL     1       4.288   5.923  18.028  0.00  0.00    +0.000 A 
ATOM     17  C   UNL     1       2.968   6.352  18.148  0.00  0.00    +0.000 A 
ATOM     18  C   UNL     1       2.022   5.462  18.684  0.00  0.00    +0.000 A 
ATOM     19  C   UNL     1       2.377   4.170  19.118  0.00  0.00    +0.000 A 
BRANCH  14  21
ATOM     20  C   UNL     1       3.898   1.448  18.534  0.00  0.00    +0.000 C 
ATOM     21  O   UNL     1       4.080   2.520  19.457  0.00  0.00    +0.000 OA
ENDBRANCH  14  21
BRANCH  19  22
ATOM     22  O   UNL     1       1.300   3.483  19.616  0.00  0.00    +0.000 OA
ATOM     23  C   UNL     1       0.589   2.591  18.772  0.00  0.00    +0.000 C 
ENDBRANCH  19  22
ENDBRANCH  13  17
ENDBRANCH   1  13
BRANCH   8  24
ATOM     24  C   UNL     1      -1.338  11.700  18.340  0.00  0.00    +0.000 C 
BRANCH  24  25
ATOM     25  C   UNL     1      -0.514  13.028  18.188  0.00  0.00    +0.000 C 
ATOM     26  C   UNL     1      -0.574  14.023  19.356  0.00  0.00    +0.000 C 
BRANCH  25  27
ATOM     27  O   UNL     1       0.856  12.733  17.897  0.00  0.00    +0.000 OA
ATOM     28  H   UNL     1       1.342  12.883  18.732  0.00  0.00    +0.000 HD
ENDBRANCH  25  27
ENDBRANCH  24  25
BRANCH  24  29
ATOM     29  C   UNL     1      -2.848  11.993  18.500  0.00  0.00    +0.000 C 
BRANCH  29  30
ATOM     30  C   UNL     1      -3.778  11.211  17.547  0.00  0.00    +0.000 C 
BRANCH  30  31
ATOM     31  C   UNL     1      -5.170  11.834  17.398  0.00  0.00    +0.000 C 
BRANCH  31  32
ATOM     32  C   UNL     1      -6.032  11.595  18.616  0.00  0.00    +0.000 A 
ATOM     33  C   UNL     1      -6.524  10.312  18.901  0.00  0.00    +0.000 A 
ATOM     34  C   UNL     1      -7.325  10.094  20.026  0.00  0.00    +0.000 A 
ATOM     35  C   UNL     1      -7.643  11.154  20.874  0.00  0.00    +0.000 A 
ATOM     36  C   UNL     1      -7.163  12.432  20.595  0.00  0.00    +0.000 A 
ATOM     37  C   UNL     1      -6.365  12.654  19.471  0.00  0.00    +0.000 A 
ENDBRANCH  31  32
ENDBRANCH  30  31
ENDBRANCH  29  30
ENDBRANCH  24  29
ENDBRANCH   8  24
TORSDOF 12
ENDMDL
