MODEL 1
REMARK VINA RESULT:      -7.5      0.000      0.000
REMARK  Name = 
REMARK  5 active torsions:
REMARK  status: ('A' for Active; 'I' for Inactive)
REMARK    1  A    between atoms: C_3  and  C_4
REMARK    2  A    between atoms: C_7  and  O_8
REMARK    3  A    between atoms: C_10  and  O_11
REMARK    4  A    between atoms: C_16  and  O_17
REMARK    5  A    between atoms: C_19  and  O_20
REMARK                            x       y       z     vdW  Elec       q    Type
REMARK                         _______ _______ _______ _____ _____    ______ ____
ROOT
ATOM      1  O   UNL     1       3.957   5.873  18.033  0.00  0.00    +0.000 OA
ATOM      2  C   UNL     1       3.851   4.673  18.241  0.00  0.00    +0.000 A 
ATOM      3  C   UNL     1       4.493   3.681  17.331  0.00  0.00    +0.000 A 
ATOM      4  C   UNL     1       4.188   2.389  17.496  0.00  0.00    +0.000 A 
ATOM      5  O   UNL     1       3.341   1.870  18.443  0.00  0.00    +0.000 OA
ATOM      6  C   UNL     1       2.838   2.730  19.390  0.00  0.00    +0.000 A 
ATOM      7  C   UNL     1       2.077   2.143  20.406  0.00  0.00    +0.000 A 
ATOM      8  C   UNL     1       1.537   2.949  21.400  0.00  0.00    +0.000 A 
ATOM      9  C   UNL     1       1.742   4.325  21.395  0.00  0.00    +0.000 A 
ATOM     10  C   UNL     1       2.503   4.906  20.378  0.00  0.00    +0.000 A 
ATOM     11  C   UNL     1       3.055   4.112  19.363  0.00  0.00    +0.000 A 
ENDROOT
BRANCH   3  12
ATOM     12  C   UNL     1       5.448   4.115  16.299  0.00  0.00    +0.000 A 
ATOM     13  C   UNL     1       5.036   4.245  14.964  0.00  0.00    +0.000 A 
ATOM     14  C   UNL     1       5.922   4.722  13.991  0.00  0.00    +0.000 A 
ATOM     15  C   UNL     1       7.218   5.076  14.360  0.00  0.00    +0.000 A 
ATOM     16  C   UNL     1       7.650   4.942  15.675  0.00  0.00    +0.000 A 
ATOM     17  C   UNL     1       6.767   4.448  16.635  0.00  0.00    +0.000 A 
BRANCH  15  18
ATOM     18  O   UNL     1       8.109   5.559  13.448  0.00  0.00    +0.000 OA
ATOM     19  H   UNL     1       8.465   6.401  13.775  0.00  0.00    +0.000 HD
ENDBRANCH  15  18
BRANCH  17  20
ATOM     20  O   UNL     1       7.195   4.275  17.925  0.00  0.00    +0.000 OA
ATOM     21  H   UNL     1       7.618   3.404  17.992  0.00  0.00    +0.000 HD
ENDBRANCH  17  20
ENDBRANCH   3  12
BRANCH   8  22
ATOM     22  O   UNL     1       0.791   2.427  22.415  0.00  0.00    +0.000 OA
ATOM     23  H   UNL     1       0.053   3.027  22.609  0.00  0.00    +0.000 HD
ENDBRANCH   8  22
BRANCH  10  24
ATOM     24  O   UNL     1       2.702   6.256  20.405  0.00  0.00    +0.000 OA
ATOM     25  H   UNL     1       2.642   6.625  19.511  0.00  0.00    +0.000 HD
ENDBRANCH  10  24
TORSDOF 5
ENDMDL
MODEL 2
REMARK VINA RESULT:      -6.9      3.836      5.443
REMARK  Name = 
REMARK  5 active torsions:
REMARK  status: ('A' for Active; 'I' for Inactive)
REMARK    1  A    between atoms: C_3  and  C_4
REMARK    2  A    between atoms: C_7  and  O_8
REMARK    3  A    between atoms: C_10  and  O_11
REMARK    4  A    between atoms: C_16  and  O_17
REMARK    5  A    between atoms: C_19  and  O_20
REMARK                            x       y       z     vdW  Elec       q    Type
REMARK                         _______ _______ _______ _____ _____    ______ ____
ROOT
ATOM      1  O   UNL     1       2.396   8.447  17.203  0.00  0.00    +0.000 OA
ATOM      2  C   UNL     1       2.192   8.166  18.376  0.00  0.00    +0.000 A 
ATOM      3  C   UNL     1       2.591   6.838  18.923  0.00  0.00    +0.000 A 
ATOM      4  C   UNL     1       2.176   6.516  20.153  0.00  0.00    +0.000 A 
ATOM      5  O   UNL     1       1.419   7.302  20.985  0.00  0.00    +0.000 OA
ATOM      6  C   UNL     1       1.148   8.586  20.579  0.00  0.00    +0.000 A 
ATOM      7  C   UNL     1       0.478   9.393  21.504  0.00  0.00    +0.000 A 
ATOM      8  C   UNL     1       0.172  10.705  21.165  0.00  0.00    +0.000 A 
ATOM      9  C   UNL     1       0.520  11.221  19.921  0.00  0.00    +0.000 A 
ATOM     10  C   UNL     1       1.189  10.412  19.000  0.00  0.00    +0.000 A 
ATOM     11  C   UNL     1       1.506   9.084  19.320  0.00  0.00    +0.000 A 
ENDROOT
BRANCH   3  12
ATOM     12  C   UNL     1       3.433   5.922  18.137  0.00  0.00    +0.000 A 
ATOM     13  C   UNL     1       4.791   6.210  17.931  0.00  0.00    +0.000 A 
ATOM     14  C   UNL     1       5.611   5.309  17.243  0.00  0.00    +0.000 A 
ATOM     15  C   UNL     1       5.071   4.115  16.769  0.00  0.00    +0.000 A 
ATOM     16  C   UNL     1       3.725   3.817  16.952  0.00  0.00    +0.000 A 
ATOM     17  C   UNL     1       2.910   4.728  17.622  0.00  0.00    +0.000 A 
BRANCH  15  18
ATOM     18  O   UNL     1       5.837   3.203  16.106  0.00  0.00    +0.000 OA
ATOM     19  H   UNL     1       5.966   3.509  15.193  0.00  0.00    +0.000 HD
ENDBRANCH  15  18
BRANCH  17  20
ATOM     20  O   UNL     1       1.574   4.461  17.772  0.00  0.00    +0.000 OA
ATOM     21  H   UNL     1       1.224   5.041  18.468  0.00  0.00    +0.000 HD
ENDBRANCH  17  20
ENDBRANCH   3  12
BRANCH   8  22
ATOM     22  O   UNL     1      -0.476  11.533  22.032  0.00  0.00    +0.000 OA
ATOM     23  H   UNL     1       0.177  11.967  22.606  0.00  0.00    +0.000 HD
ENDBRANCH   8  22
BRANCH  10  24
ATOM     24  O   UNL     1       1.533  10.948  17.792  0.00  0.00    +0.000 OA
ATOM     25  H   UNL     1       0.868  10.728  17.123  0.00  0.00    +0.000 HD
ENDBRANCH  10  24
TORSDOF 5
ENDMDL
MODEL 3
REMARK VINA RESULT:      -6.9      3.517      5.912
REMARK  Name = 
REMARK  5 active torsions:
REMARK  status: ('A' for Active; 'I' for Inactive)
REMARK    1  A    between atoms: C_3  and  C_4
REMARK    2  A    between atoms: C_7  and  O_8
REMARK    3  A    between atoms: C_10  and  O_11
REMARK    4  A    between atoms: C_16  and  O_17
REMARK    5  A    between atoms: C_19  and  O_20
REMARK                            x       y       z     vdW  Elec       q    Type
REMARK                         _______ _______ _______ _____ _____    ______ ____
ROOT
ATOM      1  O   UNL     1       1.959   6.213  20.607  0.00  0.00    +0.000 OA
ATOM      2  C   UNL     1       2.145   6.851  19.581  0.00  0.00    +0.000 A 
ATOM      3  C   UNL     1       2.861   6.242  18.423  0.00  0.00    +0.000 A 
ATOM      4  C   UNL     1       3.200   7.041  17.405  0.00  0.00    +0.000 A 
ATOM      5  O   UNL     1       2.940   8.385  17.307  0.00  0.00    +0.000 OA
ATOM      6  C   UNL     1       2.161   8.957  18.284  0.00  0.00    +0.000 A 
ATOM      7  C   UNL     1       1.819  10.299  18.086  0.00  0.00    +0.000 A 
ATOM      8  C   UNL     1       1.032  10.945  19.031  0.00  0.00    +0.000 A 
ATOM      9  C   UNL     1       0.584  10.277  20.165  0.00  0.00    +0.000 A 
ATOM     10  C   UNL     1       0.928   8.937  20.359  0.00  0.00    +0.000 A 
ATOM     11  C   UNL     1       1.724   8.266  19.420  0.00  0.00    +0.000 A 
ENDROOT
BRANCH   3  12
ATOM     12  C   UNL     1       3.163   4.803  18.397  0.00  0.00    +0.000 A 
ATOM     13  C   UNL     1       4.358   4.320  18.953  0.00  0.00    +0.000 A 
ATOM     14  C   UNL     1       4.619   2.946  18.992  0.00  0.00    +0.000 A 
ATOM     15  C   UNL     1       3.677   2.055  18.481  0.00  0.00    +0.000 A 
ATOM     16  C   UNL     1       2.493   2.513  17.915  0.00  0.00    +0.000 A 
ATOM     17  C   UNL     1       2.248   3.885  17.862  0.00  0.00    +0.000 A 
BRANCH  15  18
ATOM     18  O   UNL     1       3.885   0.708  18.512  0.00  0.00    +0.000 OA
ATOM     19  H   UNL     1       3.874   0.412  19.437  0.00  0.00    +0.000 HD
ENDBRANCH  15  18
BRANCH  17  20
ATOM     20  O   UNL     1       1.103   4.348  17.271  0.00  0.00    +0.000 OA
ATOM     21  H   UNL     1       1.316   5.164  16.790  0.00  0.00    +0.000 HD
ENDBRANCH  17  20
ENDBRANCH   3  12
BRANCH   8  22
ATOM     22  O   UNL     1       0.667  12.250  18.883  0.00  0.00    +0.000 OA
ATOM     23  H   UNL     1       0.890  12.543  17.984  0.00  0.00    +0.000 HD
ENDBRANCH   8  22
BRANCH  10  24
ATOM     24  O   UNL     1       0.462   8.300  21.473  0.00  0.00    +0.000 OA
ATOM     25  H   UNL     1       0.576   7.341  21.387  0.00  0.00    +0.000 HD
ENDBRANCH  10  24
TORSDOF 5
ENDMDL
MODEL 4
REMARK VINA RESULT:      -6.9      3.772      5.916
REMARK  Name = 
REMARK  5 active torsions:
REMARK  status: ('A' for Active; 'I' for Inactive)
REMARK    1  A    between atoms: C_3  and  C_4
REMARK    2  A    between atoms: C_7  and  O_8
REMARK    3  A    between atoms: C_10  and  O_11
REMARK    4  A    between atoms: C_16  and  O_17
REMARK    5  A    between atoms: C_19  and  O_20
REMARK                            x       y       z     vdW  Elec       q    Type
REMARK                         _______ _______ _______ _____ _____    ______ ____
ROOT
ATOM      1  O   UNL     1       1.709   6.590  20.770  0.00  0.00    +0.000 OA
ATOM      2  C   UNL     1       1.868   7.262  19.762  0.00  0.00    +0.000 A 
ATOM      3  C   UNL     1       2.575   6.701  18.575  0.00  0.00    +0.000 A 
ATOM      4  C   UNL     1       2.886   7.536  17.577  0.00  0.00    +0.000 A 
ATOM      5  O   UNL     1       2.603   8.878  17.525  0.00  0.00    +0.000 OA
ATOM      6  C   UNL     1       1.831   9.407  18.531  0.00  0.00    +0.000 A 
ATOM      7  C   UNL     1       1.464  10.749  18.380  0.00  0.00    +0.000 A 
ATOM      8  C   UNL     1       0.681  11.353  19.356  0.00  0.00    +0.000 A 
ATOM      9  C   UNL     1       0.262  10.642  20.475  0.00  0.00    +0.000 A 
ATOM     10  C   UNL     1       0.630   9.303  20.622  0.00  0.00    +0.000 A 
ATOM     11  C   UNL     1       1.422   8.674  19.651  0.00  0.00    +0.000 A 
ENDROOT
BRANCH   3  12
ATOM     12  C   UNL     1       2.901   5.268  18.500  0.00  0.00    +0.000 A 
ATOM     13  C   UNL     1       2.058   4.386  17.805  0.00  0.00    +0.000 A 
ATOM     14  C   UNL     1       2.399   3.035  17.674  0.00  0.00    +0.000 A 
ATOM     15  C   UNL     1       3.588   2.571  18.231  0.00  0.00    +0.000 A 
ATOM     16  C   UNL     1       4.430   3.425  18.934  0.00  0.00    +0.000 A 
ATOM     17  C   UNL     1       4.075   4.767  19.078  0.00  0.00    +0.000 A 
BRANCH  15  18
ATOM     18  O   UNL     1       3.965   1.266  18.114  0.00  0.00    +0.000 OA
ATOM     19  H   UNL     1       3.464   0.861  17.387  0.00  0.00    +0.000 HD
ENDBRANCH  15  18
BRANCH  17  20
ATOM     20  O   UNL     1       4.878   5.607  19.802  0.00  0.00    +0.000 OA
ATOM     21  H   UNL     1       5.526   6.005  19.199  0.00  0.00    +0.000 HD
ENDBRANCH  17  20
ENDBRANCH   3  12
BRANCH   8  22
ATOM     22  O   UNL     1       0.293  12.655  19.254  0.00  0.00    +0.000 OA
ATOM     23  H   UNL     1       0.270  12.908  18.316  0.00  0.00    +0.000 HD
ENDBRANCH   8  22
BRANCH  10  24
ATOM     24  O   UNL     1       0.192   8.624  21.723  0.00  0.00    +0.000 OA
ATOM     25  H   UNL     1       0.488   7.702  21.692  0.00  0.00    +0.000 HD
ENDBRANCH  10  24
TORSDOF 5
ENDMDL
MODEL 5
REMARK VINA RESULT:      -6.9      1.390      1.987
REMARK  Name = 
REMARK  5 active torsions:
REMARK  status: ('A' for Active; 'I' for Inactive)
REMARK    1  A    between atoms: C_3  and  C_4
REMARK    2  A    between atoms: C_7  and  O_8
REMARK    3  A    between atoms: C_10  and  O_11
REMARK    4  A    between atoms: C_16  and  O_17
REMARK    5  A    between atoms: C_19  and  O_20
REMARK                            x       y       z     vdW  Elec       q    Type
REMARK                         _______ _______ _______ _____ _____    ______ ____
ROOT
ATOM      1  O   UNL     1       5.893   3.363  18.960  0.00  0.00    +0.000 OA
ATOM      2  C   UNL     1       4.718   3.647  18.772  0.00  0.00    +0.000 A 
ATOM      3  C   UNL     1       4.302   4.408  17.559  0.00  0.00    +0.000 A 
ATOM      4  C   UNL     1       3.043   4.853  17.500  0.00  0.00    +0.000 A 
ATOM      5  O   UNL     1       2.070   4.666  18.451  0.00  0.00    +0.000 OA
ATOM      6  C   UNL     1       2.369   3.853  19.518  0.00  0.00    +0.000 A 
ATOM      7  C   UNL     1       1.316   3.591  20.401  0.00  0.00    +0.000 A 
ATOM      8  C   UNL     1       1.541   2.775  21.502  0.00  0.00    +0.000 A 
ATOM      9  C   UNL     1       2.795   2.221  21.736  0.00  0.00    +0.000 A 
ATOM     10  C   UNL     1       3.843   2.485  20.851  0.00  0.00    +0.000 A 
ATOM     11  C   UNL     1       3.639   3.308  19.735  0.00  0.00    +0.000 A 
ENDROOT
BRANCH   3  12
ATOM     12  C   UNL     1       5.247   4.640  16.456  0.00  0.00    +0.000 A 
ATOM     13  C   UNL     1       5.126   3.921  15.257  0.00  0.00    +0.000 A 
ATOM     14  C   UNL     1       5.980   4.187  14.180  0.00  0.00    +0.000 A 
ATOM     15  C   UNL     1       6.948   5.181  14.304  0.00  0.00    +0.000 A 
ATOM     16  C   UNL     1       7.093   5.896  15.487  0.00  0.00    +0.000 A 
ATOM     17  C   UNL     1       6.251   5.613  16.562  0.00  0.00    +0.000 A 
BRANCH  15  18
ATOM     18  O   UNL     1       7.791   5.482  13.275  0.00  0.00    +0.000 OA
ATOM     19  H   UNL     1       7.266   5.591  12.465  0.00  0.00    +0.000 HD
ENDBRANCH  15  18
BRANCH  17  20
ATOM     20  O   UNL     1       6.412   6.285  17.745  0.00  0.00    +0.000 OA
ATOM     21  H   UNL     1       5.954   5.787  18.442  0.00  0.00    +0.000 HD
ENDBRANCH  17  20
ENDBRANCH   3  12
BRANCH   8  22
ATOM     22  O   UNL     1       0.548   2.486  22.390  0.00  0.00    +0.000 OA
ATOM     23  H   UNL     1       0.102   3.309  22.648  0.00  0.00    +0.000 HD
ENDBRANCH   8  22
BRANCH  10  24
ATOM     24  O   UNL     1       5.060   1.915  21.095  0.00  0.00    +0.000 OA
ATOM     25  H   UNL     1       5.380   2.165  21.976  0.00  0.00    +0.000 HD
ENDBRANCH  10  24
TORSDOF 5
ENDMDL
MODEL 6
REMARK VINA RESULT:      -6.9      1.421      6.651
REMARK  Name = 
REMARK  5 active torsions:
REMARK  status: ('A' for Active; 'I' for Inactive)
REMARK    1  A    between atoms: C_3  and  C_4
REMARK    2  A    between atoms: C_7  and  O_8
REMARK    3  A    between atoms: C_10  and  O_11
REMARK    4  A    between atoms: C_16  and  O_17
REMARK    5  A    between atoms: C_19  and  O_20
REMARK                            x       y       z     vdW  Elec       q    Type
REMARK                         _______ _______ _______ _____ _____    ______ ____
ROOT
ATOM      1  O   UNL     1       5.777   4.626  19.369  0.00  0.00    +0.000 OA
ATOM      2  C   UNL     1       5.286   4.342  18.286  0.00  0.00    +0.000 A 
ATOM      3  C   UNL     1       4.005   3.584  18.205  0.00  0.00    +0.000 A 
ATOM      4  C   UNL     1       3.614   3.138  17.006  0.00  0.00    +0.000 A 
ATOM      5  O   UNL     1       4.276   3.323  15.817  0.00  0.00    +0.000 OA
ATOM      6  C   UNL     1       5.386   4.133  15.823  0.00  0.00    +0.000 A 
ATOM      7  C   UNL     1       5.961   4.393  14.575  0.00  0.00    +0.000 A 
ATOM      8  C   UNL     1       7.084   5.206  14.501  0.00  0.00    +0.000 A 
ATOM      9  C   UNL     1       7.641   5.761  15.649  0.00  0.00    +0.000 A 
ATOM     10  C   UNL     1       7.064   5.499  16.893  0.00  0.00    +0.000 A 
ATOM     11  C   UNL     1       5.931   4.679  16.991  0.00  0.00    +0.000 A 
ENDROOT
BRANCH   3  12
ATOM     12  C   UNL     1       3.188   3.354  19.407  0.00  0.00    +0.000 A 
ATOM     13  C   UNL     1       1.925   3.953  19.531  0.00  0.00    +0.000 A 
ATOM     14  C   UNL     1       1.117   3.683  20.641  0.00  0.00    +0.000 A 
ATOM     15  C   UNL     1       1.572   2.806  21.622  0.00  0.00    +0.000 A 
ATOM     16  C   UNL     1       2.825   2.211  21.525  0.00  0.00    +0.000 A 
ATOM     17  C   UNL     1       3.633   2.500  20.426  0.00  0.00    +0.000 A 
BRANCH  15  18
ATOM     18  O   UNL     1       0.812   2.504  22.713  0.00  0.00    +0.000 OA
ATOM     19  H   UNL     1      -0.126   2.557  22.463  0.00  0.00    +0.000 HD
ENDBRANCH  15  18
BRANCH  17  20
ATOM     20  O   UNL     1       4.886   1.950  20.341  0.00  0.00    +0.000 OA
ATOM     21  H   UNL     1       5.535   2.672  20.322  0.00  0.00    +0.000 HD
ENDBRANCH  17  20
ENDBRANCH   3  12
BRANCH   8  22
ATOM     22  O   UNL     1       7.680   5.494  13.309  0.00  0.00    +0.000 OA
ATOM     23  H   UNL     1       8.619   5.248  13.355  0.00  0.00    +0.000 HD
ENDBRANCH   8  22
BRANCH  10  24
ATOM     24  O   UNL     1       7.621   6.069  18.002  0.00  0.00    +0.000 OA
ATOM     25  H   UNL     1       7.199   5.728  18.806  0.00  0.00    +0.000 HD
ENDBRANCH  10  24
TORSDOF 5
ENDMDL
MODEL 7
REMARK VINA RESULT:      -6.5      3.567      4.947
REMARK  Name = 
REMARK  5 active torsions:
REMARK  status: ('A' for Active; 'I' for Inactive)
REMARK    1  A    between atoms: C_3  and  C_4
REMARK    2  A    between atoms: C_7  and  O_8
REMARK    3  A    between atoms: C_10  and  O_11
REMARK    4  A    between atoms: C_16  and  O_17
REMARK    5  A    between atoms: C_19  and  O_20
REMARK                            x       y       z     vdW  Elec       q    Type
REMARK                         _______ _______ _______ _____ _____    ______ ____
ROOT
ATOM      1  O   UNL     1       2.686   8.155  16.938  0.00  0.00    +0.000 OA
ATOM      2  C   UNL     1       2.476   7.866  18.107  0.00  0.00    +0.000 A 
ATOM      3  C   UNL     1       2.880   6.537  18.649  0.00  0.00    +0.000 A 
ATOM      4  C   UNL     1       2.458   6.204  19.874  0.00  0.00    +0.000 A 
ATOM      5  O   UNL     1       1.690   6.980  20.705  0.00  0.00    +0.000 OA
ATOM      6  C   UNL     1       1.413   8.265  20.304  0.00  0.00    +0.000 A 
ATOM      7  C   UNL     1       0.730   9.061  21.230  0.00  0.00    +0.000 A 
ATOM      8  C   UNL     1       0.417  10.373  20.896  0.00  0.00    +0.000 A 
ATOM      9  C   UNL     1       0.771  10.899  19.659  0.00  0.00    +0.000 A 
ATOM     10  C   UNL     1       1.452  10.100  18.737  0.00  0.00    +0.000 A 
ATOM     11  C   UNL     1       1.776   8.773  19.052  0.00  0.00    +0.000 A 
ENDROOT
BRANCH   3  12
ATOM     12  C   UNL     1       3.734   5.632  17.864  0.00  0.00    +0.000 A 
ATOM     13  C   UNL     1       3.300   4.332  17.563  0.00  0.00    +0.000 A 
ATOM     14  C   UNL     1       4.079   3.492  16.759  0.00  0.00    +0.000 A 
ATOM     15  C   UNL     1       5.289   3.958  16.252  0.00  0.00    +0.000 A 
ATOM     16  C   UNL     1       5.744   5.238  16.549  0.00  0.00    +0.000 A 
ATOM     17  C   UNL     1       4.971   6.063  17.365  0.00  0.00    +0.000 A 
BRANCH  15  18
ATOM     18  O   UNL     1       6.072   3.178  15.453  0.00  0.00    +0.000 OA
ATOM     19  H   UNL     1       6.289   2.361  15.933  0.00  0.00    +0.000 HD
ENDBRANCH  15  18
BRANCH  17  20
ATOM     20  O   UNL     1       5.429   7.311  17.696  0.00  0.00    +0.000 OA
ATOM     21  H   UNL     1       5.111   7.940  17.028  0.00  0.00    +0.000 HD
ENDBRANCH  17  20
ENDBRANCH   3  12
BRANCH   8  22
ATOM     22  O   UNL     1      -0.243  11.191  21.764  0.00  0.00    +0.000 OA
ATOM     23  H   UNL     1      -1.011  11.580  21.313  0.00  0.00    +0.000 HD
ENDBRANCH   8  22
BRANCH  10  24
ATOM     24  O   UNL     1       1.802  10.646  17.536  0.00  0.00    +0.000 OA
ATOM     25  H   UNL     1       2.749  10.852  17.521  0.00  0.00    +0.000 HD
ENDBRANCH  10  24
TORSDOF 5
ENDMDL
MODEL 8
REMARK VINA RESULT:      -6.4      1.790      3.087
REMARK  Name = 
REMARK  5 active torsions:
REMARK  status: ('A' for Active; 'I' for Inactive)
REMARK    1  A    between atoms: C_3  and  C_4
REMARK    2  A    between atoms: C_7  and  O_8
REMARK    3  A    between atoms: C_10  and  O_11
REMARK    4  A    between atoms: C_16  and  O_17
REMARK    5  A    between atoms: C_19  and  O_20
REMARK                            x       y       z     vdW  Elec       q    Type
REMARK                         _______ _______ _______ _____ _____    ______ ____
ROOT
ATOM      1  O   UNL     1       4.527   3.184  17.075  0.00  0.00    +0.000 OA
ATOM      2  C   UNL     1       4.325   4.389  17.116  0.00  0.00    +0.000 A 
ATOM      3  C   UNL     1       4.927   5.299  16.099  0.00  0.00    +0.000 A 
ATOM      4  C   UNL     1       4.830   6.617  16.301  0.00  0.00    +0.000 A 
ATOM      5  O   UNL     1       4.210   7.232  17.361  0.00  0.00    +0.000 OA
ATOM      6  C   UNL     1       3.522   6.438  18.246  0.00  0.00    +0.000 A 
ATOM      7  C   UNL     1       2.805   7.110  19.242  0.00  0.00    +0.000 A 
ATOM      8  C   UNL     1       2.083   6.374  20.173  0.00  0.00    +0.000 A 
ATOM      9  C   UNL     1       2.067   4.984  20.127  0.00  0.00    +0.000 A 
ATOM     10  C   UNL     1       2.784   4.317  19.131  0.00  0.00    +0.000 A 
ATOM     11  C   UNL     1       3.522   5.040  18.183  0.00  0.00    +0.000 A 
ENDROOT
BRANCH   3  12
ATOM     12  C   UNL     1       5.587   4.757  14.901  0.00  0.00    +0.000 A 
ATOM     13  C   UNL     1       4.859   3.993  13.976  0.00  0.00    +0.000 A 
ATOM     14  C   UNL     1       5.465   3.533  12.802  0.00  0.00    +0.000 A 
ATOM     15  C   UNL     1       6.799   3.847  12.552  0.00  0.00    +0.000 A 
ATOM     16  C   UNL     1       7.542   4.591  13.461  0.00  0.00    +0.000 A 
ATOM     17  C   UNL     1       6.936   5.030  14.638  0.00  0.00    +0.000 A 
BRANCH  15  18
ATOM     18  O   UNL     1       7.425   3.431  11.414  0.00  0.00    +0.000 OA
ATOM     19  H   UNL     1       8.366   3.666  11.472  0.00  0.00    +0.000 HD
ENDBRANCH  15  18
BRANCH  17  20
ATOM     20  O   UNL     1       7.670   5.731  15.559  0.00  0.00    +0.000 OA
ATOM     21  H   UNL     1       8.333   5.132  15.940  0.00  0.00    +0.000 HD
ENDBRANCH  17  20
ENDBRANCH   3  12
BRANCH   8  22
ATOM     22  O   UNL     1       1.365   6.981  21.160  0.00  0.00    +0.000 OA
ATOM     23  H   UNL     1       1.909   7.673  21.570  0.00  0.00    +0.000 HD
ENDBRANCH   8  22
BRANCH  10  24
ATOM     24  O   UNL     1       2.738   2.953  19.099  0.00  0.00    +0.000 OA
ATOM     25  H   UNL     1       2.324   2.648  18.277  0.00  0.00    +0.000 HD
ENDBRANCH  10  24
TORSDOF 5
ENDMDL
MODEL 9
REMARK VINA RESULT:      -6.4      1.560      1.738
REMARK  Name = 
REMARK  5 active torsions:
REMARK  status: ('A' for Active; 'I' for Inactive)
REMARK    1  A    between atoms: C_3  and  C_4
REMARK    2  A    between atoms: C_7  and  O_8
REMARK    3  A    between atoms: C_10  and  O_11
REMARK    4  A    between atoms: C_16  and  O_17
REMARK    5  A    between atoms: C_19  and  O_20
REMARK                            x       y       z     vdW  Elec       q    Type
REMARK                         _______ _______ _______ _____ _____    ______ ____
ROOT
ATOM      1  O   UNL     1       2.860   3.686  16.564  0.00  0.00    +0.000 OA
ATOM      2  C   UNL     1       3.423   3.614  17.647  0.00  0.00    +0.000 A 
ATOM      3  C   UNL     1       4.903   3.766  17.750  0.00  0.00    +0.000 A 
ATOM      4  C   UNL     1       5.481   3.491  18.924  0.00  0.00    +0.000 A 
ATOM      5  O   UNL     1       4.841   3.090  20.070  0.00  0.00    +0.000 OA
ATOM      6  C   UNL     1       3.467   3.072  20.060  0.00  0.00    +0.000 A 
ATOM      7  C   UNL     1       2.850   2.774  21.280  0.00  0.00    +0.000 A 
ATOM      8  C   UNL     1       1.464   2.739  21.349  0.00  0.00    +0.000 A 
ATOM      9  C   UNL     1       0.686   2.995  20.224  0.00  0.00    +0.000 A 
ATOM     10  C   UNL     1       1.306   3.292  19.008  0.00  0.00    +0.000 A 
ATOM     11  C   UNL     1       2.704   3.330  18.915  0.00  0.00    +0.000 A 
ENDROOT
BRANCH   3  12
ATOM     12  C   UNL     1       5.694   4.226  16.598  0.00  0.00    +0.000 A 
ATOM     13  C   UNL     1       5.761   3.450  15.430  0.00  0.00    +0.000 A 
ATOM     14  C   UNL     1       6.456   3.915  14.308  0.00  0.00    +0.000 A 
ATOM     15  C   UNL     1       7.077   5.161  14.355  0.00  0.00    +0.000 A 
ATOM     16  C   UNL     1       7.033   5.939  15.506  0.00  0.00    +0.000 A 
ATOM     17  C   UNL     1       6.355   5.462  16.627  0.00  0.00    +0.000 A 
BRANCH  15  18
ATOM     18  O   UNL     1       7.752   5.658  13.280  0.00  0.00    +0.000 OA
ATOM     19  H   UNL     1       7.257   5.441  12.473  0.00  0.00    +0.000 HD
ENDBRANCH  15  18
BRANCH  17  20
ATOM     20  O   UNL     1       6.340   6.203  17.778  0.00  0.00    +0.000 OA
ATOM     21  H   UNL     1       5.440   6.181  18.144  0.00  0.00    +0.000 HD
ENDBRANCH  17  20
ENDBRANCH   3  12
BRANCH   8  22
ATOM     22  O   UNL     1       0.814   2.458  22.514  0.00  0.00    +0.000 OA
ATOM     23  H   UNL     1       0.056   1.881  22.324  0.00  0.00    +0.000 HD
ENDBRANCH   8  22
BRANCH  10  24
ATOM     24  O   UNL     1       0.519   3.554  17.924  0.00  0.00    +0.000 OA
ATOM     25  H   UNL     1       0.892   3.144  17.129  0.00  0.00    +0.000 HD
ENDBRANCH  10  24
TORSDOF 5
ENDMDL
