MODEL 1
REMARK VINA RESULT:      -8.1      0.000      0.000
REMARK  Name = 
REMARK  16 active torsions:
REMARK  status: ('A' for Active; 'I' for Inactive)
REMARK    1  A    between atoms: C_1  and  C_2
REMARK    2  A    between atoms: C_2  and  C_3
REMARK    3  A    between atoms: C_3  and  C_4
REMARK    4  A    between atoms: C_4  and  C_5
REMARK    5  A    between atoms: C_5  and  C_6
REMARK    6  A    between atoms: C_6  and  C_7
REMARK    7  A    between atoms: C_7  and  C_8
REMARK    8  A    between atoms: C_8  and  C_9
REMARK    9  A    between atoms: C_9  and  S_10
REMARK   10  A    between atoms: C_9  and  C_27
REMARK   11  A    between atoms: S_10  and  C_11
REMARK   12  A    between atoms: C_16  and  N_17
REMARK   13  A    between atoms: N_17  and  C_18
REMARK   14  A    between atoms: C_22  and  C_23
REMARK   15  A    between atoms: C_24  and  C_25
REMARK   16  A    between atoms: C_27  and  O_29
REMARK                            x       y       z     vdW  Elec       q    Type
REMARK                         _______ _______ _______ _____ _____    ______ ____
ROOT
ATOM      1  C   UNL     1       4.032   4.379  19.213  0.00  0.00    +0.000 A 
ATOM      2  N   UNL     1       3.169   3.375  19.054  0.00  0.00    +0.000 NA
ATOM      3  C   UNL     1       1.909   3.641  19.400  0.00  0.00    +0.000 A 
ATOM      4 CL   UNL     1       0.815   2.337  19.197  0.00  0.00    +0.000 Cl
ATOM      5  C   UNL     1       1.476   4.840  19.892  0.00  0.00    +0.000 A 
ATOM      6  C   UNL     1       2.445   5.804  20.068  0.00  0.00    +0.000 A 
ATOM      7  N   UNL     1       3.722   5.592  19.703  0.00  0.00    +0.000 NA
ENDROOT
BRANCH   6   8
ATOM      8  N   UNL     1       2.112   7.056  20.611  0.00  0.00    +0.000 N 
ATOM      9  H   UNL     1       1.768   6.972  21.563  0.00  0.00    +0.000 HD
BRANCH   8  10
ATOM     10  C   UNL     1       1.654   8.208  19.924  0.00  0.00    +0.000 A 
ATOM     11  C   UNL     1       1.975   8.405  18.570  0.00  0.00    +0.000 A 
ATOM     12  C   UNL     1       1.648   9.586  17.913  0.00  0.00    +0.000 A 
ATOM     13  C   UNL     1       0.980  10.590  18.600  0.00  0.00    +0.000 A 
ATOM     14  C   UNL     1       0.596  10.413  19.939  0.00  0.00    +0.000 A 
ATOM     15  C   UNL     1      -0.117  11.545  20.626  0.00  0.00    +0.000 C 
ATOM     16  C   UNL     1       0.909   9.200  20.604  0.00  0.00    +0.000 A 
ATOM     17  C   UNL     1       0.493   8.958  22.034  0.00  0.00    +0.000 C 
ENDBRANCH   8  10
ENDBRANCH   6   8
BRANCH   1  18
ATOM     18  S   UNL     1       5.677   4.059  18.622  0.00  0.00    +0.000 S 
BRANCH  18  19
ATOM     19  C   UNL     1       6.258   5.719  18.091  0.00  0.00    +0.000 C 
BRANCH  19  20
ATOM     20  C   UNL     1       7.518   6.121  18.855  0.00  0.00    +0.000 C 
ATOM     21  O   UNL     1       8.305   6.987  18.501  0.00  0.00    +0.000 OA
BRANCH  20  22
ATOM     22  O   UNL     1       7.647   5.491  20.052  0.00  0.00    +0.000 OA
ATOM     23  H   UNL     1       8.557   5.161  20.201  0.00  0.00    +0.000 HD
ENDBRANCH  20  22
ENDBRANCH  19  20
BRANCH  19  24
ATOM     24  C   UNL     1       6.390   5.931  16.575  0.00  0.00    +0.000 C 
BRANCH  24  25
ATOM     25  C   UNL     1       6.553   4.634  15.777  0.00  0.00    +0.000 C 
BRANCH  25  26
ATOM     26  C   UNL     1       5.858   4.703  14.415  0.00  0.00    +0.000 C 
BRANCH  26  27
ATOM     27  C   UNL     1       6.762   4.107  13.335  0.00  0.00    +0.000 C 
BRANCH  27  28
ATOM     28  C   UNL     1       6.004   3.189  12.377  0.00  0.00    +0.000 C 
BRANCH  28  29
ATOM     29  C   UNL     1       4.590   3.724  12.138  0.00  0.00    +0.000 C 
BRANCH  29  31
ATOM     30  C   UNL     1       3.223   4.007  10.045  0.00  0.00    +0.000 C 
ATOM     31  C   UNL     1       3.906   3.014  10.972  0.00  0.00    +0.000 C 
ENDBRANCH  29  31
ENDBRANCH  28  29
ENDBRANCH  27  28
ENDBRANCH  26  27
ENDBRANCH  25  26
ENDBRANCH  24  25
ENDBRANCH  19  24
ENDBRANCH  18  19
ENDBRANCH   1  18
TORSDOF 13
ENDMDL
MODEL 2
REMARK VINA RESULT:      -7.6      3.258      5.729
REMARK  Name = 
REMARK  16 active torsions:
REMARK  status: ('A' for Active; 'I' for Inactive)
REMARK    1  A    between atoms: C_1  and  C_2
REMARK    2  A    between atoms: C_2  and  C_3
REMARK    3  A    between atoms: C_3  and  C_4
REMARK    4  A    between atoms: C_4  and  C_5
REMARK    5  A    between atoms: C_5  and  C_6
REMARK    6  A    between atoms: C_6  and  C_7
REMARK    7  A    between atoms: C_7  and  C_8
REMARK    8  A    between atoms: C_8  and  C_9
REMARK    9  A    between atoms: C_9  and  S_10
REMARK   10  A    between atoms: C_9  and  C_27
REMARK   11  A    between atoms: S_10  and  C_11
REMARK   12  A    between atoms: C_16  and  N_17
REMARK   13  A    between atoms: N_17  and  C_18
REMARK   14  A    between atoms: C_22  and  C_23
REMARK   15  A    between atoms: C_24  and  C_25
REMARK   16  A    between atoms: C_27  and  O_29
REMARK                            x       y       z     vdW  Elec       q    Type
REMARK                         _______ _______ _______ _____ _____    ______ ____
ROOT
ATOM      1  C   UNL     1       5.116   4.705  18.510  0.00  0.00    +0.000 A 
ATOM      2  N   UNL     1       4.473   3.648  18.012  0.00  0.00    +0.000 NA
ATOM      3  C   UNL     1       3.151   3.646  18.184  0.00  0.00    +0.000 A 
ATOM      4 CL   UNL     1       2.343   2.276  17.544  0.00  0.00    +0.000 Cl
ATOM      5  C   UNL     1       2.450   4.630  18.822  0.00  0.00    +0.000 A 
ATOM      6  C   UNL     1       3.201   5.660  19.347  0.00  0.00    +0.000 A 
ATOM      7  N   UNL     1       4.533   5.721  19.170  0.00  0.00    +0.000 NA
ENDROOT
BRANCH   6   8
ATOM      8  N   UNL     1       2.581   6.698  20.062  0.00  0.00    +0.000 N 
ATOM      9  H   UNL     1       2.153   6.360  20.919  0.00  0.00    +0.000 HD
BRANCH   8  10
ATOM     10  C   UNL     1       1.997   7.882  19.546  0.00  0.00    +0.000 A 
ATOM     11  C   UNL     1       2.174   8.236  18.197  0.00  0.00    +0.000 A 
ATOM     12  C   UNL     1       1.721   9.453  17.702  0.00  0.00    +0.000 A 
ATOM     13  C   UNL     1       1.067  10.337  18.550  0.00  0.00    +0.000 A 
ATOM     14  C   UNL     1       0.824  10.000  19.891  0.00  0.00    +0.000 A 
ATOM     15  C   UNL     1       0.119  11.009  20.756  0.00  0.00    +0.000 C 
ATOM     16  C   UNL     1       1.266   8.750  20.392  0.00  0.00    +0.000 A 
ATOM     17  C   UNL     1       1.004   8.337  21.820  0.00  0.00    +0.000 C 
ENDBRANCH   8  10
ENDBRANCH   6   8
BRANCH   1  18
ATOM     18  S   UNL     1       6.856   4.765  18.157  0.00  0.00    +0.000 S 
BRANCH  18  19
ATOM     19  C   UNL     1       6.970   6.045  16.843  0.00  0.00    +0.000 C 
BRANCH  19  20
ATOM     20  C   UNL     1       6.016   5.726  15.694  0.00  0.00    +0.000 C 
ATOM     21  O   UNL     1       6.060   4.717  15.006  0.00  0.00    +0.000 OA
BRANCH  20  22
ATOM     22  O   UNL     1       5.016   6.636  15.555  0.00  0.00    +0.000 OA
ATOM     23  H   UNL     1       4.940   6.967  14.636  0.00  0.00    +0.000 HD
ENDBRANCH  20  22
ENDBRANCH  19  20
BRANCH  19  24
ATOM     24  C   UNL     1       6.864   7.504  17.315  0.00  0.00    +0.000 C 
BRANCH  24  25
ATOM     25  C   UNL     1       8.151   8.049  17.940  0.00  0.00    +0.000 C 
BRANCH  25  26
ATOM     26  C   UNL     1       8.150   9.577  18.024  0.00  0.00    +0.000 C 
BRANCH  26  27
ATOM     27  C   UNL     1       9.178  10.047  19.054  0.00  0.00    +0.000 C 
BRANCH  27  28
ATOM     28  C   UNL     1      10.153  11.075  18.480  0.00  0.00    +0.000 C 
BRANCH  28  29
ATOM     29  C   UNL     1      11.168  11.495  19.546  0.00  0.00    +0.000 C 
BRANCH  29  31
ATOM     30  C   UNL     1      10.685  13.725  18.486  0.00  0.00    +0.000 C 
ATOM     31  C   UNL     1      11.210  13.011  19.722  0.00  0.00    +0.000 C 
ENDBRANCH  29  31
ENDBRANCH  28  29
ENDBRANCH  27  28
ENDBRANCH  26  27
ENDBRANCH  25  26
ENDBRANCH  24  25
ENDBRANCH  19  24
ENDBRANCH  18  19
ENDBRANCH   1  18
TORSDOF 13
ENDMDL
MODEL 3
REMARK VINA RESULT:      -7.4      3.135      5.579
REMARK  Name = 
REMARK  16 active torsions:
REMARK  status: ('A' for Active; 'I' for Inactive)
REMARK    1  A    between atoms: C_1  and  C_2
REMARK    2  A    between atoms: C_2  and  C_3
REMARK    3  A    between atoms: C_3  and  C_4
REMARK    4  A    between atoms: C_4  and  C_5
REMARK    5  A    between atoms: C_5  and  C_6
REMARK    6  A    between atoms: C_6  and  C_7
REMARK    7  A    between atoms: C_7  and  C_8
REMARK    8  A    between atoms: C_8  and  C_9
REMARK    9  A    between atoms: C_9  and  S_10
REMARK   10  A    between atoms: C_9  and  C_27
REMARK   11  A    between atoms: S_10  and  C_11
REMARK   12  A    between atoms: C_16  and  N_17
REMARK   13  A    between atoms: N_17  and  C_18
REMARK   14  A    between atoms: C_22  and  C_23
REMARK   15  A    between atoms: C_24  and  C_25
REMARK   16  A    between atoms: C_27  and  O_29
REMARK                            x       y       z     vdW  Elec       q    Type
REMARK                         _______ _______ _______ _____ _____    ______ ____
ROOT
ATOM      1  C   UNL     1       3.679   5.782  18.580  0.00  0.00    +0.000 A 
ATOM      2  N   UNL     1       3.603   4.492  18.909  0.00  0.00    +0.000 NA
ATOM      3  C   UNL     1       2.786   4.205  19.924  0.00  0.00    +0.000 A 
ATOM      4 CL   UNL     1       2.707   2.543  20.338  0.00  0.00    +0.000 Cl
ATOM      5  C   UNL     1       2.056   5.128  20.617  0.00  0.00    +0.000 A 
ATOM      6  C   UNL     1       2.233   6.443  20.239  0.00  0.00    +0.000 A 
ATOM      7  N   UNL     1       3.021   6.776  19.201  0.00  0.00    +0.000 NA
ENDROOT
BRANCH   6   8
ATOM      8  N   UNL     1       1.564   7.473  20.920  0.00  0.00    +0.000 N 
ATOM      9  H   UNL     1       0.964   7.110  21.655  0.00  0.00    +0.000 HD
BRANCH   8  10
ATOM     10  C   UNL     1       1.166   8.736  20.412  0.00  0.00    +0.000 A 
ATOM     11  C   UNL     1       1.362   9.053  19.057  0.00  0.00    +0.000 A 
ATOM     12  C   UNL     1       1.100  10.327  18.567  0.00  0.00    +0.000 A 
ATOM     13  C   UNL     1       0.621  11.307  19.426  0.00  0.00    +0.000 A 
ATOM     14  C   UNL     1       0.363  11.017  20.775  0.00  0.00    +0.000 A 
ATOM     15  C   UNL     1      -0.146  12.128  21.652  0.00  0.00    +0.000 C 
ATOM     16  C   UNL     1       0.609   9.711  21.272  0.00  0.00    +0.000 A 
ATOM     17  C   UNL     1       0.322   9.350  22.708  0.00  0.00    +0.000 C 
ENDBRANCH   8  10
ENDBRANCH   6   8
BRANCH   1  18
ATOM     18  S   UNL     1       4.661   6.136  17.142  0.00  0.00    +0.000 S 
BRANCH  18  19
ATOM     19  C   UNL     1       6.372   6.181  17.809  0.00  0.00    +0.000 C 
BRANCH  19  20
ATOM     20  C   UNL     1       7.020   4.800  17.730  0.00  0.00    +0.000 C 
ATOM     21  O   UNL     1       7.964   4.509  17.010  0.00  0.00    +0.000 OA
BRANCH  20  22
ATOM     22  O   UNL     1       6.514   3.915  18.628  0.00  0.00    +0.000 OA
ATOM     23  H   UNL     1       7.210   3.351  19.026  0.00  0.00    +0.000 HD
ENDBRANCH  20  22
ENDBRANCH  19  20
BRANCH  19  24
ATOM     24  C   UNL     1       7.278   7.294  17.261  0.00  0.00    +0.000 C 
BRANCH  24  25
ATOM     25  C   UNL     1       8.208   7.911  18.310  0.00  0.00    +0.000 C 
BRANCH  25  26
ATOM     26  C   UNL     1       8.389   9.417  18.106  0.00  0.00    +0.000 C 
BRANCH  26  27
ATOM     27  C   UNL     1       9.268   9.995  19.217  0.00  0.00    +0.000 C 
BRANCH  27  28
ATOM     28  C   UNL     1      10.163  11.131  18.723  0.00  0.00    +0.000 C 
BRANCH  28  29
ATOM     29  C   UNL     1       9.316  12.350  18.351  0.00  0.00    +0.000 C 
BRANCH  29  31
ATOM     30  C   UNL     1      10.952  13.320  19.997  0.00  0.00    +0.000 C 
ATOM     31  C   UNL     1       9.842  13.626  19.004  0.00  0.00    +0.000 C 
ENDBRANCH  29  31
ENDBRANCH  28  29
ENDBRANCH  27  28
ENDBRANCH  26  27
ENDBRANCH  25  26
ENDBRANCH  24  25
ENDBRANCH  19  24
ENDBRANCH  18  19
ENDBRANCH   1  18
TORSDOF 13
ENDMDL
MODEL 4
REMARK VINA RESULT:      -7.4      3.402      5.742
REMARK  Name = 
REMARK  16 active torsions:
REMARK  status: ('A' for Active; 'I' for Inactive)
REMARK    1  A    between atoms: C_1  and  C_2
REMARK    2  A    between atoms: C_2  and  C_3
REMARK    3  A    between atoms: C_3  and  C_4
REMARK    4  A    between atoms: C_4  and  C_5
REMARK    5  A    between atoms: C_5  and  C_6
REMARK    6  A    between atoms: C_6  and  C_7
REMARK    7  A    between atoms: C_7  and  C_8
REMARK    8  A    between atoms: C_8  and  C_9
REMARK    9  A    between atoms: C_9  and  S_10
REMARK   10  A    between atoms: C_9  and  C_27
REMARK   11  A    between atoms: S_10  and  C_11
REMARK   12  A    between atoms: C_16  and  N_17
REMARK   13  A    between atoms: N_17  and  C_18
REMARK   14  A    between atoms: C_22  and  C_23
REMARK   15  A    between atoms: C_24  and  C_25
REMARK   16  A    between atoms: C_27  and  O_29
REMARK                            x       y       z     vdW  Elec       q    Type
REMARK                         _______ _______ _______ _____ _____    ______ ____
ROOT
ATOM      1  C   UNL     1       3.646   5.920  18.722  0.00  0.00    +0.000 A 
ATOM      2  N   UNL     1       3.304   4.928  19.546  0.00  0.00    +0.000 NA
ATOM      3  C   UNL     1       2.303   5.198  20.385  0.00  0.00    +0.000 A 
ATOM      4 CL   UNL     1       1.883   3.915  21.442  0.00  0.00    +0.000 Cl
ATOM      5  C   UNL     1       1.639   6.391  20.443  0.00  0.00    +0.000 A 
ATOM      6  C   UNL     1       2.090   7.373  19.587  0.00  0.00    +0.000 A 
ATOM      7  N   UNL     1       3.075   7.137  18.702  0.00  0.00    +0.000 NA
ENDROOT
BRANCH   6   8
ATOM      8  N   UNL     1       1.506   8.650  19.601  0.00  0.00    +0.000 N 
ATOM      9  H   UNL     1       1.956   9.276  18.938  0.00  0.00    +0.000 HD
BRANCH   8  10
ATOM     10  C   UNL     1       0.872   9.306  20.686  0.00  0.00    +0.000 A 
ATOM     11  C   UNL     1       1.095   8.877  22.006  0.00  0.00    +0.000 A 
ATOM     12  C   UNL     1       0.388   9.420  23.072  0.00  0.00    +0.000 A 
ATOM     13  C   UNL     1      -0.551  10.416  22.837  0.00  0.00    +0.000 A 
ATOM     14  C   UNL     1      -0.766  10.908  21.540  0.00  0.00    +0.000 A 
ATOM     15  C   UNL     1      -1.804  11.981  21.354  0.00  0.00    +0.000 C 
ATOM     16  C   UNL     1      -0.029  10.371  20.453  0.00  0.00    +0.000 A 
ATOM     17  C   UNL     1      -0.211  10.889  19.048  0.00  0.00    +0.000 C 
ENDBRANCH   8  10
ENDBRANCH   6   8
BRANCH   1  18
ATOM     18  S   UNL     1       4.886   5.506  17.519  0.00  0.00    +0.000 S 
BRANCH  18  19
ATOM     19  C   UNL     1       6.403   6.285  18.201  0.00  0.00    +0.000 C 
BRANCH  19  20
ATOM     20  C   UNL     1       7.338   5.228  18.787  0.00  0.00    +0.000 C 
ATOM     21  O   UNL     1       7.966   4.408  18.134  0.00  0.00    +0.000 OA
BRANCH  20  22
ATOM     22  O   UNL     1       7.501   5.339  20.132  0.00  0.00    +0.000 OA
ATOM     23  H   UNL     1       7.865   6.212  20.390  0.00  0.00    +0.000 HD
ENDBRANCH  20  22
ENDBRANCH  19  20
BRANCH  19  24
ATOM     24  C   UNL     1       7.130   7.270  17.272  0.00  0.00    +0.000 C 
BRANCH  24  25
ATOM     25  C   UNL     1       8.259   8.048  17.952  0.00  0.00    +0.000 C 
BRANCH  25  26
ATOM     26  C   UNL     1       8.018   9.559  17.922  0.00  0.00    +0.000 C 
BRANCH  26  27
ATOM     27  C   UNL     1       9.162  10.287  18.630  0.00  0.00    +0.000 C 
BRANCH  27  28
ATOM     28  C   UNL     1       9.370  11.706  18.102  0.00  0.00    +0.000 C 
BRANCH  28  29
ATOM     29  C   UNL     1      10.831  11.913  17.697  0.00  0.00    +0.000 C 
BRANCH  29  31
ATOM     30  C   UNL     1      11.847  12.436  19.938  0.00  0.00    +0.000 C 
ATOM     31  C   UNL     1      11.792  11.445  18.787  0.00  0.00    +0.000 C 
ENDBRANCH  29  31
ENDBRANCH  28  29
ENDBRANCH  27  28
ENDBRANCH  26  27
ENDBRANCH  25  26
ENDBRANCH  24  25
ENDBRANCH  19  24
ENDBRANCH  18  19
ENDBRANCH   1  18
TORSDOF 13
ENDMDL
MODEL 5
REMARK VINA RESULT:      -7.2      2.877      5.244
REMARK  Name = 
REMARK  16 active torsions:
REMARK  status: ('A' for Active; 'I' for Inactive)
REMARK    1  A    between atoms: C_1  and  C_2
REMARK    2  A    between atoms: C_2  and  C_3
REMARK    3  A    between atoms: C_3  and  C_4
REMARK    4  A    between atoms: C_4  and  C_5
REMARK    5  A    between atoms: C_5  and  C_6
REMARK    6  A    between atoms: C_6  and  C_7
REMARK    7  A    between atoms: C_7  and  C_8
REMARK    8  A    between atoms: C_8  and  C_9
REMARK    9  A    between atoms: C_9  and  S_10
REMARK   10  A    between atoms: C_9  and  C_27
REMARK   11  A    between atoms: S_10  and  C_11
REMARK   12  A    between atoms: C_16  and  N_17
REMARK   13  A    between atoms: N_17  and  C_18
REMARK   14  A    between atoms: C_22  and  C_23
REMARK   15  A    between atoms: C_24  and  C_25
REMARK   16  A    between atoms: C_27  and  O_29
REMARK                            x       y       z     vdW  Elec       q    Type
REMARK                         _______ _______ _______ _____ _____    ______ ____
ROOT
ATOM      1  C   UNL     1       3.302   6.096  18.719  0.00  0.00    +0.000 A 
ATOM      2  N   UNL     1       2.801   4.866  18.847  0.00  0.00    +0.000 NA
ATOM      3  C   UNL     1       1.847   4.727  19.768  0.00  0.00    +0.000 A 
ATOM      4 CL   UNL     1       1.221   3.139  19.924  0.00  0.00    +0.000 Cl
ATOM      5  C   UNL     1       1.379   5.738  20.558  0.00  0.00    +0.000 A 
ATOM      6  C   UNL     1       1.986   6.964  20.391  0.00  0.00    +0.000 A 
ATOM      7  N   UNL     1       2.930   7.159  19.452  0.00  0.00    +0.000 NA
ENDROOT
BRANCH   6   8
ATOM      8  N   UNL     1       1.610   8.058  21.187  0.00  0.00    +0.000 N 
ATOM      9  H   UNL     1       1.590   7.816  22.174  0.00  0.00    +0.000 HD
BRANCH   8  10
ATOM     10  C   UNL     1       0.765   9.140  20.835  0.00  0.00    +0.000 A 
ATOM     11  C   UNL     1       0.660   9.557  19.497  0.00  0.00    +0.000 A 
ATOM     12  C   UNL     1      -0.060  10.694  19.147  0.00  0.00    +0.000 A 
ATOM     13  C   UNL     1      -0.702  11.430  20.133  0.00  0.00    +0.000 A 
ATOM     14  C   UNL     1      -0.665  11.019  21.475  0.00  0.00    +0.000 A 
ATOM     15  C   UNL     1      -1.374  11.868  22.495  0.00  0.00    +0.000 C 
ATOM     16  C   UNL     1       0.050   9.847  21.832  0.00  0.00    +0.000 A 
ATOM     17  C   UNL     1       0.095   9.356  23.257  0.00  0.00    +0.000 C 
ENDBRANCH   8  10
ENDBRANCH   6   8
BRANCH   1  18
ATOM     18  S   UNL     1       4.472   6.299  17.398  0.00  0.00    +0.000 S 
BRANCH  18  19
ATOM     19  C   UNL     1       5.647   4.913  17.666  0.00  0.00    +0.000 C 
BRANCH  19  20
ATOM     20  C   UNL     1       5.323   3.743  16.738  0.00  0.00    +0.000 C 
ATOM     21  O   UNL     1       5.773   3.597  15.612  0.00  0.00    +0.000 OA
BRANCH  20  22
ATOM     22  O   UNL     1       4.549   2.790  17.322  0.00  0.00    +0.000 OA
ATOM     23  H   UNL     1       3.599   2.902  17.108  0.00  0.00    +0.000 HD
ENDBRANCH  20  22
ENDBRANCH  19  20
BRANCH  19  24
ATOM     24  C   UNL     1       7.138   5.283  17.656  0.00  0.00    +0.000 C 
BRANCH  24  25
ATOM     25  C   UNL     1       7.446   6.636  18.304  0.00  0.00    +0.000 C 
BRANCH  25  26
ATOM     26  C   UNL     1       7.903   7.676  17.278  0.00  0.00    +0.000 C 
BRANCH  26  27
ATOM     27  C   UNL     1       7.783   9.082  17.868  0.00  0.00    +0.000 C 
BRANCH  27  28
ATOM     28  C   UNL     1       8.963   9.441  18.771  0.00  0.00    +0.000 C 
BRANCH  28  29
ATOM     29  C   UNL     1       9.533  10.806  18.380  0.00  0.00    +0.000 C 
BRANCH  29  31
ATOM     30  C   UNL     1       9.326  11.188  20.858  0.00  0.00    +0.000 C 
ATOM     31  C   UNL     1      10.080  11.559  19.591  0.00  0.00    +0.000 C 
ENDBRANCH  29  31
ENDBRANCH  28  29
ENDBRANCH  27  28
ENDBRANCH  26  27
ENDBRANCH  25  26
ENDBRANCH  24  25
ENDBRANCH  19  24
ENDBRANCH  18  19
ENDBRANCH   1  18
TORSDOF 13
ENDMDL
MODEL 6
REMARK VINA RESULT:      -7.1      2.231      2.541
REMARK  Name = 
REMARK  16 active torsions:
REMARK  status: ('A' for Active; 'I' for Inactive)
REMARK    1  A    between atoms: C_1  and  C_2
REMARK    2  A    between atoms: C_2  and  C_3
REMARK    3  A    between atoms: C_3  and  C_4
REMARK    4  A    between atoms: C_4  and  C_5
REMARK    5  A    between atoms: C_5  and  C_6
REMARK    6  A    between atoms: C_6  and  C_7
REMARK    7  A    between atoms: C_7  and  C_8
REMARK    8  A    between atoms: C_8  and  C_9
REMARK    9  A    between atoms: C_9  and  S_10
REMARK   10  A    between atoms: C_9  and  C_27
REMARK   11  A    between atoms: S_10  and  C_11
REMARK   12  A    between atoms: C_16  and  N_17
REMARK   13  A    between atoms: N_17  and  C_18
REMARK   14  A    between atoms: C_22  and  C_23
REMARK   15  A    between atoms: C_24  and  C_25
REMARK   16  A    between atoms: C_27  and  O_29
REMARK                            x       y       z     vdW  Elec       q    Type
REMARK                         _______ _______ _______ _____ _____    ______ ____
ROOT
ATOM      1  C   UNL     1       3.789   4.184  19.719  0.00  0.00    +0.000 A 
ATOM      2  N   UNL     1       3.233   3.159  20.367  0.00  0.00    +0.000 NA
ATOM      3  C   UNL     1       2.208   3.470  21.161  0.00  0.00    +0.000 A 
ATOM      4 CL   UNL     1       1.511   2.141  21.990  0.00  0.00    +0.000 Cl
ATOM      5  C   UNL     1       1.720   4.733  21.341  0.00  0.00    +0.000 A 
ATOM      6  C   UNL     1       2.386   5.737  20.670  0.00  0.00    +0.000 A 
ATOM      7  N   UNL     1       3.404   5.467  19.833  0.00  0.00    +0.000 NA
ENDROOT
BRANCH   6   8
ATOM      8  N   UNL     1       1.993   7.076  20.824  0.00  0.00    +0.000 N 
ATOM      9  H   UNL     1       1.437   7.210  21.664  0.00  0.00    +0.000 HD
BRANCH   8  10
ATOM     10  C   UNL     1       1.755   8.035  19.808  0.00  0.00    +0.000 A 
ATOM     11  C   UNL     1       2.331   7.883  18.535  0.00  0.00    +0.000 A 
ATOM     12  C   UNL     1       2.218   8.873  17.566  0.00  0.00    +0.000 A 
ATOM     13  C   UNL     1       1.512  10.034  17.851  0.00  0.00    +0.000 A 
ATOM     14  C   UNL     1       0.878  10.203  19.092  0.00  0.00    +0.000 A 
ATOM     15  C   UNL     1       0.137  11.489  19.338  0.00  0.00    +0.000 C 
ATOM     16  C   UNL     1       0.973   9.184  20.074  0.00  0.00    +0.000 A 
ATOM     17  C   UNL     1       0.287   9.314  21.411  0.00  0.00    +0.000 C 
ENDBRANCH   8  10
ENDBRANCH   6   8
BRANCH   1  18
ATOM     18  S   UNL     1       5.063   3.743  18.562  0.00  0.00    +0.000 S 
BRANCH  18  19
ATOM     19  C   UNL     1       4.123   3.405  17.020  0.00  0.00    +0.000 C 
BRANCH  19  20
ATOM     20  C   UNL     1       2.655   3.122  17.332  0.00  0.00    +0.000 C 
ATOM     21  O   UNL     1       1.731   3.892  17.114  0.00  0.00    +0.000 OA
BRANCH  20  22
ATOM     22  O   UNL     1       2.436   1.862  17.792  0.00  0.00    +0.000 OA
ATOM     23  H   UNL     1       2.526   1.803  18.766  0.00  0.00    +0.000 HD
ENDBRANCH  20  22
ENDBRANCH  19  20
BRANCH  19  24
ATOM     24  C   UNL     1       4.303   4.426  15.885  0.00  0.00    +0.000 C 
BRANCH  24  25
ATOM     25  C   UNL     1       5.510   5.350  16.067  0.00  0.00    +0.000 C 
BRANCH  25  26
ATOM     26  C   UNL     1       6.578   5.122  14.994  0.00  0.00    +0.000 C 
BRANCH  26  27
ATOM     27  C   UNL     1       6.192   3.930  14.116  0.00  0.00    +0.000 C 
BRANCH  27  28
ATOM     28  C   UNL     1       6.977   3.890  12.805  0.00  0.00    +0.000 C 
BRANCH  28  29
ATOM     29  C   UNL     1       6.097   3.349  11.676  0.00  0.00    +0.000 C 
BRANCH  29  31
ATOM     30  C   UNL     1       3.713   3.320  10.875  0.00  0.00    +0.000 C 
ATOM     31  C   UNL     1       4.628   3.278  12.088  0.00  0.00    +0.000 C 
ENDBRANCH  29  31
ENDBRANCH  28  29
ENDBRANCH  27  28
ENDBRANCH  26  27
ENDBRANCH  25  26
ENDBRANCH  24  25
ENDBRANCH  19  24
ENDBRANCH  18  19
ENDBRANCH   1  18
TORSDOF 13
ENDMDL
MODEL 7
REMARK VINA RESULT:      -7.1      3.230      5.608
REMARK  Name = 
REMARK  16 active torsions:
REMARK  status: ('A' for Active; 'I' for Inactive)
REMARK    1  A    between atoms: C_1  and  C_2
REMARK    2  A    between atoms: C_2  and  C_3
REMARK    3  A    between atoms: C_3  and  C_4
REMARK    4  A    between atoms: C_4  and  C_5
REMARK    5  A    between atoms: C_5  and  C_6
REMARK    6  A    between atoms: C_6  and  C_7
REMARK    7  A    between atoms: C_7  and  C_8
REMARK    8  A    between atoms: C_8  and  C_9
REMARK    9  A    between atoms: C_9  and  S_10
REMARK   10  A    between atoms: C_9  and  C_27
REMARK   11  A    between atoms: S_10  and  C_11
REMARK   12  A    between atoms: C_16  and  N_17
REMARK   13  A    between atoms: N_17  and  C_18
REMARK   14  A    between atoms: C_22  and  C_23
REMARK   15  A    between atoms: C_24  and  C_25
REMARK   16  A    between atoms: C_27  and  O_29
REMARK                            x       y       z     vdW  Elec       q    Type
REMARK                         _______ _______ _______ _____ _____    ______ ____
ROOT
ATOM      1  C   UNL     1       4.644   4.958  18.569  0.00  0.00    +0.000 A 
ATOM      2  N   UNL     1       3.857   3.895  18.395  0.00  0.00    +0.000 NA
ATOM      3  C   UNL     1       2.564   4.162  18.208  0.00  0.00    +0.000 A 
ATOM      4 CL   UNL     1       1.568   2.783  17.995  0.00  0.00    +0.000 Cl
ATOM      5  C   UNL     1       2.026   5.417  18.190  0.00  0.00    +0.000 A 
ATOM      6  C   UNL     1       2.905   6.453  18.425  0.00  0.00    +0.000 A 
ATOM      7  N   UNL     1       4.222   6.234  18.587  0.00  0.00    +0.000 NA
ENDROOT
BRANCH   6   8
ATOM      8  N   UNL     1       2.444   7.778  18.473  0.00  0.00    +0.000 N 
ATOM      9  H   UNL     1       3.066   8.410  17.976  0.00  0.00    +0.000 HD
BRANCH   8  10
ATOM     10  C   UNL     1       1.676   8.397  19.491  0.00  0.00    +0.000 A 
ATOM     11  C   UNL     1       1.649   7.859  20.790  0.00  0.00    +0.000 A 
ATOM     12  C   UNL     1       0.804   8.370  21.768  0.00  0.00    +0.000 A 
ATOM     13  C   UNL     1      -0.023   9.444  21.466  0.00  0.00    +0.000 A 
ATOM     14  C   UNL     1       0.011  10.043  20.197  0.00  0.00    +0.000 A 
ATOM     15  C   UNL     1      -0.918  11.196  19.935  0.00  0.00    +0.000 C 
ATOM     16  C   UNL     1       0.888   9.536  19.204  0.00  0.00    +0.000 A 
ATOM     17  C   UNL     1       0.975  10.166  17.836  0.00  0.00    +0.000 C 
ENDBRANCH   8  10
ENDBRANCH   6   8
BRANCH   1  18
ATOM     18  S   UNL     1       6.381   4.600  18.681  0.00  0.00    +0.000 S 
BRANCH  18  19
ATOM     19  C   UNL     1       7.091   5.548  17.276  0.00  0.00    +0.000 C 
BRANCH  19  20
ATOM     20  C   UNL     1       6.623   4.970  15.942  0.00  0.00    +0.000 C 
ATOM     21  O   UNL     1       6.673   5.554  14.869  0.00  0.00    +0.000 OA
BRANCH  20  22
ATOM     22  O   UNL     1       6.227   3.672  16.026  0.00  0.00    +0.000 OA
ATOM     23  H   UNL     1       6.627   3.117  15.324  0.00  0.00    +0.000 HD
ENDBRANCH  20  22
ENDBRANCH  19  20
BRANCH  19  24
ATOM     24  C   UNL     1       6.937   7.074  17.349  0.00  0.00    +0.000 C 
BRANCH  24  25
ATOM     25  C   UNL     1       8.079   7.780  18.085  0.00  0.00    +0.000 C 
BRANCH  25  26
ATOM     26  C   UNL     1       8.198   9.254  17.688  0.00  0.00    +0.000 C 
BRANCH  26  27
ATOM     27  C   UNL     1       9.025  10.011  18.728  0.00  0.00    +0.000 C 
BRANCH  27  28
ATOM     28  C   UNL     1       9.180  11.493  18.386  0.00  0.00    +0.000 C 
BRANCH  28  29
ATOM     29  C   UNL     1      10.521  12.019  18.903  0.00  0.00    +0.000 C 
BRANCH  29  31
ATOM     30  C   UNL     1      11.649  13.276  17.038  0.00  0.00    +0.000 C 
ATOM     31  C   UNL     1      11.600  11.975  17.823  0.00  0.00    +0.000 C 
ENDBRANCH  29  31
ENDBRANCH  28  29
ENDBRANCH  27  28
ENDBRANCH  26  27
ENDBRANCH  25  26
ENDBRANCH  24  25
ENDBRANCH  19  24
ENDBRANCH  18  19
ENDBRANCH   1  18
TORSDOF 13
ENDMDL
MODEL 8
REMARK VINA RESULT:      -7.1      3.105      5.855
REMARK  Name = 
REMARK  16 active torsions:
REMARK  status: ('A' for Active; 'I' for Inactive)
REMARK    1  A    between atoms: C_1  and  C_2
REMARK    2  A    between atoms: C_2  and  C_3
REMARK    3  A    between atoms: C_3  and  C_4
REMARK    4  A    between atoms: C_4  and  C_5
REMARK    5  A    between atoms: C_5  and  C_6
REMARK    6  A    between atoms: C_6  and  C_7
REMARK    7  A    between atoms: C_7  and  C_8
REMARK    8  A    between atoms: C_8  and  C_9
REMARK    9  A    between atoms: C_9  and  S_10
REMARK   10  A    between atoms: C_9  and  C_27
REMARK   11  A    between atoms: S_10  and  C_11
REMARK   12  A    between atoms: C_16  and  N_17
REMARK   13  A    between atoms: N_17  and  C_18
REMARK   14  A    between atoms: C_22  and  C_23
REMARK   15  A    between atoms: C_24  and  C_25
REMARK   16  A    between atoms: C_27  and  O_29
REMARK                            x       y       z     vdW  Elec       q    Type
REMARK                         _______ _______ _______ _____ _____    ______ ____
ROOT
ATOM      1  C   UNL     1       4.639   5.341  18.745  0.00  0.00    +0.000 A 
ATOM      2  N   UNL     1       4.017   4.180  18.531  0.00  0.00    +0.000 NA
ATOM      3  C   UNL     1       2.722   4.271  18.227  0.00  0.00    +0.000 A 
ATOM      4 CL   UNL     1       1.937   2.769  17.963  0.00  0.00    +0.000 Cl
ATOM      5  C   UNL     1       2.027   5.443  18.132  0.00  0.00    +0.000 A 
ATOM      6  C   UNL     1       2.738   6.589  18.416  0.00  0.00    +0.000 A 
ATOM      7  N   UNL     1       4.054   6.550  18.695  0.00  0.00    +0.000 NA
ENDROOT
BRANCH   6   8
ATOM      8  N   UNL     1       2.105   7.843  18.392  0.00  0.00    +0.000 N 
ATOM      9  H   UNL     1       2.494   8.446  17.673  0.00  0.00    +0.000 HD
BRANCH   8  10
ATOM     10  C   UNL     1       1.506   8.536  19.474  0.00  0.00    +0.000 A 
ATOM     11  C   UNL     1       1.425   7.941  20.745  0.00  0.00    +0.000 A 
ATOM     12  C   UNL     1       0.729   8.546  21.784  0.00  0.00    +0.000 A 
ATOM     13  C   UNL     1       0.110   9.771  21.574  0.00  0.00    +0.000 A 
ATOM     14  C   UNL     1       0.211  10.423  20.335  0.00  0.00    +0.000 A 
ATOM     15  C   UNL     1      -0.492  11.743  20.172  0.00  0.00    +0.000 C 
ATOM     16  C   UNL     1       0.939   9.818  19.279  0.00  0.00    +0.000 A 
ATOM     17  C   UNL     1       1.093  10.495  17.940  0.00  0.00    +0.000 C 
ENDBRANCH   8  10
ENDBRANCH   6   8
BRANCH   1  18
ATOM     18  S   UNL     1       6.391   5.218  19.013  0.00  0.00    +0.000 S 
BRANCH  18  19
ATOM     19  C   UNL     1       7.094   5.656  17.373  0.00  0.00    +0.000 C 
BRANCH  19  20
ATOM     20  C   UNL     1       6.332   4.952  16.252  0.00  0.00    +0.000 C 
ATOM     21  O   UNL     1       5.815   5.512  15.296  0.00  0.00    +0.000 OA
BRANCH  20  22
ATOM     22  O   UNL     1       6.362   3.596  16.349  0.00  0.00    +0.000 OA
ATOM     23  H   UNL     1       7.200   3.271  16.741  0.00  0.00    +0.000 HD
ENDBRANCH  20  22
ENDBRANCH  19  20
BRANCH  19  24
ATOM     24  C   UNL     1       7.291   7.156  17.105  0.00  0.00    +0.000 C 
BRANCH  24  25
ATOM     25  C   UNL     1       8.182   7.859  18.133  0.00  0.00    +0.000 C 
BRANCH  25  26
ATOM     26  C   UNL     1       8.145   9.382  17.983  0.00  0.00    +0.000 C 
BRANCH  26  27
ATOM     27  C   UNL     1       9.132  10.029  18.956  0.00  0.00    +0.000 C 
BRANCH  27  28
ATOM     28  C   UNL     1      10.012  11.082  18.284  0.00  0.00    +0.000 C 
BRANCH  28  29
ATOM     29  C   UNL     1      10.321  12.217  19.263  0.00  0.00    +0.000 C 
BRANCH  29  31
ATOM     30  C   UNL     1       9.648  12.656  21.647  0.00  0.00    +0.000 C 
ATOM     31  C   UNL     1      10.388  11.719  20.705  0.00  0.00    +0.000 C 
ENDBRANCH  29  31
ENDBRANCH  28  29
ENDBRANCH  27  28
ENDBRANCH  26  27
ENDBRANCH  25  26
ENDBRANCH  24  25
ENDBRANCH  19  24
ENDBRANCH  18  19
ENDBRANCH   1  18
TORSDOF 13
ENDMDL
MODEL 9
REMARK VINA RESULT:      -7.1      1.285      2.100
REMARK  Name = 
REMARK  16 active torsions:
REMARK  status: ('A' for Active; 'I' for Inactive)
REMARK    1  A    between atoms: C_1  and  C_2
REMARK    2  A    between atoms: C_2  and  C_3
REMARK    3  A    between atoms: C_3  and  C_4
REMARK    4  A    between atoms: C_4  and  C_5
REMARK    5  A    between atoms: C_5  and  C_6
REMARK    6  A    between atoms: C_6  and  C_7
REMARK    7  A    between atoms: C_7  and  C_8
REMARK    8  A    between atoms: C_8  and  C_9
REMARK    9  A    between atoms: C_9  and  S_10
REMARK   10  A    between atoms: C_9  and  C_27
REMARK   11  A    between atoms: S_10  and  C_11
REMARK   12  A    between atoms: C_16  and  N_17
REMARK   13  A    between atoms: N_17  and  C_18
REMARK   14  A    between atoms: C_22  and  C_23
REMARK   15  A    between atoms: C_24  and  C_25
REMARK   16  A    between atoms: C_27  and  O_29
REMARK                            x       y       z     vdW  Elec       q    Type
REMARK                         _______ _______ _______ _____ _____    ______ ____
ROOT
ATOM      1  C   UNL     1       3.819   4.237  17.902  0.00  0.00    +0.000 A 
ATOM      2  N   UNL     1       3.314   3.424  18.831  0.00  0.00    +0.000 NA
ATOM      3  C   UNL     1       2.454   3.987  19.680  0.00  0.00    +0.000 A 
ATOM      4 CL   UNL     1       1.820   2.929  20.871  0.00  0.00    +0.000 Cl
ATOM      5  C   UNL     1       2.083   5.301  19.651  0.00  0.00    +0.000 A 
ATOM      6  C   UNL     1       2.691   6.078  18.688  0.00  0.00    +0.000 A 
ATOM      7  N   UNL     1       3.539   5.547  17.789  0.00  0.00    +0.000 NA
ENDROOT
BRANCH   6   8
ATOM      8  N   UNL     1       2.413   7.452  18.603  0.00  0.00    +0.000 N 
ATOM      9  H   UNL     1       3.120   7.945  18.065  0.00  0.00    +0.000 HD
BRANCH   8  10
ATOM     10  C   UNL     1       1.724   8.260  19.542  0.00  0.00    +0.000 A 
ATOM     11  C   UNL     1       1.471   7.786  20.840  0.00  0.00    +0.000 A 
ATOM     12  C   UNL     1       0.688   8.506  21.734  0.00  0.00    +0.000 A 
ATOM     13  C   UNL     1       0.152   9.727  21.347  0.00  0.00    +0.000 A 
ATOM     14  C   UNL     1       0.423  10.260  20.077  0.00  0.00    +0.000 A 
ATOM     15  C   UNL     1      -0.197  11.583  19.719  0.00  0.00    +0.000 C 
ATOM     16  C   UNL     1       1.241   9.537  19.171  0.00  0.00    +0.000 A 
ATOM     17  C   UNL     1       1.578  10.085  17.807  0.00  0.00    +0.000 C 
ENDBRANCH   8  10
ENDBRANCH   6   8
BRANCH   1  18
ATOM     18  S   UNL     1       4.856   3.448  16.694  0.00  0.00    +0.000 S 
BRANCH  18  19
ATOM     19  C   UNL     1       6.163   4.702  16.385  0.00  0.00    +0.000 C 
BRANCH  19  20
ATOM     20  C   UNL     1       7.128   4.779  17.567  0.00  0.00    +0.000 C 
ATOM     21  O   UNL     1       8.160   4.134  17.672  0.00  0.00    +0.000 OA
BRANCH  20  22
ATOM     22  O   UNL     1       6.790   5.730  18.477  0.00  0.00    +0.000 OA
ATOM     23  H   UNL     1       5.841   5.971  18.426  0.00  0.00    +0.000 HD
ENDBRANCH  20  22
ENDBRANCH  19  20
BRANCH  19  24
ATOM     24  C   UNL     1       6.886   4.600  15.033  0.00  0.00    +0.000 C 
BRANCH  24  25
ATOM     25  C   UNL     1       5.945   4.565  13.826  0.00  0.00    +0.000 C 
BRANCH  25  26
ATOM     26  C   UNL     1       6.450   3.625  12.728  0.00  0.00    +0.000 C 
BRANCH  26  27
ATOM     27  C   UNL     1       5.592   3.778  11.471  0.00  0.00    +0.000 C 
BRANCH  27  28
ATOM     28  C   UNL     1       4.463   2.751  11.406  0.00  0.00    +0.000 C 
BRANCH  28  29
ATOM     29  C   UNL     1       3.183   3.402  10.875  0.00  0.00    +0.000 C 
BRANCH  29  31
ATOM     30  C   UNL     1       2.239   4.892   9.081  0.00  0.00    +0.000 C 
ATOM     31  C   UNL     1       3.373   3.953   9.463  0.00  0.00    +0.000 C 
ENDBRANCH  29  31
ENDBRANCH  28  29
ENDBRANCH  27  28
ENDBRANCH  26  27
ENDBRANCH  25  26
ENDBRANCH  24  25
ENDBRANCH  19  24
ENDBRANCH  18  19
ENDBRANCH   1  18
TORSDOF 13
ENDMDL
