MODEL 1
REMARK VINA RESULT:      -8.6      0.000      0.000
REMARK  Name = 
REMARK  12 active torsions:
REMARK  status: ('A' for Active; 'I' for Inactive)
REMARK    1  A    between atoms: C_1  and  C_2
REMARK    2  A    between atoms: C_2  and  C_3
REMARK    3  A    between atoms: C_3  and  C_4
REMARK    4  A    between atoms: C_4  and  C_5
REMARK    5  A    between atoms: C_5  and  C_6
REMARK    6  A    between atoms: C_8  and  C_9
REMARK    7  A    between atoms: N_11  and  N_12
REMARK    8  A    between atoms: C_13  and  C_14
REMARK    9  A    between atoms: C_13  and  C_15
REMARK   10  A    between atoms: C_18  and  O_19
REMARK   11  A    between atoms: C_20  and  O_21
REMARK   12  A    between atoms: O_21  and  C_22
REMARK                            x       y       z     vdW  Elec       q    Type
REMARK                         _______ _______ _______ _____ _____    ______ ____
ROOT
ATOM      1  C   UNL     1       2.726   7.171  18.757  0.00  0.00    +0.000 C 
ATOM      2  O   UNL     1       2.690   7.635  17.620  0.00  0.00    +0.000 OA
ATOM      3  N   UNL     1       2.025   7.683  19.843  0.00  0.00    +0.000 N 
ATOM      4  H   UNL     1       1.955   7.134  20.687  0.00  0.00    +0.000 HD
ENDROOT
BRANCH   1   7
ATOM      5  C   UNL     1       5.600   4.794  18.565  0.00  0.00    +0.000 A 
ATOM      6  C   UNL     1       4.794   5.907  18.406  0.00  0.00    +0.000 A 
ATOM      7  C   UNL     1       3.521   5.922  18.998  0.00  0.00    +0.000 A 
ATOM      8  C   UNL     1       3.093   4.812  19.782  0.00  0.00    +0.000 A 
ATOM      9  C   UNL     1       1.886   4.708  20.528  0.00  0.00    +0.000 A 
ATOM     10  C   UNL     1       1.549   3.539  21.218  0.00  0.00    +0.000 A 
ATOM     11  C   UNL     1       2.425   2.462  21.216  0.00  0.00    +0.000 A 
ATOM     12  C   UNL     1       3.637   2.574  20.544  0.00  0.00    +0.000 A 
ATOM     13  C   UNL     1       3.986   3.718  19.841  0.00  0.00    +0.000 A 
ATOM     14  N   UNL     1       5.190   3.713  19.259  0.00  0.00    +0.000 NA
BRANCH   5  15
ATOM     15  C   UNL     1       7.000   4.746  18.009  0.00  0.00    +0.000 C 
BRANCH  15  16
ATOM     16  C   UNL     1       7.366   6.033  17.265  0.00  0.00    +0.000 C 
BRANCH  16  17
ATOM     17  C   UNL     1       7.940   7.086  18.215  0.00  0.00    +0.000 C 
BRANCH  17  19
ATOM     18  C   UNL     1       8.630   9.504  18.405  0.00  0.00    +0.000 C 
ATOM     19  C   UNL     1       7.801   8.493  17.631  0.00  0.00    +0.000 C 
ENDBRANCH  17  19
ENDBRANCH  16  17
ENDBRANCH  15  16
ENDBRANCH   5  15
ENDBRANCH   1   7
BRANCH   3  20
ATOM     20  N   UNL     1       1.241   8.796  19.696  0.00  0.00    +0.000 NA
ATOM     21  C   UNL     1       0.735   9.390  20.742  0.00  0.00    +0.000 C 
ATOM     22  C   UNL     1       1.016   8.992  22.179  0.00  0.00    +0.000 C 
BRANCH  21  23
ATOM     23  C   UNL     1      -0.188  10.572  20.538  0.00  0.00    +0.000 A 
ATOM     24  C   UNL     1      -0.589  11.344  21.633  0.00  0.00    +0.000 A 
ATOM     25  C   UNL     1      -1.433  12.450  21.448  0.00  0.00    +0.000 A 
ATOM     26  C   UNL     1      -1.883  12.795  20.168  0.00  0.00    +0.000 A 
ATOM     27  C   UNL     1      -1.491  12.039  19.060  0.00  0.00    +0.000 A 
ATOM     28  C   UNL     1      -0.647  10.934  19.262  0.00  0.00    +0.000 A 
BRANCH  26  29
ATOM     29  O   UNL     1      -2.707  13.877  20.035  0.00  0.00    +0.000 OA
ATOM     30  H   UNL     1      -2.491  14.346  19.213  0.00  0.00    +0.000 HD
ENDBRANCH  26  29
BRANCH  27  31
ATOM     31  O   UNL     1      -1.820  12.215  17.742  0.00  0.00    +0.000 OA
ATOM     32  C   UNL     1      -2.456  11.147  17.055  0.00  0.00    +0.000 C 
ENDBRANCH  27  31
ENDBRANCH  21  23
ENDBRANCH   3  20
TORSDOF 9
ENDMDL
MODEL 2
REMARK VINA RESULT:      -8.6      1.022      1.966
REMARK  Name = 
REMARK  12 active torsions:
REMARK  status: ('A' for Active; 'I' for Inactive)
REMARK    1  A    between atoms: C_1  and  C_2
REMARK    2  A    between atoms: C_2  and  C_3
REMARK    3  A    between atoms: C_3  and  C_4
REMARK    4  A    between atoms: C_4  and  C_5
REMARK    5  A    between atoms: C_5  and  C_6
REMARK    6  A    between atoms: C_8  and  C_9
REMARK    7  A    between atoms: N_11  and  N_12
REMARK    8  A    between atoms: C_13  and  C_14
REMARK    9  A    between atoms: C_13  and  C_15
REMARK   10  A    between atoms: C_18  and  O_19
REMARK   11  A    between atoms: C_20  and  O_21
REMARK   12  A    between atoms: O_21  and  C_22
REMARK                            x       y       z     vdW  Elec       q    Type
REMARK                         _______ _______ _______ _____ _____    ______ ____
ROOT
ATOM      1  C   UNL     1       2.321   7.515  18.606  0.00  0.00    +0.000 C 
ATOM      2  O   UNL     1       1.967   7.922  17.503  0.00  0.00    +0.000 OA
ATOM      3  N   UNL     1       1.994   8.119  19.814  0.00  0.00    +0.000 N 
ATOM      4  H   UNL     1       2.156   7.618  20.676  0.00  0.00    +0.000 HD
ENDROOT
BRANCH   1   7
ATOM      5  C   UNL     1       5.057   5.072  17.905  0.00  0.00    +0.000 A 
ATOM      6  C   UNL     1       4.273   6.211  17.907  0.00  0.00    +0.000 A 
ATOM      7  C   UNL     1       3.103   6.237  18.683  0.00  0.00    +0.000 A 
ATOM      8  C   UNL     1       2.761   5.109  19.483  0.00  0.00    +0.000 A 
ATOM      9  C   UNL     1       1.675   5.009  20.398  0.00  0.00    +0.000 A 
ATOM     10  C   UNL     1       1.408   3.823  21.090  0.00  0.00    +0.000 A 
ATOM     11  C   UNL     1       2.239   2.724  20.921  0.00  0.00    +0.000 A 
ATOM     12  C   UNL     1       3.340   2.830  20.079  0.00  0.00    +0.000 A 
ATOM     13  C   UNL     1       3.617   3.991  19.372  0.00  0.00    +0.000 A 
ATOM     14  N   UNL     1       4.721   3.976  18.616  0.00  0.00    +0.000 NA
BRANCH   5  15
ATOM     15  C   UNL     1       6.357   5.008  17.145  0.00  0.00    +0.000 C 
BRANCH  15  16
ATOM     16  C   UNL     1       7.570   5.053  18.079  0.00  0.00    +0.000 C 
BRANCH  16  17
ATOM     17  C   UNL     1       7.796   6.460  18.637  0.00  0.00    +0.000 C 
BRANCH  17  19
ATOM     18  C   UNL     1       8.212   8.863  17.995  0.00  0.00    +0.000 C 
ATOM     19  C   UNL     1       7.673   7.517  17.539  0.00  0.00    +0.000 C 
ENDBRANCH  17  19
ENDBRANCH  16  17
ENDBRANCH  15  16
ENDBRANCH   5  15
ENDBRANCH   1   7
BRANCH   3  20
ATOM     20  N   UNL     1       1.245   9.266  19.833  0.00  0.00    +0.000 NA
ATOM     21  C   UNL     1       0.233   9.379  20.648  0.00  0.00    +0.000 C 
ATOM     22  C   UNL     1      -0.161   8.344  21.684  0.00  0.00    +0.000 C 
BRANCH  21  23
ATOM     23  C   UNL     1      -0.618  10.630  20.589  0.00  0.00    +0.000 A 
ATOM     24  C   UNL     1      -1.083  11.104  19.358  0.00  0.00    +0.000 A 
ATOM     25  C   UNL     1      -1.883  12.255  19.299  0.00  0.00    +0.000 A 
ATOM     26  C   UNL     1      -2.227  12.943  20.469  0.00  0.00    +0.000 A 
ATOM     27  C   UNL     1      -1.776  12.485  21.709  0.00  0.00    +0.000 A 
ATOM     28  C   UNL     1      -0.974  11.332  21.752  0.00  0.00    +0.000 A 
BRANCH  26  29
ATOM     29  O   UNL     1      -3.004  14.062  20.363  0.00  0.00    +0.000 OA
ATOM     30  H   UNL     1      -3.016  14.526  21.217  0.00  0.00    +0.000 HD
ENDBRANCH  26  29
BRANCH  27  31
ATOM     31  O   UNL     1      -2.003  13.013  22.953  0.00  0.00    +0.000 OA
ATOM     32  C   UNL     1      -1.174  14.077  23.398  0.00  0.00    +0.000 C 
ENDBRANCH  27  31
ENDBRANCH  21  23
ENDBRANCH   3  20
TORSDOF 9
ENDMDL
MODEL 3
REMARK VINA RESULT:      -8.5      1.206      1.943
REMARK  Name = 
REMARK  12 active torsions:
REMARK  status: ('A' for Active; 'I' for Inactive)
REMARK    1  A    between atoms: C_1  and  C_2
REMARK    2  A    between atoms: C_2  and  C_3
REMARK    3  A    between atoms: C_3  and  C_4
REMARK    4  A    between atoms: C_4  and  C_5
REMARK    5  A    between atoms: C_5  and  C_6
REMARK    6  A    between atoms: C_8  and  C_9
REMARK    7  A    between atoms: N_11  and  N_12
REMARK    8  A    between atoms: C_13  and  C_14
REMARK    9  A    between atoms: C_13  and  C_15
REMARK   10  A    between atoms: C_18  and  O_19
REMARK   11  A    between atoms: C_20  and  O_21
REMARK   12  A    between atoms: O_21  and  C_22
REMARK                            x       y       z     vdW  Elec       q    Type
REMARK                         _______ _______ _______ _____ _____    ______ ____
ROOT
ATOM      1  C   UNL     1       2.556   7.207  18.703  0.00  0.00    +0.000 C 
ATOM      2  O   UNL     1       2.354   7.577  17.550  0.00  0.00    +0.000 OA
ATOM      3  N   UNL     1       2.040   7.827  19.835  0.00  0.00    +0.000 N 
ATOM      4  H   UNL     1       2.091   7.351  20.724  0.00  0.00    +0.000 HD
ENDROOT
BRANCH   1   7
ATOM      5  C   UNL     1       5.432   4.836  18.456  0.00  0.00    +0.000 A 
ATOM      6  C   UNL     1       4.622   5.948  18.314  0.00  0.00    +0.000 A 
ATOM      7  C   UNL     1       3.358   5.958  18.926  0.00  0.00    +0.000 A 
ATOM      8  C   UNL     1       2.945   4.845  19.712  0.00  0.00    +0.000 A 
ATOM      9  C   UNL     1       1.749   4.735  20.477  0.00  0.00    +0.000 A 
ATOM     10  C   UNL     1       1.426   3.562  21.168  0.00  0.00    +0.000 A 
ATOM     11  C   UNL     1       2.304   2.487  21.148  0.00  0.00    +0.000 A 
ATOM     12  C   UNL     1       3.505   2.604  20.457  0.00  0.00    +0.000 A 
ATOM     13  C   UNL     1       3.840   3.752  19.753  0.00  0.00    +0.000 A 
ATOM     14  N   UNL     1       5.036   3.752  19.152  0.00  0.00    +0.000 NA
BRANCH   5  15
ATOM     15  C   UNL     1       6.823   4.793  17.878  0.00  0.00    +0.000 C 
BRANCH  15  16
ATOM     16  C   UNL     1       6.940   5.632  16.602  0.00  0.00    +0.000 C 
BRANCH  16  17
ATOM     17  C   UNL     1       7.115   4.750  15.365  0.00  0.00    +0.000 C 
BRANCH  17  19
ATOM     18  C   UNL     1       5.940   3.765  13.363  0.00  0.00    +0.000 C 
ATOM     19  C   UNL     1       5.767   4.425  14.721  0.00  0.00    +0.000 C 
ENDBRANCH  17  19
ENDBRANCH  16  17
ENDBRANCH  15  16
ENDBRANCH   5  15
ENDBRANCH   1   7
BRANCH   3  20
ATOM     20  N   UNL     1       1.262   8.947  19.715  0.00  0.00    +0.000 NA
ATOM     21  C   UNL     1       0.766   9.523  20.775  0.00  0.00    +0.000 C 
ATOM     22  C   UNL     1       1.052   9.097  22.202  0.00  0.00    +0.000 C 
BRANCH  21  23
ATOM     23  C   UNL     1      -0.151  10.715  20.599  0.00  0.00    +0.000 A 
ATOM     24  C   UNL     1      -0.091  11.783  21.499  0.00  0.00    +0.000 A 
ATOM     25  C   UNL     1      -0.929  12.896  21.333  0.00  0.00    +0.000 A 
ATOM     26  C   UNL     1      -1.834  12.953  20.266  0.00  0.00    +0.000 A 
ATOM     27  C   UNL     1      -1.907  11.898  19.353  0.00  0.00    +0.000 A 
ATOM     28  C   UNL     1      -1.063  10.790  19.533  0.00  0.00    +0.000 A 
BRANCH  26  29
ATOM     29  O   UNL     1      -2.633  14.055  20.146  0.00  0.00    +0.000 OA
ATOM     30  H   UNL     1      -3.487  13.791  19.765  0.00  0.00    +0.000 HD
ENDBRANCH  26  29
BRANCH  27  31
ATOM     31  O   UNL     1      -2.716  11.769  18.255  0.00  0.00    +0.000 OA
ATOM     32  C   UNL     1      -2.218  11.064  17.127  0.00  0.00    +0.000 C 
ENDBRANCH  27  31
ENDBRANCH  21  23
ENDBRANCH   3  20
TORSDOF 9
ENDMDL
MODEL 4
REMARK VINA RESULT:      -8.4      1.721      2.460
REMARK  Name = 
REMARK  12 active torsions:
REMARK  status: ('A' for Active; 'I' for Inactive)
REMARK    1  A    between atoms: C_1  and  C_2
REMARK    2  A    between atoms: C_2  and  C_3
REMARK    3  A    between atoms: C_3  and  C_4
REMARK    4  A    between atoms: C_4  and  C_5
REMARK    5  A    between atoms: C_5  and  C_6
REMARK    6  A    between atoms: C_8  and  C_9
REMARK    7  A    between atoms: N_11  and  N_12
REMARK    8  A    between atoms: C_13  and  C_14
REMARK    9  A    between atoms: C_13  and  C_15
REMARK   10  A    between atoms: C_18  and  O_19
REMARK   11  A    between atoms: C_20  and  O_21
REMARK   12  A    between atoms: O_21  and  C_22
REMARK                            x       y       z     vdW  Elec       q    Type
REMARK                         _______ _______ _______ _____ _____    ______ ____
ROOT
ATOM      1  C   UNL     1       2.651   7.899  17.965  0.00  0.00    +0.000 C 
ATOM      2  O   UNL     1       2.518   8.624  16.983  0.00  0.00    +0.000 OA
ATOM      3  N   UNL     1       1.973   8.064  19.167  0.00  0.00    +0.000 N 
ATOM      4  H   UNL     1       1.990   7.320  19.849  0.00  0.00    +0.000 HD
ENDROOT
BRANCH   1   7
ATOM      5  C   UNL     1       5.830   5.962  17.666  0.00  0.00    +0.000 A 
ATOM      6  C   UNL     1       4.921   6.998  17.775  0.00  0.00    +0.000 A 
ATOM      7  C   UNL     1       3.551   6.703  17.859  0.00  0.00    +0.000 A 
ATOM      8  C   UNL     1       3.120   5.345  17.869  0.00  0.00    +0.000 A 
ATOM      9  C   UNL     1       1.790   4.872  18.049  0.00  0.00    +0.000 A 
ATOM     10  C   UNL     1       1.482   3.509  17.984  0.00  0.00    +0.000 A 
ATOM     11  C   UNL     1       2.496   2.583  17.781  0.00  0.00    +0.000 A 
ATOM     12  C   UNL     1       3.808   3.027  17.667  0.00  0.00    +0.000 A 
ATOM     13  C   UNL     1       4.136   4.375  17.715  0.00  0.00    +0.000 A 
ATOM     14  N   UNL     1       5.437   4.673  17.621  0.00  0.00    +0.000 NA
BRANCH   5  15
ATOM     15  C   UNL     1       7.316   6.213  17.639  0.00  0.00    +0.000 C 
BRANCH  15  16
ATOM     16  C   UNL     1       7.644   7.681  17.351  0.00  0.00    +0.000 C 
BRANCH  16  17
ATOM     17  C   UNL     1       8.460   8.306  18.485  0.00  0.00    +0.000 C 
BRANCH  17  19
ATOM     18  C   UNL     1       9.423  10.445  19.412  0.00  0.00    +0.000 C 
ATOM     19  C   UNL     1       8.612   9.815  18.291  0.00  0.00    +0.000 C 
ENDBRANCH  17  19
ENDBRANCH  16  17
ENDBRANCH  15  16
ENDBRANCH   5  15
ENDBRANCH   1   7
BRANCH   3  20
ATOM     20  N   UNL     1       1.099   9.106  19.330  0.00  0.00    +0.000 NA
ATOM     21  C   UNL     1       0.705   9.457  20.523  0.00  0.00    +0.000 C 
ATOM     22  C   UNL     1       1.212   8.844  21.814  0.00  0.00    +0.000 C 
BRANCH  21  23
ATOM     23  C   UNL     1      -0.319  10.564  20.660  0.00  0.00    +0.000 A 
ATOM     24  C   UNL     1      -1.044  10.989  19.543  0.00  0.00    +0.000 A 
ATOM     25  C   UNL     1      -2.004  12.005  19.668  0.00  0.00    +0.000 A 
ATOM     26  C   UNL     1      -2.249  12.604  20.909  0.00  0.00    +0.000 A 
ATOM     27  C   UNL     1      -1.538  12.192  22.038  0.00  0.00    +0.000 A 
ATOM     28  C   UNL     1      -0.579  11.174  21.898  0.00  0.00    +0.000 A 
BRANCH  26  29
ATOM     29  O   UNL     1      -3.189  13.593  20.982  0.00  0.00    +0.000 OA
ATOM     30  H   UNL     1      -3.232  14.058  20.130  0.00  0.00    +0.000 HD
ENDBRANCH  26  29
BRANCH  27  31
ATOM     31  O   UNL     1      -1.633  12.649  23.326  0.00  0.00    +0.000 OA
ATOM     32  C   UNL     1      -1.180  13.964  23.613  0.00  0.00    +0.000 C 
ENDBRANCH  27  31
ENDBRANCH  21  23
ENDBRANCH   3  20
TORSDOF 9
ENDMDL
MODEL 5
REMARK VINA RESULT:      -8.4      1.559      2.269
REMARK  Name = 
REMARK  12 active torsions:
REMARK  status: ('A' for Active; 'I' for Inactive)
REMARK    1  A    between atoms: C_1  and  C_2
REMARK    2  A    between atoms: C_2  and  C_3
REMARK    3  A    between atoms: C_3  and  C_4
REMARK    4  A    between atoms: C_4  and  C_5
REMARK    5  A    between atoms: C_5  and  C_6
REMARK    6  A    between atoms: C_8  and  C_9
REMARK    7  A    between atoms: N_11  and  N_12
REMARK    8  A    between atoms: C_13  and  C_14
REMARK    9  A    between atoms: C_13  and  C_15
REMARK   10  A    between atoms: C_18  and  O_19
REMARK   11  A    between atoms: C_20  and  O_21
REMARK   12  A    between atoms: O_21  and  C_22
REMARK                            x       y       z     vdW  Elec       q    Type
REMARK                         _______ _______ _______ _____ _____    ______ ____
ROOT
ATOM      1  C   UNL     1       2.662   7.356  18.318  0.00  0.00    +0.000 C 
ATOM      2  O   UNL     1       2.837   8.111  17.365  0.00  0.00    +0.000 OA
ATOM      3  N   UNL     1       2.037   7.715  19.506  0.00  0.00    +0.000 N 
ATOM      4  H   UNL     1       1.759   6.993  20.154  0.00  0.00    +0.000 HD
ENDROOT
BRANCH   1   7
ATOM      5  C   UNL     1       4.555   4.396  17.052  0.00  0.00    +0.000 A 
ATOM      6  C   UNL     1       4.105   5.689  17.252  0.00  0.00    +0.000 A 
ATOM      7  C   UNL     1       3.081   5.922  18.184  0.00  0.00    +0.000 A 
ATOM      8  C   UNL     1       2.548   4.835  18.935  0.00  0.00    +0.000 A 
ATOM      9  C   UNL     1       1.587   4.910  19.982  0.00  0.00    +0.000 A 
ATOM     10  C   UNL     1       1.097   3.761  20.611  0.00  0.00    +0.000 A 
ATOM     11  C   UNL     1       1.583   2.514  20.242  0.00  0.00    +0.000 A 
ATOM     12  C   UNL     1       2.569   2.432  19.265  0.00  0.00    +0.000 A 
ATOM     13  C   UNL     1       3.059   3.556  18.617  0.00  0.00    +0.000 A 
ATOM     14  N   UNL     1       4.025   3.349  17.716  0.00  0.00    +0.000 NA
BRANCH   5  15
ATOM     15  C   UNL     1       5.696   4.092  16.115  0.00  0.00    +0.000 C 
BRANCH  15  16
ATOM     16  C   UNL     1       6.897   5.010  16.357  0.00  0.00    +0.000 C 
BRANCH  16  17
ATOM     17  C   UNL     1       7.631   4.644  17.649  0.00  0.00    +0.000 C 
BRANCH  17  19
ATOM     18  C   UNL     1       7.712   7.145  17.963  0.00  0.00    +0.000 C 
ATOM     19  C   UNL     1       7.593   5.796  18.654  0.00  0.00    +0.000 C 
ENDBRANCH  17  19
ENDBRANCH  16  17
ENDBRANCH  15  16
ENDBRANCH   5  15
ENDBRANCH   1   7
BRANCH   3  20
ATOM     20  N   UNL     1       1.585   8.995  19.690  0.00  0.00    +0.000 NA
ATOM     21  C   UNL     1       0.675   9.250  20.589  0.00  0.00    +0.000 C 
ATOM     22  C   UNL     1       0.103   8.228  21.553  0.00  0.00    +0.000 C 
BRANCH  21  23
ATOM     23  C   UNL     1       0.145  10.663  20.714  0.00  0.00    +0.000 A 
ATOM     24  C   UNL     1       0.241  11.545  19.633  0.00  0.00    +0.000 A 
ATOM     25  C   UNL     1      -0.261  12.851  19.738  0.00  0.00    +0.000 A 
ATOM     26  C   UNL     1      -0.865  13.287  20.924  0.00  0.00    +0.000 A 
ATOM     27  C   UNL     1      -0.976  12.421  22.014  0.00  0.00    +0.000 A 
ATOM     28  C   UNL     1      -0.467  11.116  21.894  0.00  0.00    +0.000 A 
BRANCH  26  29
ATOM     29  O   UNL     1      -1.336  14.569  20.983  0.00  0.00    +0.000 OA
ATOM     30  H   UNL     1      -2.047  14.619  21.643  0.00  0.00    +0.000 HD
ENDBRANCH  26  29
BRANCH  27  31
ATOM     31  O   UNL     1      -1.529  12.657  23.245  0.00  0.00    +0.000 OA
ATOM     32  C   UNL     1      -2.901  12.348  23.441  0.00  0.00    +0.000 C 
ENDBRANCH  27  31
ENDBRANCH  21  23
ENDBRANCH   3  20
TORSDOF 9
ENDMDL
MODEL 6
REMARK VINA RESULT:      -8.4      1.304      4.151
REMARK  Name = 
REMARK  12 active torsions:
REMARK  status: ('A' for Active; 'I' for Inactive)
REMARK    1  A    between atoms: C_1  and  C_2
REMARK    2  A    between atoms: C_2  and  C_3
REMARK    3  A    between atoms: C_3  and  C_4
REMARK    4  A    between atoms: C_4  and  C_5
REMARK    5  A    between atoms: C_5  and  C_6
REMARK    6  A    between atoms: C_8  and  C_9
REMARK    7  A    between atoms: N_11  and  N_12
REMARK    8  A    between atoms: C_13  and  C_14
REMARK    9  A    between atoms: C_13  and  C_15
REMARK   10  A    between atoms: C_18  and  O_19
REMARK   11  A    between atoms: C_20  and  O_21
REMARK   12  A    between atoms: O_21  and  C_22
REMARK                            x       y       z     vdW  Elec       q    Type
REMARK                         _______ _______ _______ _____ _____    ______ ____
ROOT
ATOM      1  C   UNL     1       2.682   7.644  18.079  0.00  0.00    +0.000 C 
ATOM      2  O   UNL     1       2.629   8.434  17.140  0.00  0.00    +0.000 OA
ATOM      3  N   UNL     1       2.083   7.846  19.317  0.00  0.00    +0.000 N 
ATOM      4  H   UNL     1       2.008   7.072  19.960  0.00  0.00    +0.000 HD
ENDROOT
BRANCH   1   7
ATOM      5  C   UNL     1       3.088   3.951  17.696  0.00  0.00    +0.000 A 
ATOM      6  C   UNL     1       2.537   5.208  17.869  0.00  0.00    +0.000 A 
ATOM      7  C   UNL     1       3.379   6.331  17.875  0.00  0.00    +0.000 A 
ATOM      8  C   UNL     1       4.778   6.166  17.666  0.00  0.00    +0.000 A 
ATOM      9  C   UNL     1       5.751   7.198  17.542  0.00  0.00    +0.000 A 
ATOM     10  C   UNL     1       7.111   6.908  17.393  0.00  0.00    +0.000 A 
ATOM     11  C   UNL     1       7.531   5.587  17.321  0.00  0.00    +0.000 A 
ATOM     12  C   UNL     1       6.583   4.571  17.376  0.00  0.00    +0.000 A 
ATOM     13  C   UNL     1       5.230   4.833  17.538  0.00  0.00    +0.000 A 
ATOM     14  N   UNL     1       4.416   3.772  17.550  0.00  0.00    +0.000 NA
BRANCH   5  15
ATOM     15  C   UNL     1       2.229   2.715  17.615  0.00  0.00    +0.000 C 
BRANCH  15  16
ATOM     16  C   UNL     1       2.046   2.054  18.984  0.00  0.00    +0.000 C 
BRANCH  16  17
ATOM     17  C   UNL     1       0.926   2.722  19.784  0.00  0.00    +0.000 C 
BRANCH  17  19
ATOM     18  C   UNL     1       2.161   4.289  21.326  0.00  0.00    +0.000 C 
ATOM     19  C   UNL     1       1.364   2.999  21.223  0.00  0.00    +0.000 C 
ENDBRANCH  17  19
ENDBRANCH  16  17
ENDBRANCH  15  16
ENDBRANCH   5  15
ENDBRANCH   1   7
BRANCH   3  20
ATOM     20  N   UNL     1       1.389   9.000  19.569  0.00  0.00    +0.000 NA
ATOM     21  C   UNL     1       0.625   9.094  20.622  0.00  0.00    +0.000 C 
ATOM     22  C   UNL     1       0.490   8.024  21.688  0.00  0.00    +0.000 C 
BRANCH  21  23
ATOM     23  C   UNL     1      -0.184  10.357  20.828  0.00  0.00    +0.000 A 
ATOM     24  C   UNL     1      -0.151  11.016  22.061  0.00  0.00    +0.000 A 
ATOM     25  C   UNL     1      -0.888  12.194  22.254  0.00  0.00    +0.000 A 
ATOM     26  C   UNL     1      -1.664  12.725  21.216  0.00  0.00    +0.000 A 
ATOM     27  C   UNL     1      -1.708  12.085  19.976  0.00  0.00    +0.000 A 
ATOM     28  C   UNL     1      -0.966  10.905  19.799  0.00  0.00    +0.000 A 
BRANCH  26  29
ATOM     29  O   UNL     1      -2.369  13.872  21.451  0.00  0.00    +0.000 OA
ATOM     30  H   UNL     1      -2.750  13.838  22.344  0.00  0.00    +0.000 HD
ENDBRANCH  26  29
BRANCH  27  31
ATOM     31  O   UNL     1      -2.399  12.445  18.849  0.00  0.00    +0.000 OA
ATOM     32  C   UNL     1      -3.253  11.484  18.243  0.00  0.00    +0.000 C 
ENDBRANCH  27  31
ENDBRANCH  21  23
ENDBRANCH   3  20
TORSDOF 9
ENDMDL
MODEL 7
REMARK VINA RESULT:      -8.3      1.420      2.607
REMARK  Name = 
REMARK  12 active torsions:
REMARK  status: ('A' for Active; 'I' for Inactive)
REMARK    1  A    between atoms: C_1  and  C_2
REMARK    2  A    between atoms: C_2  and  C_3
REMARK    3  A    between atoms: C_3  and  C_4
REMARK    4  A    between atoms: C_4  and  C_5
REMARK    5  A    between atoms: C_5  and  C_6
REMARK    6  A    between atoms: C_8  and  C_9
REMARK    7  A    between atoms: N_11  and  N_12
REMARK    8  A    between atoms: C_13  and  C_14
REMARK    9  A    between atoms: C_13  and  C_15
REMARK   10  A    between atoms: C_18  and  O_19
REMARK   11  A    between atoms: C_20  and  O_21
REMARK   12  A    between atoms: O_21  and  C_22
REMARK                            x       y       z     vdW  Elec       q    Type
REMARK                         _______ _______ _______ _____ _____    ______ ____
ROOT
ATOM      1  C   UNL     1       2.466   7.368  18.791  0.00  0.00    +0.000 C 
ATOM      2  O   UNL     1       2.269   7.770  17.648  0.00  0.00    +0.000 OA
ATOM      3  N   UNL     1       1.974   7.977  19.940  0.00  0.00    +0.000 N 
ATOM      4  H   UNL     1       2.015   7.480  20.817  0.00  0.00    +0.000 HD
ENDROOT
BRANCH   1   7
ATOM      5  C   UNL     1       5.328   4.975  18.603  0.00  0.00    +0.000 A 
ATOM      6  C   UNL     1       4.544   6.108  18.482  0.00  0.00    +0.000 A 
ATOM      7  C   UNL     1       3.233   6.092  18.982  0.00  0.00    +0.000 A 
ATOM      8  C   UNL     1       2.741   4.927  19.638  0.00  0.00    +0.000 A 
ATOM      9  C   UNL     1       1.483   4.779  20.286  0.00  0.00    +0.000 A 
ATOM     10  C   UNL     1       1.089   3.561  20.850  0.00  0.00    +0.000 A 
ATOM     11  C   UNL     1       1.953   2.475  20.820  0.00  0.00    +0.000 A 
ATOM     12  C   UNL     1       3.211   2.626  20.246  0.00  0.00    +0.000 A 
ATOM     13  C   UNL     1       3.618   3.820  19.668  0.00  0.00    +0.000 A 
ATOM     14  N   UNL     1       4.861   3.846  19.174  0.00  0.00    +0.000 NA
BRANCH   5  15
ATOM     15  C   UNL     1       6.764   4.954  18.146  0.00  0.00    +0.000 C 
BRANCH  15  16
ATOM     16  C   UNL     1       6.911   5.435  16.699  0.00  0.00    +0.000 C 
BRANCH  16  17
ATOM     17  C   UNL     1       6.764   4.280  15.706  0.00  0.00    +0.000 C 
BRANCH  17  19
ATOM     18  C   UNL     1       6.118   3.770  13.323  0.00  0.00    +0.000 C 
ATOM     19  C   UNL     1       6.736   4.790  14.265  0.00  0.00    +0.000 C 
ENDBRANCH  17  19
ENDBRANCH  16  17
ENDBRANCH  15  16
ENDBRANCH   5  15
ENDBRANCH   1   7
BRANCH   3  20
ATOM     20  N   UNL     1       1.228   9.122  19.849  0.00  0.00    +0.000 NA
ATOM     21  C   UNL     1       0.253   9.343  20.687  0.00  0.00    +0.000 C 
ATOM     22  C   UNL     1      -0.095   8.447  21.861  0.00  0.00    +0.000 C 
BRANCH  21  23
ATOM     23  C   UNL     1      -0.598  10.582  20.510  0.00  0.00    +0.000 A 
ATOM     24  C   UNL     1      -1.009  10.973  19.233  0.00  0.00    +0.000 A 
ATOM     25  C   UNL     1      -1.810  12.113  19.064  0.00  0.00    +0.000 A 
ATOM     26  C   UNL     1      -2.208  12.872  20.171  0.00  0.00    +0.000 A 
ATOM     27  C   UNL     1      -1.811  12.497  21.457  0.00  0.00    +0.000 A 
ATOM     28  C   UNL     1      -1.009  11.354  21.609  0.00  0.00    +0.000 A 
BRANCH  26  29
ATOM     29  O   UNL     1      -2.984  13.977  19.960  0.00  0.00    +0.000 OA
ATOM     30  H   UNL     1      -3.835  13.704  19.580  0.00  0.00    +0.000 HD
ENDBRANCH  26  29
BRANCH  27  31
ATOM     31  O   UNL     1      -2.096  13.102  22.653  0.00  0.00    +0.000 OA
ATOM     32  C   UNL     1      -3.296  12.744  23.324  0.00  0.00    +0.000 C 
ENDBRANCH  27  31
ENDBRANCH  21  23
ENDBRANCH   3  20
TORSDOF 9
ENDMDL
MODEL 8
REMARK VINA RESULT:      -8.2      1.405      4.463
REMARK  Name = 
REMARK  12 active torsions:
REMARK  status: ('A' for Active; 'I' for Inactive)
REMARK    1  A    between atoms: C_1  and  C_2
REMARK    2  A    between atoms: C_2  and  C_3
REMARK    3  A    between atoms: C_3  and  C_4
REMARK    4  A    between atoms: C_4  and  C_5
REMARK    5  A    between atoms: C_5  and  C_6
REMARK    6  A    between atoms: C_8  and  C_9
REMARK    7  A    between atoms: N_11  and  N_12
REMARK    8  A    between atoms: C_13  and  C_14
REMARK    9  A    between atoms: C_13  and  C_15
REMARK   10  A    between atoms: C_18  and  O_19
REMARK   11  A    between atoms: C_20  and  O_21
REMARK   12  A    between atoms: O_21  and  C_22
REMARK                            x       y       z     vdW  Elec       q    Type
REMARK                         _______ _______ _______ _____ _____    ______ ____
ROOT
ATOM      1  C   UNL     1       2.714   7.651  17.946  0.00  0.00    +0.000 C 
ATOM      2  O   UNL     1       2.781   8.368  16.951  0.00  0.00    +0.000 OA
ATOM      3  N   UNL     1       2.008   7.967  19.102  0.00  0.00    +0.000 N 
ATOM      4  H   UNL     1       1.842   7.247  19.790  0.00  0.00    +0.000 HD
ENDROOT
BRANCH   1   7
ATOM      5  C   UNL     1       3.008   3.929  17.863  0.00  0.00    +0.000 A 
ATOM      6  C   UNL     1       2.493   5.212  17.889  0.00  0.00    +0.000 A 
ATOM      7  C   UNL     1       3.375   6.305  17.908  0.00  0.00    +0.000 A 
ATOM      8  C   UNL     1       4.780   6.079  17.861  0.00  0.00    +0.000 A 
ATOM      9  C   UNL     1       5.801   7.067  17.772  0.00  0.00    +0.000 A 
ATOM     10  C   UNL     1       7.157   6.722  17.789  0.00  0.00    +0.000 A 
ATOM     11  C   UNL     1       7.528   5.386  17.852  0.00  0.00    +0.000 A 
ATOM     12  C   UNL     1       6.539   4.409  17.876  0.00  0.00    +0.000 A 
ATOM     13  C   UNL     1       5.189   4.727  17.874  0.00  0.00    +0.000 A 
ATOM     14  N   UNL     1       4.336   3.696  17.871  0.00  0.00    +0.000 NA
BRANCH   5  15
ATOM     15  C   UNL     1       2.113   2.720  17.775  0.00  0.00    +0.000 C 
BRANCH  15  16
ATOM     16  C   UNL     1       1.754   2.171  19.159  0.00  0.00    +0.000 C 
BRANCH  16  17
ATOM     17  C   UNL     1       0.814   3.116  19.910  0.00  0.00    +0.000 C 
BRANCH  17  19
ATOM     18  C   UNL     1       2.666   2.775  21.587  0.00  0.00    +0.000 C 
ATOM     19  C   UNL     1       1.441   3.596  21.219  0.00  0.00    +0.000 C 
ENDBRANCH  17  19
ENDBRANCH  16  17
ENDBRANCH  15  16
ENDBRANCH   5  15
ENDBRANCH   1   7
BRANCH   3  20
ATOM     20  N   UNL     1       1.340   9.159  19.200  0.00  0.00    +0.000 NA
ATOM     21  C   UNL     1       0.602   9.418  20.243  0.00  0.00    +0.000 C 
ATOM     22  C   UNL     1       0.474   8.514  21.455  0.00  0.00    +0.000 C 
BRANCH  21  23
ATOM     23  C   UNL     1      -0.181  10.712  20.283  0.00  0.00    +0.000 A 
ATOM     24  C   UNL     1      -1.184  10.954  19.340  0.00  0.00    +0.000 A 
ATOM     25  C   UNL     1      -1.923  12.146  19.381  0.00  0.00    +0.000 A 
ATOM     26  C   UNL     1      -1.666  13.108  20.365  0.00  0.00    +0.000 A 
ATOM     27  C   UNL     1      -0.671  12.885  21.319  0.00  0.00    +0.000 A 
ATOM     28  C   UNL     1       0.061  11.687  21.265  0.00  0.00    +0.000 A 
BRANCH  26  29
ATOM     29  O   UNL     1      -2.407  14.257  20.364  0.00  0.00    +0.000 OA
ATOM     30  H   UNL     1      -3.273  14.080  20.767  0.00  0.00    +0.000 HD
ENDBRANCH  26  29
BRANCH  27  31
ATOM     31  O   UNL     1      -0.275  13.695  22.351  0.00  0.00    +0.000 OA
ATOM     32  C   UNL     1      -1.148  13.852  23.462  0.00  0.00    +0.000 C 
ENDBRANCH  27  31
ENDBRANCH  21  23
ENDBRANCH   3  20
TORSDOF 9
ENDMDL
MODEL 9
REMARK VINA RESULT:      -8.2      1.327      2.186
REMARK  Name = 
REMARK  12 active torsions:
REMARK  status: ('A' for Active; 'I' for Inactive)
REMARK    1  A    between atoms: C_1  and  C_2
REMARK    2  A    between atoms: C_2  and  C_3
REMARK    3  A    between atoms: C_3  and  C_4
REMARK    4  A    between atoms: C_4  and  C_5
REMARK    5  A    between atoms: C_5  and  C_6
REMARK    6  A    between atoms: C_8  and  C_9
REMARK    7  A    between atoms: N_11  and  N_12
REMARK    8  A    between atoms: C_13  and  C_14
REMARK    9  A    between atoms: C_13  and  C_15
REMARK   10  A    between atoms: C_18  and  O_19
REMARK   11  A    between atoms: C_20  and  O_21
REMARK   12  A    between atoms: O_21  and  C_22
REMARK                            x       y       z     vdW  Elec       q    Type
REMARK                         _______ _______ _______ _____ _____    ______ ____
ROOT
ATOM      1  C   UNL     1       2.690   7.438  18.134  0.00  0.00    +0.000 C 
ATOM      2  O   UNL     1       2.962   8.134  17.158  0.00  0.00    +0.000 OA
ATOM      3  N   UNL     1       1.853   7.826  19.173  0.00  0.00    +0.000 N 
ATOM      4  H   UNL     1       1.528   7.132  19.830  0.00  0.00    +0.000 HD
ENDROOT
BRANCH   1   7
ATOM      5  C   UNL     1       4.721   4.459  17.161  0.00  0.00    +0.000 A 
ATOM      6  C   UNL     1       4.169   5.726  17.195  0.00  0.00    +0.000 A 
ATOM      7  C   UNL     1       3.232   6.040  18.192  0.00  0.00    +0.000 A 
ATOM      8  C   UNL     1       2.892   5.066  19.173  0.00  0.00    +0.000 A 
ATOM      9  C   UNL     1       2.044   5.250  20.302  0.00  0.00    +0.000 A 
ATOM     10  C   UNL     1       1.740   4.196  21.170  0.00  0.00    +0.000 A 
ATOM     11  C   UNL     1       2.304   2.945  20.959  0.00  0.00    +0.000 A 
ATOM     12  C   UNL     1       3.184   2.768  19.896  0.00  0.00    +0.000 A 
ATOM     13  C   UNL     1       3.490   3.795  19.015  0.00  0.00    +0.000 A 
ATOM     14  N   UNL     1       4.370   3.507  18.050  0.00  0.00    +0.000 NA
BRANCH   5  15
ATOM     15  C   UNL     1       5.780   4.083  16.156  0.00  0.00    +0.000 C 
BRANCH  15  16
ATOM     16  C   UNL     1       7.066   4.891  16.351  0.00  0.00    +0.000 C 
BRANCH  16  17
ATOM     17  C   UNL     1       7.650   4.688  17.750  0.00  0.00    +0.000 C 
BRANCH  17  19
ATOM     18  C   UNL     1       7.587   7.204  17.599  0.00  0.00    +0.000 C 
ATOM     19  C   UNL     1       7.700   6.005  18.526  0.00  0.00    +0.000 C 
ENDBRANCH  17  19
ENDBRANCH  16  17
ENDBRANCH  15  16
ENDBRANCH   5  15
ENDBRANCH   1   7
BRANCH   3  20
ATOM     20  N   UNL     1       1.282   9.071  19.173  0.00  0.00    +0.000 NA
ATOM     21  C   UNL     1       0.737   9.548  20.258  0.00  0.00    +0.000 C 
ATOM     22  C   UNL     1       0.751   8.854  21.607  0.00  0.00    +0.000 C 
BRANCH  21  23
ATOM     23  C   UNL     1       0.049  10.895  20.201  0.00  0.00    +0.000 A 
ATOM     24  C   UNL     1      -0.847  11.181  19.167  0.00  0.00    +0.000 A 
ATOM     25  C   UNL     1      -1.498  12.423  19.117  0.00  0.00    +0.000 A 
ATOM     26  C   UNL     1      -1.260  13.390  20.101  0.00  0.00    +0.000 A 
ATOM     27  C   UNL     1      -0.371  13.124  21.145  0.00  0.00    +0.000 A 
ATOM     28  C   UNL     1       0.274  11.876  21.180  0.00  0.00    +0.000 A 
BRANCH  26  29
ATOM     29  O   UNL     1      -1.912  14.588  20.010  0.00  0.00    +0.000 OA
ATOM     30  H   UNL     1      -1.260  15.308  19.994  0.00  0.00    +0.000 HD
ENDBRANCH  26  29
BRANCH  27  31
ATOM     31  O   UNL     1      -0.011  13.931  22.191  0.00  0.00    +0.000 OA
ATOM     32  C   UNL     1       1.012  14.895  21.982  0.00  0.00    +0.000 C 
ENDBRANCH  27  31
ENDBRANCH  21  23
ENDBRANCH   3  20
TORSDOF 9
ENDMDL
