MODEL 1
REMARK VINA RESULT:      -6.5      0.000      0.000
REMARK  Name = 
REMARK  2 active torsions:
REMARK  status: ('A' for Active; 'I' for Inactive)
REMARK    1  A    between atoms: C_1  and  C_2
REMARK    2  A    between atoms: N_6  and  C_7
REMARK                            x       y       z     vdW  Elec       q    Type
REMARK                         _______ _______ _______ _____ _____    ______ ____
ROOT
ATOM      1  C   UNL     1       1.225   4.304  20.453  0.00  0.00    +0.000 C 
ATOM      2  C   UNL     1       2.163   3.481  19.650  0.00  0.00    +0.000 A 
ATOM      3  C   UNL     1       2.041   2.154  19.297  0.00  0.00    +0.000 A 
ATOM      4  S   UNL     1       3.389   1.680  18.342  0.00  0.00    +0.000 S 
ATOM      5  C   UNL     1       4.050   3.270  18.481  0.00  0.00    +0.000 A 
ATOM      6  N   UNL     1       5.217   3.588  17.865  0.00  0.00    +0.000 N 
ATOM      7  N   UNL     1       3.303   4.093  19.183  0.00  0.00    +0.000 NA
ATOM      8  H   UNL     1       5.593   2.931  17.195  0.00  0.00    +0.000 HD
ENDROOT
BRANCH   6   9
ATOM      9  C   UNL     1       5.846   4.848  17.910  0.00  0.00    +0.000 A 
ATOM     10  C   UNL     1       5.454   5.916  17.087  0.00  0.00    +0.000 A 
ATOM     11  C   UNL     1       6.175   7.111  17.046  0.00  0.00    +0.000 A 
ATOM     12  C   UNL     1       7.303   7.256  17.840  0.00  0.00    +0.000 A 
ATOM     13 CL   UNL     1       8.221   8.709  17.760  0.00  0.00    +0.000 Cl
ATOM     14  C   UNL     1       7.700   6.225  18.689  0.00  0.00    +0.000 A 
ATOM     15  C   UNL     1       6.974   5.028  18.723  0.00  0.00    +0.000 A 
ENDBRANCH   6   9
TORSDOF 1
ENDMDL
MODEL 2
REMARK VINA RESULT:      -6.5      0.347      1.330
REMARK  Name = 
REMARK  2 active torsions:
REMARK  status: ('A' for Active; 'I' for Inactive)
REMARK    1  A    between atoms: C_1  and  C_2
REMARK    2  A    between atoms: N_6  and  C_7
REMARK                            x       y       z     vdW  Elec       q    Type
REMARK                         _______ _______ _______ _____ _____    ______ ____
ROOT
ATOM      1  C   UNL     1       1.710   4.743  20.721  0.00  0.00    +0.000 C 
ATOM      2  C   UNL     1       2.488   3.813  19.866  0.00  0.00    +0.000 A 
ATOM      3  C   UNL     1       2.209   2.495  19.571  0.00  0.00    +0.000 A 
ATOM      4  S   UNL     1       3.413   1.869  18.516  0.00  0.00    +0.000 S 
ATOM      5  C   UNL     1       4.231   3.391  18.539  0.00  0.00    +0.000 A 
ATOM      6  N   UNL     1       5.360   3.578  17.810  0.00  0.00    +0.000 N 
ATOM      7  N   UNL     1       3.632   4.300  19.277  0.00  0.00    +0.000 NA
ATOM      8  H   UNL     1       5.608   2.871  17.133  0.00  0.00    +0.000 HD
ENDROOT
BRANCH   6   9
ATOM      9  C   UNL     1       6.105   4.772  17.755  0.00  0.00    +0.000 A 
ATOM     10  C   UNL     1       7.165   5.042  18.636  0.00  0.00    +0.000 A 
ATOM     11  C   UNL     1       7.801   6.285  18.657  0.00  0.00    +0.000 A 
ATOM     12  C   UNL     1       7.385   7.281  17.784  0.00  0.00    +0.000 A 
ATOM     13 CL   UNL     1       8.134   8.828  17.836  0.00  0.00    +0.000 Cl
ATOM     14  C   UNL     1       6.356   7.033  16.878  0.00  0.00    +0.000 A 
ATOM     15  C   UNL     1       5.721   5.785  16.864  0.00  0.00    +0.000 A 
ENDBRANCH   6   9
TORSDOF 1
ENDMDL
MODEL 3
REMARK VINA RESULT:      -6.0      3.320      5.816
REMARK  Name = 
REMARK  2 active torsions:
REMARK  status: ('A' for Active; 'I' for Inactive)
REMARK    1  A    between atoms: C_1  and  C_2
REMARK    2  A    between atoms: N_6  and  C_7
REMARK                            x       y       z     vdW  Elec       q    Type
REMARK                         _______ _______ _______ _____ _____    ______ ____
ROOT
ATOM      1  C   UNL     1       7.488   6.788  17.573  0.00  0.00    +0.000 C 
ATOM      2  C   UNL     1       6.863   5.699  16.781  0.00  0.00    +0.000 A 
ATOM      3  C   UNL     1       7.185   5.282  15.507  0.00  0.00    +0.000 A 
ATOM      4  S   UNL     1       6.175   3.968  15.053  0.00  0.00    +0.000 S 
ATOM      5  C   UNL     1       5.368   4.057  16.579  0.00  0.00    +0.000 A 
ATOM      6  N   UNL     1       4.378   3.182  16.887  0.00  0.00    +0.000 N 
ATOM      7  N   UNL     1       5.835   4.999  17.368  0.00  0.00    +0.000 NA
ATOM      8  H   UNL     1       4.245   2.384  16.281  0.00  0.00    +0.000 HD
ENDROOT
BRANCH   6   9
ATOM      9  C   UNL     1       3.655   3.162  18.095  0.00  0.00    +0.000 A 
ATOM     10  C   UNL     1       4.209   2.699  19.300  0.00  0.00    +0.000 A 
ATOM     11  C   UNL     1       3.437   2.557  20.455  0.00  0.00    +0.000 A 
ATOM     12  C   UNL     1       2.090   2.887  20.421  0.00  0.00    +0.000 A 
ATOM     13 CL   UNL     1       1.124   2.672  21.828  0.00  0.00    +0.000 Cl
ATOM     14  C   UNL     1       1.518   3.378  19.249  0.00  0.00    +0.000 A 
ATOM     15  C   UNL     1       2.297   3.514  18.094  0.00  0.00    +0.000 A 
ENDBRANCH   6   9
TORSDOF 1
ENDMDL
MODEL 4
REMARK VINA RESULT:      -6.0      2.461      2.689
REMARK  Name = 
REMARK  2 active torsions:
REMARK  status: ('A' for Active; 'I' for Inactive)
REMARK    1  A    between atoms: C_1  and  C_2
REMARK    2  A    between atoms: N_6  and  C_7
REMARK                            x       y       z     vdW  Elec       q    Type
REMARK                         _______ _______ _______ _____ _____    ______ ____
ROOT
ATOM      1  C   UNL     1       0.839   2.206  18.608  0.00  0.00    +0.000 C 
ATOM      2  C   UNL     1       1.472   3.322  19.354  0.00  0.00    +0.000 A 
ATOM      3  C   UNL     1       1.110   3.838  20.580  0.00  0.00    +0.000 A 
ATOM      4  S   UNL     1       2.181   5.111  21.014  0.00  0.00    +0.000 S 
ATOM      5  C   UNL     1       3.041   4.897  19.530  0.00  0.00    +0.000 A 
ATOM      6  N   UNL     1       4.127   5.661  19.247  0.00  0.00    +0.000 N 
ATOM      7  N   UNL     1       2.561   3.933  18.777  0.00  0.00    +0.000 NA
ATOM      8  H   UNL     1       4.513   6.228  19.989  0.00  0.00    +0.000 HD
ENDROOT
BRANCH   6   9
ATOM      9  C   UNL     1       4.901   5.572  18.074  0.00  0.00    +0.000 A 
ATOM     10  C   UNL     1       4.588   6.290  16.907  0.00  0.00    +0.000 A 
ATOM     11  C   UNL     1       5.283   6.085  15.713  0.00  0.00    +0.000 A 
ATOM     12  C   UNL     1       6.314   5.157  15.673  0.00  0.00    +0.000 A 
ATOM     13 CL   UNL     1       7.143   4.869  14.194  0.00  0.00    +0.000 Cl
ATOM     14  C   UNL     1       6.667   4.452  16.821  0.00  0.00    +0.000 A 
ATOM     15  C   UNL     1       5.964   4.660  18.014  0.00  0.00    +0.000 A 
ENDBRANCH   6   9
TORSDOF 1
ENDMDL
MODEL 5
REMARK VINA RESULT:      -5.8      3.278      5.673
REMARK  Name = 
REMARK  2 active torsions:
REMARK  status: ('A' for Active; 'I' for Inactive)
REMARK    1  A    between atoms: C_1  and  C_2
REMARK    2  A    between atoms: N_6  and  C_7
REMARK                            x       y       z     vdW  Elec       q    Type
REMARK                         _______ _______ _______ _____ _____    ______ ____
ROOT
ATOM      1  C   UNL     1       7.567   6.346  18.130  0.00  0.00    +0.000 C 
ATOM      2  C   UNL     1       6.789   5.637  17.085  0.00  0.00    +0.000 A 
ATOM      3  C   UNL     1       7.064   5.544  15.737  0.00  0.00    +0.000 A 
ATOM      4  S   UNL     1       5.861   4.590  14.963  0.00  0.00    +0.000 S 
ATOM      5  C   UNL     1       5.048   4.384  16.474  0.00  0.00    +0.000 A 
ATOM      6  N   UNL     1       3.922   3.631  16.553  0.00  0.00    +0.000 N 
ATOM      7  N   UNL     1       5.648   4.979  17.482  0.00  0.00    +0.000 NA
ATOM      8  H   UNL     1       3.672   3.066  15.754  0.00  0.00    +0.000 HD
ENDROOT
BRANCH   6   9
ATOM      9  C   UNL     1       3.181   3.395  17.728  0.00  0.00    +0.000 A 
ATOM     10  C   UNL     1       2.222   4.301  18.211  0.00  0.00    +0.000 A 
ATOM     11  C   UNL     1       1.599   4.118  19.447  0.00  0.00    +0.000 A 
ATOM     12  C   UNL     1       1.923   3.011  20.219  0.00  0.00    +0.000 A 
ATOM     13 CL   UNL     1       1.192   2.804  21.761  0.00  0.00    +0.000 Cl
ATOM     14  C   UNL     1       2.848   2.080  19.754  0.00  0.00    +0.000 A 
ATOM     15  C   UNL     1       3.473   2.272  18.514  0.00  0.00    +0.000 A 
ENDBRANCH   6   9
TORSDOF 1
ENDMDL
MODEL 6
REMARK VINA RESULT:      -5.8      3.407      5.852
REMARK  Name = 
REMARK  2 active torsions:
REMARK  status: ('A' for Active; 'I' for Inactive)
REMARK    1  A    between atoms: C_1  and  C_2
REMARK    2  A    between atoms: N_6  and  C_7
REMARK                            x       y       z     vdW  Elec       q    Type
REMARK                         _______ _______ _______ _____ _____    ______ ____
ROOT
ATOM      1  C   UNL     1       7.915   5.769  19.285  0.00  0.00    +0.000 C 
ATOM      2  C   UNL     1       6.853   5.944  18.263  0.00  0.00    +0.000 A 
ATOM      3  C   UNL     1       6.954   6.545  17.026  0.00  0.00    +0.000 A 
ATOM      4  S   UNL     1       5.439   6.469  16.218  0.00  0.00    +0.000 S 
ATOM      5  C   UNL     1       4.749   5.658  17.579  0.00  0.00    +0.000 A 
ATOM      6  N   UNL     1       3.452   5.261  17.560  0.00  0.00    +0.000 N 
ATOM      7  N   UNL     1       5.603   5.452  18.558  0.00  0.00    +0.000 NA
ATOM      8  H   UNL     1       2.958   5.299  16.679  0.00  0.00    +0.000 HD
ENDROOT
BRANCH   6   9
ATOM      9  C   UNL     1       2.789   4.594  18.609  0.00  0.00    +0.000 A 
ATOM     10  C   UNL     1       2.199   5.277  19.685  0.00  0.00    +0.000 A 
ATOM     11  C   UNL     1       1.669   4.596  20.782  0.00  0.00    +0.000 A 
ATOM     12  C   UNL     1       1.715   3.209  20.814  0.00  0.00    +0.000 A 
ATOM     13 CL   UNL     1       1.104   2.368  22.183  0.00  0.00    +0.000 Cl
ATOM     14  C   UNL     1       2.267   2.502  19.748  0.00  0.00    +0.000 A 
ATOM     15  C   UNL     1       2.800   3.192  18.652  0.00  0.00    +0.000 A 
ENDBRANCH   6   9
TORSDOF 1
ENDMDL
MODEL 7
REMARK VINA RESULT:      -5.7      2.659      3.110
REMARK  Name = 
REMARK  2 active torsions:
REMARK  status: ('A' for Active; 'I' for Inactive)
REMARK    1  A    between atoms: C_1  and  C_2
REMARK    2  A    between atoms: N_6  and  C_7
REMARK                            x       y       z     vdW  Elec       q    Type
REMARK                         _______ _______ _______ _____ _____    ______ ____
ROOT
ATOM      1  C   UNL     1       0.543   2.180  18.733  0.00  0.00    +0.000 C 
ATOM      2  C   UNL     1       1.235   3.365  19.298  0.00  0.00    +0.000 A 
ATOM      3  C   UNL     1       0.967   4.021  20.481  0.00  0.00    +0.000 A 
ATOM      4  S   UNL     1       2.072   5.322  20.687  0.00  0.00    +0.000 S 
ATOM      5  C   UNL     1       2.817   4.932  19.178  0.00  0.00    +0.000 A 
ATOM      6  N   UNL     1       3.881   5.646  18.730  0.00  0.00    +0.000 N 
ATOM      7  N   UNL     1       2.279   3.894  18.576  0.00  0.00    +0.000 NA
ATOM      8  H   UNL     1       4.324   6.288  19.372  0.00  0.00    +0.000 HD
ENDROOT
BRANCH   6   9
ATOM      9  C   UNL     1       4.565   5.416  17.520  0.00  0.00    +0.000 A 
ATOM     10  C   UNL     1       5.289   4.239  17.273  0.00  0.00    +0.000 A 
ATOM     11  C   UNL     1       6.072   4.087  16.127  0.00  0.00    +0.000 A 
ATOM     12  C   UNL     1       6.136   5.120  15.201  0.00  0.00    +0.000 A 
ATOM     13 CL   UNL     1       7.134   4.957  13.811  0.00  0.00    +0.000 Cl
ATOM     14  C   UNL     1       5.406   6.288  15.404  0.00  0.00    +0.000 A 
ATOM     15  C   UNL     1       4.624   6.434  16.557  0.00  0.00    +0.000 A 
ENDBRANCH   6   9
TORSDOF 1
ENDMDL
MODEL 8
REMARK VINA RESULT:      -5.7      3.025      3.565
REMARK  Name = 
REMARK  2 active torsions:
REMARK  status: ('A' for Active; 'I' for Inactive)
REMARK    1  A    between atoms: C_1  and  C_2
REMARK    2  A    between atoms: N_6  and  C_7
REMARK                            x       y       z     vdW  Elec       q    Type
REMARK                         _______ _______ _______ _____ _____    ______ ____
ROOT
ATOM      1  C   UNL     1       2.364   7.879  18.176  0.00  0.00    +0.000 C 
ATOM      2  C   UNL     1       2.830   6.537  18.609  0.00  0.00    +0.000 A 
ATOM      3  C   UNL     1       2.432   5.815  19.713  0.00  0.00    +0.000 A 
ATOM      4  S   UNL     1       3.258   4.308  19.750  0.00  0.00    +0.000 S 
ATOM      5  C   UNL     1       4.101   4.731  18.302  0.00  0.00    +0.000 A 
ATOM      6  N   UNL     1       4.978   3.863  17.737  0.00  0.00    +0.000 N 
ATOM      7  N   UNL     1       3.772   5.912  17.826  0.00  0.00    +0.000 NA
ATOM      8  H   UNL     1       4.996   2.915  18.084  0.00  0.00    +0.000 HD
ENDROOT
BRANCH   6   9
ATOM      9  C   UNL     1       5.717   4.102  16.562  0.00  0.00    +0.000 A 
ATOM     10  C   UNL     1       6.977   4.724  16.575  0.00  0.00    +0.000 A 
ATOM     11  C   UNL     1       7.631   5.077  15.393  0.00  0.00    +0.000 A 
ATOM     12  C   UNL     1       7.032   4.803  14.172  0.00  0.00    +0.000 A 
ATOM     13 CL   UNL     1       7.813   5.276  12.714  0.00  0.00    +0.000 Cl
ATOM     14  C   UNL     1       5.797   4.161  14.126  0.00  0.00    +0.000 A 
ATOM     15  C   UNL     1       5.144   3.812  15.315  0.00  0.00    +0.000 A 
ENDBRANCH   6   9
TORSDOF 1
ENDMDL
MODEL 9
REMARK VINA RESULT:      -5.7      2.448      2.790
REMARK  Name = 
REMARK  2 active torsions:
REMARK  status: ('A' for Active; 'I' for Inactive)
REMARK    1  A    between atoms: C_1  and  C_2
REMARK    2  A    between atoms: N_6  and  C_7
REMARK                            x       y       z     vdW  Elec       q    Type
REMARK                         _______ _______ _______ _____ _____    ______ ____
ROOT
ATOM      1  C   UNL     1       2.127   7.149  19.902  0.00  0.00    +0.000 C 
ATOM      2  C   UNL     1       2.590   5.739  19.912  0.00  0.00    +0.000 A 
ATOM      3  C   UNL     1       2.238   4.735  20.788  0.00  0.00    +0.000 A 
ATOM      4  S   UNL     1       3.036   3.277  20.352  0.00  0.00    +0.000 S 
ATOM      5  C   UNL     1       3.809   4.089  19.037  0.00  0.00    +0.000 A 
ATOM      6  N   UNL     1       4.639   3.414  18.202  0.00  0.00    +0.000 N 
ATOM      7  N   UNL     1       3.478   5.358  18.933  0.00  0.00    +0.000 NA
ATOM      8  H   UNL     1       4.658   2.406  18.266  0.00  0.00    +0.000 HD
ENDROOT
BRANCH   6   9
ATOM      9  C   UNL     1       5.320   3.974  17.103  0.00  0.00    +0.000 A 
ATOM     10  C   UNL     1       4.784   3.975  15.804  0.00  0.00    +0.000 A 
ATOM     11  C   UNL     1       5.529   4.407  14.705  0.00  0.00    +0.000 A 
ATOM     12  C   UNL     1       6.829   4.855  14.894  0.00  0.00    +0.000 A 
ATOM     13 CL   UNL     1       7.766   5.346  13.538  0.00  0.00    +0.000 Cl
ATOM     14  C   UNL     1       7.378   4.893  16.173  0.00  0.00    +0.000 A 
ATOM     15  C   UNL     1       6.626   4.455  17.271  0.00  0.00    +0.000 A 
ENDBRANCH   6   9
TORSDOF 1
ENDMDL
