MODEL 1
REMARK VINA RESULT:      -7.2      0.000      0.000
REMARK  Name = 
REMARK  4 active torsions:
REMARK  status: ('A' for Active; 'I' for Inactive)
REMARK    1  A    between atoms: C_1  and  O_2
REMARK    2  A    between atoms: O_2  and  C_3
REMARK    3  A    between atoms: C_5  and  C_6
REMARK    4  A    between atoms: C_17  and  O_18
REMARK                            x       y       z     vdW  Elec       q    Type
REMARK                         _______ _______ _______ _____ _____    ______ ____
ROOT
ATOM      1  C   UNL     1       6.611   6.108  16.529  0.00  0.00    +0.000 A 
ATOM      2  C   UNL     1       5.469   5.902  17.317  0.00  0.00    +0.000 A 
ATOM      3  C   UNL     1       4.484   5.000  16.918  0.00  0.00    +0.000 A 
ATOM      4  C   UNL     1       4.638   4.291  15.718  0.00  0.00    +0.000 A 
ATOM      5  C   UNL     1       5.775   4.483  14.940  0.00  0.00    +0.000 A 
ATOM      6 CL   UNL     1       5.934   3.598  13.463  0.00  0.00    +0.000 Cl
ATOM      7  C   UNL     1       6.769   5.381  15.342  0.00  0.00    +0.000 A 
ENDROOT
BRANCH   3   8
ATOM      8  C   UNL     1       3.247   4.813  17.678  0.00  0.00    +0.000 C 
ATOM      9  C   UNL     1       3.003   3.674  18.345  0.00  0.00    +0.000 C 
ATOM     10  S   UNL     1       3.959   2.244  18.345  0.00  0.00    +0.000 S 
ATOM     11  C   UNL     1       3.943   2.357  20.083  0.00  0.00    +0.000 C 
ATOM     12  N   UNL     1       4.982   1.754  20.711  0.00  0.00    +0.000 N 
ATOM     13  N   UNL     1       3.046   3.117  20.611  0.00  0.00    +0.000 NA
ATOM     14  C   UNL     1       2.278   3.746  19.648  0.00  0.00    +0.000 C 
ATOM     15  O   UNL     1       1.249   4.371  19.829  0.00  0.00    +0.000 OA
ATOM     16  H   UNL     1       5.660   1.367  20.063  0.00  0.00    +0.000 HD
ATOM     17  H   UNL     1       5.427   2.376  21.379  0.00  0.00    +0.000 HD
ENDBRANCH   3   8
BRANCH   1  19
ATOM     18  C   UNL     1       7.901   6.764  18.410  0.00  0.00    +0.000 C 
ATOM     19  O   UNL     1       7.494   7.005  17.069  0.00  0.00    +0.000 OA
ENDBRANCH   1  19
BRANCH   7  20
ATOM     20  O   UNL     1       7.901   5.513  14.581  0.00  0.00    +0.000 OA
ATOM     21  H   UNL     1       8.239   4.616  14.395  0.00  0.00    +0.000 HD
ENDBRANCH   7  20
TORSDOF 3
ENDMDL
MODEL 2
REMARK VINA RESULT:      -7.1      1.965      2.603
REMARK  Name = 
REMARK  4 active torsions:
REMARK  status: ('A' for Active; 'I' for Inactive)
REMARK    1  A    between atoms: C_1  and  O_2
REMARK    2  A    between atoms: O_2  and  C_3
REMARK    3  A    between atoms: C_5  and  C_6
REMARK    4  A    between atoms: C_17  and  O_18
REMARK                            x       y       z     vdW  Elec       q    Type
REMARK                         _______ _______ _______ _____ _____    ______ ____
ROOT
ATOM      1  C   UNL     1       4.329   6.679  17.391  0.00  0.00    +0.000 A 
ATOM      2  C   UNL     1       3.332   5.720  17.624  0.00  0.00    +0.000 A 
ATOM      3  C   UNL     1       3.519   4.393  17.241  0.00  0.00    +0.000 A 
ATOM      4  C   UNL     1       4.717   4.014  16.617  0.00  0.00    +0.000 A 
ATOM      5  C   UNL     1       5.713   4.958  16.396  0.00  0.00    +0.000 A 
ATOM      6 CL   UNL     1       7.176   4.462  15.621  0.00  0.00    +0.000 Cl
ATOM      7  C   UNL     1       5.531   6.290  16.787  0.00  0.00    +0.000 A 
ENDROOT
BRANCH   3   8
ATOM      8  C   UNL     1       2.474   3.381  17.403  0.00  0.00    +0.000 C 
ATOM      9  C   UNL     1       2.383   2.646  18.522  0.00  0.00    +0.000 C 
ATOM     10  S   UNL     1       3.469   2.640  19.855  0.00  0.00    +0.000 S 
ATOM     11  C   UNL     1       2.079   2.936  20.860  0.00  0.00    +0.000 C 
ATOM     12  N   UNL     1       2.338   3.544  22.042  0.00  0.00    +0.000 N 
ATOM     13  N   UNL     1       0.922   2.694  20.343  0.00  0.00    +0.000 NA
ATOM     14  C   UNL     1       1.027   2.275  19.029  0.00  0.00    +0.000 C 
ATOM     15  O   UNL     1       0.141   1.802  18.341  0.00  0.00    +0.000 OA
ATOM     16  H   UNL     1       3.316   3.795  22.147  0.00  0.00    +0.000 HD
ATOM     17  H   UNL     1       1.735   4.348  22.190  0.00  0.00    +0.000 HD
ENDBRANCH   3   8
BRANCH   1  19
ATOM     18  C   UNL     1       2.617   8.246  17.886  0.00  0.00    +0.000 C 
ATOM     19  O   UNL     1       4.003   7.929  17.846  0.00  0.00    +0.000 OA
ENDBRANCH   1  19
BRANCH   7  20
ATOM     20  O   UNL     1       6.549   7.188  16.600  0.00  0.00    +0.000 OA
ATOM     21  H   UNL     1       6.419   7.606  15.728  0.00  0.00    +0.000 HD
ENDBRANCH   7  20
TORSDOF 3
ENDMDL
MODEL 3
REMARK VINA RESULT:      -7.0      3.542      5.846
REMARK  Name = 
REMARK  4 active torsions:
REMARK  status: ('A' for Active; 'I' for Inactive)
REMARK    1  A    between atoms: C_1  and  O_2
REMARK    2  A    between atoms: O_2  and  C_3
REMARK    3  A    between atoms: C_5  and  C_6
REMARK    4  A    between atoms: C_17  and  O_18
REMARK                            x       y       z     vdW  Elec       q    Type
REMARK                         _______ _______ _______ _____ _____    ______ ____
ROOT
ATOM      1  C   UNL     1       2.552   6.153  19.725  0.00  0.00    +0.000 A 
ATOM      2  C   UNL     1       3.467   5.596  18.821  0.00  0.00    +0.000 A 
ATOM      3  C   UNL     1       3.888   6.314  17.703  0.00  0.00    +0.000 A 
ATOM      4  C   UNL     1       3.392   7.607  17.483  0.00  0.00    +0.000 A 
ATOM      5  C   UNL     1       2.494   8.169  18.384  0.00  0.00    +0.000 A 
ATOM      6 CL   UNL     1       1.896   9.762  18.083  0.00  0.00    +0.000 Cl
ATOM      7  C   UNL     1       2.076   7.453  19.512  0.00  0.00    +0.000 A 
ENDROOT
BRANCH   3   8
ATOM      8  C   UNL     1       4.786   5.738  16.700  0.00  0.00    +0.000 C 
ATOM      9  C   UNL     1       6.118   5.866  16.801  0.00  0.00    +0.000 C 
ATOM     10  S   UNL     1       6.990   6.778  17.969  0.00  0.00    +0.000 S 
ATOM     11  C   UNL     1       7.882   5.319  18.293  0.00  0.00    +0.000 C 
ATOM     12  N   UNL     1       8.437   5.241  19.527  0.00  0.00    +0.000 N 
ATOM     13  N   UNL     1       7.818   4.385  17.406  0.00  0.00    +0.000 NA
ATOM     14  C   UNL     1       6.984   4.732  16.359  0.00  0.00    +0.000 C 
ATOM     15  O   UNL     1       6.865   4.150  15.297  0.00  0.00    +0.000 OA
ATOM     16  H   UNL     1       8.199   6.034  20.114  0.00  0.00    +0.000 HD
ATOM     17  H   UNL     1       8.208   4.364  19.986  0.00  0.00    +0.000 HD
ENDBRANCH   3   8
BRANCH   1  19
ATOM     18  C   UNL     1       1.252   4.351  20.560  0.00  0.00    +0.000 C 
ATOM     19  O   UNL     1       2.257   5.332  20.782  0.00  0.00    +0.000 OA
ENDBRANCH   1  19
BRANCH   7  20
ATOM     20  O   UNL     1       1.229   8.050  20.408  0.00  0.00    +0.000 OA
ATOM     21  H   UNL     1       0.502   8.458  19.901  0.00  0.00    +0.000 HD
ENDBRANCH   7  20
TORSDOF 3
ENDMDL
MODEL 4
REMARK VINA RESULT:      -6.9      1.928      2.675
REMARK  Name = 
REMARK  4 active torsions:
REMARK  status: ('A' for Active; 'I' for Inactive)
REMARK    1  A    between atoms: C_1  and  O_2
REMARK    2  A    between atoms: O_2  and  C_3
REMARK    3  A    between atoms: C_5  and  C_6
REMARK    4  A    between atoms: C_17  and  O_18
REMARK                            x       y       z     vdW  Elec       q    Type
REMARK                         _______ _______ _______ _____ _____    ______ ____
ROOT
ATOM      1  C   UNL     1       5.513   5.352  15.945  0.00  0.00    +0.000 A 
ATOM      2  C   UNL     1       4.366   5.025  16.683  0.00  0.00    +0.000 A 
ATOM      3  C   UNL     1       4.345   5.177  18.068  0.00  0.00    +0.000 A 
ATOM      4  C   UNL     1       5.483   5.664  18.729  0.00  0.00    +0.000 A 
ATOM      5  C   UNL     1       6.617   6.002  18.000  0.00  0.00    +0.000 A 
ATOM      6 CL   UNL     1       8.005   6.595  18.843  0.00  0.00    +0.000 Cl
ATOM      7  C   UNL     1       6.638   5.858  16.608  0.00  0.00    +0.000 A 
ENDROOT
BRANCH   3   8
ATOM      8  C   UNL     1       3.193   4.779  18.878  0.00  0.00    +0.000 C 
ATOM      9  C   UNL     1       3.057   3.521  19.327  0.00  0.00    +0.000 C 
ATOM     10  S   UNL     1       4.064   2.174  18.967  0.00  0.00    +0.000 S 
ATOM     11  C   UNL     1       4.207   1.951  20.688  0.00  0.00    +0.000 C 
ATOM     12  N   UNL     1       5.322   1.299  21.096  0.00  0.00    +0.000 N 
ATOM     13  N   UNL     1       3.334   2.544  21.429  0.00  0.00    +0.000 NA
ATOM     14  C   UNL     1       2.455   3.302  20.676  0.00  0.00    +0.000 C 
ATOM     15  O   UNL     1       1.424   3.821  21.062  0.00  0.00    +0.000 OA
ATOM     16  H   UNL     1       5.951   1.081  20.330  0.00  0.00    +0.000 HD
ATOM     17  H   UNL     1       5.803   1.805  21.834  0.00  0.00    +0.000 HD
ENDBRANCH   3   8
BRANCH   1  19
ATOM     18  C   UNL     1       5.973   4.007  14.044  0.00  0.00    +0.000 C 
ATOM     19  O   UNL     1       5.366   5.169  14.595  0.00  0.00    +0.000 OA
ENDBRANCH   1  19
BRANCH   7  20
ATOM     20  O   UNL     1       7.752   6.245  15.910  0.00  0.00    +0.000 OA
ATOM     21  H   UNL     1       7.855   5.636  15.155  0.00  0.00    +0.000 HD
ENDBRANCH   7  20
TORSDOF 3
ENDMDL
MODEL 5
REMARK VINA RESULT:      -6.9      1.620      2.589
REMARK  Name = 
REMARK  4 active torsions:
REMARK  status: ('A' for Active; 'I' for Inactive)
REMARK    1  A    between atoms: C_1  and  O_2
REMARK    2  A    between atoms: O_2  and  C_3
REMARK    3  A    between atoms: C_5  and  C_6
REMARK    4  A    between atoms: C_17  and  O_18
REMARK                            x       y       z     vdW  Elec       q    Type
REMARK                         _______ _______ _______ _____ _____    ______ ____
ROOT
ATOM      1  C   UNL     1       5.841   4.384  15.491  0.00  0.00    +0.000 A 
ATOM      2  C   UNL     1       4.630   4.139  16.156  0.00  0.00    +0.000 A 
ATOM      3  C   UNL     1       4.197   4.982  17.177  0.00  0.00    +0.000 A 
ATOM      4  C   UNL     1       4.980   6.087  17.542  0.00  0.00    +0.000 A 
ATOM      5  C   UNL     1       6.174   6.342  16.877  0.00  0.00    +0.000 A 
ATOM      6 CL   UNL     1       7.119   7.709  17.352  0.00  0.00    +0.000 Cl
ATOM      7  C   UNL     1       6.607   5.501  15.845  0.00  0.00    +0.000 A 
ENDROOT
BRANCH   3   8
ATOM      8  C   UNL     1       2.977   4.716  17.941  0.00  0.00    +0.000 C 
ATOM      9  C   UNL     1       2.802   3.558  18.596  0.00  0.00    +0.000 C 
ATOM     10  S   UNL     1       3.837   2.186  18.576  0.00  0.00    +0.000 S 
ATOM     11  C   UNL     1       3.825   2.278  20.314  0.00  0.00    +0.000 C 
ATOM     12  N   UNL     1       4.899   1.728  20.930  0.00  0.00    +0.000 N 
ATOM     13  N   UNL     1       2.889   2.980  20.856  0.00  0.00    +0.000 NA
ATOM     14  C   UNL     1       2.081   3.576  19.904  0.00  0.00    +0.000 C 
ATOM     15  O   UNL     1       1.020   4.139  20.097  0.00  0.00    +0.000 OA
ATOM     16  H   UNL     1       5.595   1.387  20.275  0.00  0.00    +0.000 HD
ATOM     17  H   UNL     1       5.312   2.367  21.604  0.00  0.00    +0.000 HD
ENDBRANCH   3   8
BRANCH   1  19
ATOM     18  C   UNL     1       5.714   3.846  13.183  0.00  0.00    +0.000 C 
ATOM     19  O   UNL     1       6.113   3.480  14.498  0.00  0.00    +0.000 OA
ENDBRANCH   1  19
BRANCH   7  20
ATOM     20  O   UNL     1       7.763   5.805  15.174  0.00  0.00    +0.000 OA
ATOM     21  H   UNL     1       8.414   5.105  15.376  0.00  0.00    +0.000 HD
ENDBRANCH   7  20
TORSDOF 3
ENDMDL
MODEL 6
REMARK VINA RESULT:      -6.8      3.629      5.728
REMARK  Name = 
REMARK  4 active torsions:
REMARK  status: ('A' for Active; 'I' for Inactive)
REMARK    1  A    between atoms: C_1  and  O_2
REMARK    2  A    between atoms: O_2  and  C_3
REMARK    3  A    between atoms: C_5  and  C_6
REMARK    4  A    between atoms: C_17  and  O_18
REMARK                            x       y       z     vdW  Elec       q    Type
REMARK                         _______ _______ _______ _____ _____    ______ ____
ROOT
ATOM      1  C   UNL     1       2.382   7.397  19.108  0.00  0.00    +0.000 A 
ATOM      2  C   UNL     1       3.179   7.029  18.015  0.00  0.00    +0.000 A 
ATOM      3  C   UNL     1       3.721   5.747  17.929  0.00  0.00    +0.000 A 
ATOM      4  C   UNL     1       3.464   4.817  18.947  0.00  0.00    +0.000 A 
ATOM      5  C   UNL     1       2.663   5.173  20.027  0.00  0.00    +0.000 A 
ATOM      6 CL   UNL     1       2.368   4.007  21.268  0.00  0.00    +0.000 Cl
ATOM      7  C   UNL     1       2.111   6.457  20.111  0.00  0.00    +0.000 A 
ENDROOT
BRANCH   3   8
ATOM      8  C   UNL     1       4.615   5.351  16.840  0.00  0.00    +0.000 C 
ATOM      9  C   UNL     1       5.924   5.647  16.870  0.00  0.00    +0.000 C 
ATOM     10  S   UNL     1       6.749   6.597  18.041  0.00  0.00    +0.000 S 
ATOM     11  C   UNL     1       7.839   5.251  18.217  0.00  0.00    +0.000 C 
ATOM     12  N   UNL     1       8.480   5.177  19.408  0.00  0.00    +0.000 N 
ATOM     13  N   UNL     1       7.835   4.369  17.276  0.00  0.00    +0.000 NA
ATOM     14  C   UNL     1       6.895   4.663  16.305  0.00  0.00    +0.000 C 
ATOM     15  O   UNL     1       6.780   4.130  15.216  0.00  0.00    +0.000 OA
ATOM     16  H   UNL     1       8.183   5.898  20.058  0.00  0.00    +0.000 HD
ATOM     17  H   UNL     1       8.397   4.253  19.822  0.00  0.00    +0.000 HD
ENDBRANCH   3   8
BRANCH   1  19
ATOM     18  C   UNL     1       1.847   9.256  17.734  0.00  0.00    +0.000 C 
ATOM     19  O   UNL     1       1.906   8.679  19.032  0.00  0.00    +0.000 OA
ENDBRANCH   1  19
BRANCH   7  20
ATOM     20  O   UNL     1       1.286   6.764  21.161  0.00  0.00    +0.000 OA
ATOM     21  H   UNL     1       1.383   6.059  21.829  0.00  0.00    +0.000 HD
ENDBRANCH   7  20
TORSDOF 3
ENDMDL
MODEL 7
REMARK VINA RESULT:      -6.8      3.581      6.016
REMARK  Name = 
REMARK  4 active torsions:
REMARK  status: ('A' for Active; 'I' for Inactive)
REMARK    1  A    between atoms: C_1  and  O_2
REMARK    2  A    between atoms: O_2  and  C_3
REMARK    3  A    between atoms: C_5  and  C_6
REMARK    4  A    between atoms: C_17  and  O_18
REMARK                            x       y       z     vdW  Elec       q    Type
REMARK                         _______ _______ _______ _____ _____    ______ ____
ROOT
ATOM      1  C   UNL     1       4.313   2.470  20.317  0.00  0.00    +0.000 A 
ATOM      2  C   UNL     1       4.769   2.805  19.034  0.00  0.00    +0.000 A 
ATOM      3  C   UNL     1       3.964   3.534  18.161  0.00  0.00    +0.000 A 
ATOM      4  C   UNL     1       2.685   3.938  18.572  0.00  0.00    +0.000 A 
ATOM      5  C   UNL     1       2.234   3.620  19.848  0.00  0.00    +0.000 A 
ATOM      6 CL   UNL     1       0.652   4.128  20.324  0.00  0.00    +0.000 Cl
ATOM      7  C   UNL     1       3.044   2.895  20.729  0.00  0.00    +0.000 A 
ENDROOT
BRANCH   3   8
ATOM      8  C   UNL     1       4.378   3.839  16.790  0.00  0.00    +0.000 C 
ATOM      9  C   UNL     1       4.930   5.021  16.475  0.00  0.00    +0.000 C 
ATOM     10  S   UNL     1       5.135   6.381  17.506  0.00  0.00    +0.000 S 
ATOM     11  C   UNL     1       6.814   6.350  17.046  0.00  0.00    +0.000 C 
ATOM     12  N   UNL     1       7.669   6.909  17.935  0.00  0.00    +0.000 N 
ATOM     13  N   UNL     1       7.117   5.677  15.988  0.00  0.00    +0.000 NA
ATOM     14  C   UNL     1       6.008   5.057  15.441  0.00  0.00    +0.000 C 
ATOM     15  O   UNL     1       5.938   4.512  14.355  0.00  0.00    +0.000 OA
ATOM     16  H   UNL     1       7.204   7.220  18.782  0.00  0.00    +0.000 HD
ATOM     17  H   UNL     1       8.445   6.290  18.149  0.00  0.00    +0.000 HD
ENDBRANCH   3   8
BRANCH   1  19
ATOM     18  C   UNL     1       5.410   0.405  20.720  0.00  0.00    +0.000 C 
ATOM     19  O   UNL     1       5.230   1.774  21.060  0.00  0.00    +0.000 OA
ENDBRANCH   1  19
BRANCH   7  20
ATOM     20  O   UNL     1       2.592   2.638  21.997  0.00  0.00    +0.000 OA
ATOM     21  H   UNL     1       2.608   1.671  22.127  0.00  0.00    +0.000 HD
ENDBRANCH   7  20
TORSDOF 3
ENDMDL
MODEL 8
REMARK VINA RESULT:      -6.8      3.030      5.537
REMARK  Name = 
REMARK  4 active torsions:
REMARK  status: ('A' for Active; 'I' for Inactive)
REMARK    1  A    between atoms: C_1  and  O_2
REMARK    2  A    between atoms: O_2  and  C_3
REMARK    3  A    between atoms: C_5  and  C_6
REMARK    4  A    between atoms: C_17  and  O_18
REMARK                            x       y       z     vdW  Elec       q    Type
REMARK                         _______ _______ _______ _____ _____    ______ ____
ROOT
ATOM      1  C   UNL     1       2.295   5.516  19.287  0.00  0.00    +0.000 A 
ATOM      2  C   UNL     1       3.237   5.625  18.255  0.00  0.00    +0.000 A 
ATOM      3  C   UNL     1       3.483   4.551  17.401  0.00  0.00    +0.000 A 
ATOM      4  C   UNL     1       2.779   3.351  17.576  0.00  0.00    +0.000 A 
ATOM      5  C   UNL     1       1.834   3.243  18.590  0.00  0.00    +0.000 A 
ATOM      6 CL   UNL     1       0.985   1.750  18.784  0.00  0.00    +0.000 Cl
ATOM      7  C   UNL     1       1.579   4.322  19.444  0.00  0.00    +0.000 A 
ENDROOT
BRANCH   3   8
ATOM      8  C   UNL     1       4.510   4.605  16.359  0.00  0.00    +0.000 C 
ATOM      9  C   UNL     1       5.682   5.226  16.565  0.00  0.00    +0.000 C 
ATOM     10  S   UNL     1       6.145   6.140  17.946  0.00  0.00    +0.000 S 
ATOM     11  C   UNL     1       7.556   5.122  18.021  0.00  0.00    +0.000 C 
ATOM     12  N   UNL     1       8.126   5.012  19.244  0.00  0.00    +0.000 N 
ATOM     13  N   UNL     1       7.847   4.450  16.959  0.00  0.00    +0.000 NA
ATOM     14  C   UNL     1       6.917   4.650  15.955  0.00  0.00    +0.000 C 
ATOM     15  O   UNL     1       7.014   4.307  14.792  0.00  0.00    +0.000 OA
ATOM     16  H   UNL     1       7.606   5.502  19.965  0.00  0.00    +0.000 HD
ATOM     17  H   UNL     1       8.280   4.041  19.500  0.00  0.00    +0.000 HD
ENDBRANCH   3   8
BRANCH   1  19
ATOM     18  C   UNL     1       2.091   7.881  19.289  0.00  0.00    +0.000 C 
ATOM     19  O   UNL     1       2.152   6.664  20.022  0.00  0.00    +0.000 OA
ENDBRANCH   1  19
BRANCH   7  20
ATOM     20  O   UNL     1       0.607   4.203  20.403  0.00  0.00    +0.000 OA
ATOM     21  H   UNL     1       0.729   4.934  21.039  0.00  0.00    +0.000 HD
ENDBRANCH   7  20
TORSDOF 3
ENDMDL
MODEL 9
REMARK VINA RESULT:      -6.7      3.449      4.201
REMARK  Name = 
REMARK  4 active torsions:
REMARK  status: ('A' for Active; 'I' for Inactive)
REMARK    1  A    between atoms: C_1  and  O_2
REMARK    2  A    between atoms: O_2  and  C_3
REMARK    3  A    between atoms: C_5  and  C_6
REMARK    4  A    between atoms: C_17  and  O_18
REMARK                            x       y       z     vdW  Elec       q    Type
REMARK                         _______ _______ _______ _____ _____    ______ ____
ROOT
ATOM      1  C   UNL     1       6.565   4.610  16.258  0.00  0.00    +0.000 A 
ATOM      2  C   UNL     1       5.528   5.539  16.088  0.00  0.00    +0.000 A 
ATOM      3  C   UNL     1       5.290   6.522  17.048  0.00  0.00    +0.000 A 
ATOM      4  C   UNL     1       6.098   6.582  18.193  0.00  0.00    +0.000 A 
ATOM      5  C   UNL     1       7.136   5.672  18.358  0.00  0.00    +0.000 A 
ATOM      6 CL   UNL     1       8.112   5.768  19.782  0.00  0.00    +0.000 Cl
ATOM      7  C   UNL     1       7.382   4.689  17.393  0.00  0.00    +0.000 A 
ENDROOT
BRANCH   3   8
ATOM      8  C   UNL     1       4.173   7.461  16.939  0.00  0.00    +0.000 C 
ATOM      9  C   UNL     1       2.997   7.219  17.540  0.00  0.00    +0.000 C 
ATOM     10  S   UNL     1       2.539   5.799  18.394  0.00  0.00    +0.000 S 
ATOM     11  C   UNL     1       2.117   6.851  19.715  0.00  0.00    +0.000 C 
ATOM     12  N   UNL     1       2.137   6.277  20.942  0.00  0.00    +0.000 N 
ATOM     13  N   UNL     1       1.970   8.103  19.441  0.00  0.00    +0.000 NA
ATOM     14  C   UNL     1       2.232   8.369  18.109  0.00  0.00    +0.000 C 
ATOM     15  O   UNL     1       2.003   9.405  17.513  0.00  0.00    +0.000 OA
ATOM     16  H   UNL     1       2.456   5.314  20.918  0.00  0.00    +0.000 HD
ATOM     17  H   UNL     1       2.677   6.826  21.604  0.00  0.00    +0.000 HD
ENDBRANCH   3   8
BRANCH   1  19
ATOM     18  C   UNL     1       6.037   4.087  14.004  0.00  0.00    +0.000 C 
ATOM     19  O   UNL     1       6.684   3.726  15.218  0.00  0.00    +0.000 OA
ENDBRANCH   1  19
BRANCH   7  20
ATOM     20  O   UNL     1       8.442   3.836  17.559  0.00  0.00    +0.000 OA
ATOM     21  H   UNL     1       8.340   3.404  18.428  0.00  0.00    +0.000 HD
ENDBRANCH   7  20
TORSDOF 3
ENDMDL
