MODEL 1
REMARK VINA RESULT:     -10.2      0.000      0.000
REMARK  Name = 
REMARK  5 active torsions:
REMARK  status: ('A' for Active; 'I' for Inactive)
REMARK    1  A    between atoms: C_4  and  C_5
REMARK    2  A    between atoms: C_5  and  C_6
REMARK    3  A    between atoms: C_9  and  C_10
REMARK    4  A    between atoms: N_26  and  C_27
REMARK    5  A    between atoms: C_27  and  C_28
REMARK                            x       y       z     vdW  Elec       q    Type
REMARK                         _______ _______ _______ _____ _____    ______ ____
ROOT
ATOM      1  C   UNL     1       1.922   7.658  20.029  0.00  0.00    +0.000 A 
ATOM      2  C   UNL     1       2.520   6.447  20.337  0.00  0.00    +0.000 A 
ATOM      3  C   UNL     1       3.397   5.755  19.400  0.00  0.00    +0.000 A 
ATOM      4  C   UNL     1       3.774   6.158  18.060  0.00  0.00    +0.000 A 
ATOM      5  C   UNL     1       3.183   7.400  17.770  0.00  0.00    +0.000 A 
ATOM      6  C   UNL     1       2.288   8.116  18.724  0.00  0.00    +0.000 A 
ENDROOT
BRANCH   4   7
ATOM      7  C   UNL     1       4.559   5.100  17.025  0.00  0.00    +0.000 A 
ATOM      8  C   UNL     1       5.177   4.084  17.786  0.00  0.00    +0.000 A 
ATOM      9  C   UNL     1       6.511   4.338  18.090  0.00  0.00    +0.000 A 
ATOM     10  C   UNL     1       7.333   4.368  16.998  0.00  0.00    +0.000 A 
ATOM     11  C   UNL     1       6.837   5.358  16.121  0.00  0.00    +0.000 A 
ATOM     12  O   UNL     1       7.572   5.783  15.059  0.00  0.00    +0.000 OA
ATOM     13  C   UNL     1       6.981   5.203  13.991  0.00  0.00    +0.000 A 
ATOM     14  C   UNL     1       7.691   4.936  12.805  0.00  0.00    +0.000 A 
ATOM     15  C   UNL     1       7.185   3.951  11.964  0.00  0.00    +0.000 A 
ATOM     16  C   UNL     1       5.994   3.319  12.326  0.00  0.00    +0.000 A 
ATOM     17  C   UNL     1       5.240   3.704  13.495  0.00  0.00    +0.000 A 
ATOM     18  C   UNL     1       5.727   4.720  14.389  0.00  0.00    +0.000 A 
ATOM     19  C   UNL     1       5.438   5.385  15.819  0.00  0.00    +0.000 A 
ENDBRANCH   4   7
BRANCH   1  20
ATOM     20  C   UNL     1       0.878   8.425  20.899  0.00  0.00    +0.000 C 
BRANCH  20  24
ATOM     21  N   UNL     1       0.475  13.326  20.524  0.00  0.00    +0.000 N 
ATOM     22  C   UNL     1       0.244  12.008  20.384  0.00  0.00    +0.000 A 
ATOM     23  N   UNL     1       1.039  10.989  20.687  0.00  0.00    +0.000 NA
ATOM     24  C   UNL     1       0.351   9.798  20.411  0.00  0.00    +0.000 A 
ATOM     25  C   UNL     1      -0.914  10.150  19.971  0.00  0.00    +0.000 A 
ATOM     26  N   UNL     1      -0.965  11.527  19.930  0.00  0.00    +0.000 N 
ATOM     27  H   UNL     1       1.408  13.628  20.789  0.00  0.00    +0.000 HD
ATOM     28  H   UNL     1      -0.025  14.021  19.972  0.00  0.00    +0.000 HD
BRANCH  26  29
ATOM     29  C   UNL     1      -2.147  12.335  19.612  0.00  0.00    +0.000 C 
BRANCH  29  30
ATOM     30  C   UNL     1      -2.855  11.853  18.363  0.00  0.00    +0.000 A 
ATOM     31  C   UNL     1      -2.077  11.476  17.246  0.00  0.00    +0.000 A 
ATOM     32  C   UNL     1      -2.664  10.981  16.083  0.00  0.00    +0.000 A 
ATOM     33  C   UNL     1      -4.046  10.823  16.019  0.00  0.00    +0.000 A 
ATOM     34  C   UNL     1      -4.834  11.152  17.111  0.00  0.00    +0.000 A 
ATOM     35  C   UNL     1      -4.246  11.674  18.279  0.00  0.00    +0.000 A 
ATOM     36 CL   UNL     1      -5.316  12.073  19.576  0.00  0.00    +0.000 Cl
ENDBRANCH  29  30
ENDBRANCH  26  29
ENDBRANCH  20  24
ENDBRANCH   1  20
TORSDOF 5
ENDMDL
MODEL 2
REMARK VINA RESULT:     -10.2      1.063      1.477
REMARK  Name = 
REMARK  5 active torsions:
REMARK  status: ('A' for Active; 'I' for Inactive)
REMARK    1  A    between atoms: C_4  and  C_5
REMARK    2  A    between atoms: C_5  and  C_6
REMARK    3  A    between atoms: C_9  and  C_10
REMARK    4  A    between atoms: N_26  and  C_27
REMARK    5  A    between atoms: C_27  and  C_28
REMARK                            x       y       z     vdW  Elec       q    Type
REMARK                         _______ _______ _______ _____ _____    ______ ____
ROOT
ATOM      1  C   UNL     1       1.807   7.495  20.167  0.00  0.00    +0.000 A 
ATOM      2  C   UNL     1       2.359   6.252  20.431  0.00  0.00    +0.000 A 
ATOM      3  C   UNL     1       3.263   5.590  19.497  0.00  0.00    +0.000 A 
ATOM      4  C   UNL     1       3.713   6.058  18.201  0.00  0.00    +0.000 A 
ATOM      5  C   UNL     1       3.167   7.331  17.956  0.00  0.00    +0.000 A 
ATOM      6  C   UNL     1       2.247   8.016  18.909  0.00  0.00    +0.000 A 
ENDROOT
BRANCH   4   7
ATOM      7  C   UNL     1       4.518   5.039  17.143  0.00  0.00    +0.000 A 
ATOM      8  C   UNL     1       5.149   4.014  17.881  0.00  0.00    +0.000 A 
ATOM      9  C   UNL     1       6.477   4.280  18.198  0.00  0.00    +0.000 A 
ATOM     10  C   UNL     1       7.303   4.351  17.111  0.00  0.00    +0.000 A 
ATOM     11  C   UNL     1       6.796   5.356  16.258  0.00  0.00    +0.000 A 
ATOM     12  O   UNL     1       7.530   5.820  15.210  0.00  0.00    +0.000 OA
ATOM     13  C   UNL     1       6.952   5.258  14.125  0.00  0.00    +0.000 A 
ATOM     14  C   UNL     1       7.672   5.032  12.936  0.00  0.00    +0.000 A 
ATOM     15  C   UNL     1       7.185   4.061  12.067  0.00  0.00    +0.000 A 
ATOM     16  C   UNL     1       6.003   3.401  12.407  0.00  0.00    +0.000 A 
ATOM     17  C   UNL     1       5.237   3.745  13.582  0.00  0.00    +0.000 A 
ATOM     18  C   UNL     1       5.704   4.745  14.505  0.00  0.00    +0.000 A 
ATOM     19  C   UNL     1       5.398   5.369  15.949  0.00  0.00    +0.000 A 
ENDBRANCH   4   7
BRANCH   1  20
ATOM     20  C   UNL     1       0.743   8.239  21.031  0.00  0.00    +0.000 C 
BRANCH  20  24
ATOM     21  N   UNL     1      -0.385  12.971  21.848  0.00  0.00    +0.000 N 
ATOM     22  C   UNL     1      -0.140  11.802  21.230  0.00  0.00    +0.000 A 
ATOM     23  N   UNL     1       0.413  10.700  21.724  0.00  0.00    +0.000 NA
ATOM     24  C   UNL     1       0.419   9.723  20.718  0.00  0.00    +0.000 A 
ATOM     25  C   UNL     1      -0.199  10.274  19.609  0.00  0.00    +0.000 A 
ATOM     26  N   UNL     1      -0.520  11.578  19.924  0.00  0.00    +0.000 N 
ATOM     27  H   UNL     1      -0.015  13.109  22.785  0.00  0.00    +0.000 HD
ATOM     28  H   UNL     1      -0.490  13.842  21.331  0.00  0.00    +0.000 HD
BRANCH  26  29
ATOM     29  C   UNL     1      -1.273  12.506  19.076  0.00  0.00    +0.000 C 
BRANCH  29  30
ATOM     30  C   UNL     1      -2.747  12.163  19.014  0.00  0.00    +0.000 A 
ATOM     31  C   UNL     1      -3.608  12.688  20.003  0.00  0.00    +0.000 A 
ATOM     32  C   UNL     1      -4.980  12.448  19.976  0.00  0.00    +0.000 A 
ATOM     33  C   UNL     1      -5.531  11.698  18.941  0.00  0.00    +0.000 A 
ATOM     34  C   UNL     1      -4.717  11.197  17.937  0.00  0.00    +0.000 A 
ATOM     35  C   UNL     1      -3.327  11.418  17.973  0.00  0.00    +0.000 A 
ATOM     36 CL   UNL     1      -2.397  10.734  16.688  0.00  0.00    +0.000 Cl
ENDBRANCH  29  30
ENDBRANCH  26  29
ENDBRANCH  20  24
ENDBRANCH   1  20
TORSDOF 5
ENDMDL
MODEL 3
REMARK VINA RESULT:      -9.9      2.370      3.753
REMARK  Name = 
REMARK  5 active torsions:
REMARK  status: ('A' for Active; 'I' for Inactive)
REMARK    1  A    between atoms: C_4  and  C_5
REMARK    2  A    between atoms: C_5  and  C_6
REMARK    3  A    between atoms: C_9  and  C_10
REMARK    4  A    between atoms: N_26  and  C_27
REMARK    5  A    between atoms: C_27  and  C_28
REMARK                            x       y       z     vdW  Elec       q    Type
REMARK                         _______ _______ _______ _____ _____    ______ ____
ROOT
ATOM      1  C   UNL     1       1.512   8.272  19.906  0.00  0.00    +0.000 A 
ATOM      2  C   UNL     1       2.034   7.052  20.304  0.00  0.00    +0.000 A 
ATOM      3  C   UNL     1       2.945   6.286  19.461  0.00  0.00    +0.000 A 
ATOM      4  C   UNL     1       3.432   6.615  18.136  0.00  0.00    +0.000 A 
ATOM      5  C   UNL     1       2.916   7.867  17.754  0.00  0.00    +0.000 A 
ATOM      6  C   UNL     1       1.988   8.658  18.613  0.00  0.00    +0.000 A 
ENDROOT
BRANCH   4   7
ATOM      7  C   UNL     1       4.240   5.483  17.204  0.00  0.00    +0.000 A 
ATOM      8  C   UNL     1       4.734   4.461  18.043  0.00  0.00    +0.000 A 
ATOM      9  C   UNL     1       6.049   4.653  18.455  0.00  0.00    +0.000 A 
ATOM     10  C   UNL     1       6.961   4.603  17.436  0.00  0.00    +0.000 A 
ATOM     11  C   UNL     1       6.598   5.589  16.493  0.00  0.00    +0.000 A 
ATOM     12  O   UNL     1       7.443   5.939  15.486  0.00  0.00    +0.000 OA
ATOM     13  C   UNL     1       6.913   5.356  14.388  0.00  0.00    +0.000 A 
ATOM     14  C   UNL     1       7.704   5.012  13.276  0.00  0.00    +0.000 A 
ATOM     15  C   UNL     1       7.217   4.027  12.423  0.00  0.00    +0.000 A 
ATOM     16  C   UNL     1       5.966   3.472  12.699  0.00  0.00    +0.000 A 
ATOM     17  C   UNL     1       5.138   3.936  13.787  0.00  0.00    +0.000 A 
ATOM     18  C   UNL     1       5.604   4.954  14.690  0.00  0.00    +0.000 A 
ATOM     19  C   UNL     1       5.233   5.681  16.070  0.00  0.00    +0.000 A 
ENDBRANCH   4   7
BRANCH   1  20
ATOM     20  C   UNL     1       0.444   9.116  20.667  0.00  0.00    +0.000 C 
BRANCH  20  24
ATOM     21  N   UNL     1      -1.484  12.252  17.384  0.00  0.00    +0.000 N 
ATOM     22  C   UNL     1      -0.869  11.757  18.473  0.00  0.00    +0.000 A 
ATOM     23  N   UNL     1      -0.834  10.503  18.909  0.00  0.00    +0.000 NA
ATOM     24  C   UNL     1      -0.031  10.461  20.058  0.00  0.00    +0.000 A 
ATOM     25  C   UNL     1       0.453  11.742  20.267  0.00  0.00    +0.000 A 
ATOM     26  N   UNL     1      -0.095  12.550  19.293  0.00  0.00    +0.000 N 
ATOM     27  H   UNL     1      -2.104  11.642  16.859  0.00  0.00    +0.000 HD
ATOM     28  H   UNL     1      -1.740  13.235  17.311  0.00  0.00    +0.000 HD
BRANCH  26  29
ATOM     29  C   UNL     1       0.218  13.965  19.075  0.00  0.00    +0.000 C 
BRANCH  29  30
ATOM     30  C   UNL     1       1.689  14.267  19.273  0.00  0.00    +0.000 A 
ATOM     31  C   UNL     1       2.576  14.056  18.194  0.00  0.00    +0.000 A 
ATOM     32  C   UNL     1       3.932  14.357  18.297  0.00  0.00    +0.000 A 
ATOM     33  C   UNL     1       4.432  14.906  19.475  0.00  0.00    +0.000 A 
ATOM     34  C   UNL     1       3.581  15.156  20.540  0.00  0.00    +0.000 A 
ATOM     35  C   UNL     1       2.214  14.831  20.448  0.00  0.00    +0.000 A 
ATOM     36 CL   UNL     1       1.241  15.162  21.837  0.00  0.00    +0.000 Cl
ENDBRANCH  29  30
ENDBRANCH  26  29
ENDBRANCH  20  24
ENDBRANCH   1  20
TORSDOF 5
ENDMDL
MODEL 4
REMARK VINA RESULT:      -9.9      0.883      1.231
REMARK  Name = 
REMARK  5 active torsions:
REMARK  status: ('A' for Active; 'I' for Inactive)
REMARK    1  A    between atoms: C_4  and  C_5
REMARK    2  A    between atoms: C_5  and  C_6
REMARK    3  A    between atoms: C_9  and  C_10
REMARK    4  A    between atoms: N_26  and  C_27
REMARK    5  A    between atoms: C_27  and  C_28
REMARK                            x       y       z     vdW  Elec       q    Type
REMARK                         _______ _______ _______ _____ _____    ______ ____
ROOT
ATOM      1  C   UNL     1       1.861   7.331  20.080  0.00  0.00    +0.000 A 
ATOM      2  C   UNL     1       2.489   7.793  18.935  0.00  0.00    +0.000 A 
ATOM      3  C   UNL     1       3.143   6.892  17.993  0.00  0.00    +0.000 A 
ATOM      4  C   UNL     1       3.271   5.451  18.071  0.00  0.00    +0.000 A 
ATOM      5  C   UNL     1       2.608   4.992  19.224  0.00  0.00    +0.000 A 
ATOM      6  C   UNL     1       1.932   5.906  20.189  0.00  0.00    +0.000 A 
ENDROOT
BRANCH   4   7
ATOM      7  C   UNL     1       4.302   4.615  17.050  0.00  0.00    +0.000 A 
ATOM      8  C   UNL     1       5.049   3.687  17.807  0.00  0.00    +0.000 A 
ATOM      9  C   UNL     1       6.291   4.162  18.219  0.00  0.00    +0.000 A 
ATOM     10  C   UNL     1       7.160   4.404  17.191  0.00  0.00    +0.000 A 
ATOM     11  C   UNL     1       6.545   5.336  16.326  0.00  0.00    +0.000 A 
ATOM     12  O   UNL     1       7.254   5.949  15.340  0.00  0.00    +0.000 OA
ATOM     13  C   UNL     1       6.849   5.332  14.207  0.00  0.00    +0.000 A 
ATOM     14  C   UNL     1       7.670   5.268  13.065  0.00  0.00    +0.000 A 
ATOM     15  C   UNL     1       7.410   4.257  12.146  0.00  0.00    +0.000 A 
ATOM     16  C   UNL     1       6.337   3.398  12.392  0.00  0.00    +0.000 A 
ATOM     17  C   UNL     1       5.452   3.572  13.519  0.00  0.00    +0.000 A 
ATOM     18  C   UNL     1       5.684   4.607  14.491  0.00  0.00    +0.000 A 
ATOM     19  C   UNL     1       5.187   5.125  15.924  0.00  0.00    +0.000 A 
ENDBRANCH   4   7
BRANCH   1  20
ATOM     20  C   UNL     1       1.237   8.205  21.211  0.00  0.00    +0.000 C 
BRANCH  20  24
ATOM     21  N   UNL     1      -0.349  12.804  22.021  0.00  0.00    +0.000 N 
ATOM     22  C   UNL     1       0.079  11.688  21.406  0.00  0.00    +0.000 A 
ATOM     23  N   UNL     1       0.619  10.599  21.941  0.00  0.00    +0.000 NA
ATOM     24  C   UNL     1       0.864   9.679  20.910  0.00  0.00    +0.000 A 
ATOM     25  C   UNL     1       0.402  10.248  19.736  0.00  0.00    +0.000 A 
ATOM     26  N   UNL     1      -0.060  11.510  20.046  0.00  0.00    +0.000 N 
ATOM     27  H   UNL     1      -0.153  12.915  23.012  0.00  0.00    +0.000 HD
ATOM     28  H   UNL     1      -0.429  13.693  21.531  0.00  0.00    +0.000 HD
BRANCH  26  29
ATOM     29  C   UNL     1      -0.725  12.433  19.121  0.00  0.00    +0.000 C 
BRANCH  29  30
ATOM     30  C   UNL     1      -2.014  11.863  18.567  0.00  0.00    +0.000 A 
ATOM     31  C   UNL     1      -1.947  10.975  17.471  0.00  0.00    +0.000 A 
ATOM     32  C   UNL     1      -3.091  10.381  16.944  0.00  0.00    +0.000 A 
ATOM     33  C   UNL     1      -4.332  10.638  17.519  0.00  0.00    +0.000 A 
ATOM     34  C   UNL     1      -4.427  11.479  18.618  0.00  0.00    +0.000 A 
ATOM     35  C   UNL     1      -3.276  12.100  19.138  0.00  0.00    +0.000 A 
ATOM     36 CL   UNL     1      -3.503  13.147  20.494  0.00  0.00    +0.000 Cl
ENDBRANCH  29  30
ENDBRANCH  26  29
ENDBRANCH  20  24
ENDBRANCH   1  20
TORSDOF 5
ENDMDL
MODEL 5
REMARK VINA RESULT:      -9.8      2.205      3.142
REMARK  Name = 
REMARK  5 active torsions:
REMARK  status: ('A' for Active; 'I' for Inactive)
REMARK    1  A    between atoms: C_4  and  C_5
REMARK    2  A    between atoms: C_5  and  C_6
REMARK    3  A    between atoms: C_9  and  C_10
REMARK    4  A    between atoms: N_26  and  C_27
REMARK    5  A    between atoms: C_27  and  C_28
REMARK                            x       y       z     vdW  Elec       q    Type
REMARK                         _______ _______ _______ _____ _____    ______ ____
ROOT
ATOM      1  C   UNL     1       1.845   7.749  19.999  0.00  0.00    +0.000 A 
ATOM      2  C   UNL     1       2.387   6.514  20.314  0.00  0.00    +0.000 A 
ATOM      3  C   UNL     1       3.283   5.806  19.407  0.00  0.00    +0.000 A 
ATOM      4  C   UNL     1       3.734   6.216  18.092  0.00  0.00    +0.000 A 
ATOM      5  C   UNL     1       3.199   7.482  17.796  0.00  0.00    +0.000 A 
ATOM      6  C   UNL     1       2.286   8.214  18.720  0.00  0.00    +0.000 A 
ENDROOT
BRANCH   4   7
ATOM      7  C   UNL     1       4.529   5.147  17.077  0.00  0.00    +0.000 A 
ATOM      8  C   UNL     1       5.146   4.143  17.855  0.00  0.00    +0.000 A 
ATOM      9  C   UNL     1       6.477   4.405  18.166  0.00  0.00    +0.000 A 
ATOM     10  C   UNL     1       7.306   4.424  17.078  0.00  0.00    +0.000 A 
ATOM     11  C   UNL     1       6.813   5.401  16.185  0.00  0.00    +0.000 A 
ATOM     12  O   UNL     1       7.554   5.814  15.123  0.00  0.00    +0.000 OA
ATOM     13  C   UNL     1       6.972   5.218  14.058  0.00  0.00    +0.000 A 
ATOM     14  C   UNL     1       7.691   4.937  12.881  0.00  0.00    +0.000 A 
ATOM     15  C   UNL     1       7.194   3.939  12.049  0.00  0.00    +0.000 A 
ATOM     16  C   UNL     1       6.002   3.308  12.412  0.00  0.00    +0.000 A 
ATOM     17  C   UNL     1       5.239   3.706  13.571  0.00  0.00    +0.000 A 
ATOM     18  C   UNL     1       5.717   4.736  14.455  0.00  0.00    +0.000 A 
ATOM     19  C   UNL     1       5.416   5.419  15.873  0.00  0.00    +0.000 A 
ENDBRANCH   4   7
BRANCH   1  20
ATOM     20  C   UNL     1       0.789   8.539  20.833  0.00  0.00    +0.000 C 
BRANCH  20  24
ATOM     21  N   UNL     1      -0.088  13.250  22.002  0.00  0.00    +0.000 N 
ATOM     22  C   UNL     1       0.199  12.136  21.304  0.00  0.00    +0.000 A 
ATOM     23  N   UNL     1       0.514  10.929  21.759  0.00  0.00    +0.000 NA
ATOM     24  C   UNL     1       0.683  10.076  20.659  0.00  0.00    +0.000 A 
ATOM     25  C   UNL     1       0.409  10.816  19.521  0.00  0.00    +0.000 A 
ATOM     26  N   UNL     1       0.136  12.105  19.928  0.00  0.00    +0.000 N 
ATOM     27  H   UNL     1       0.049  13.238  23.009  0.00  0.00    +0.000 HD
ATOM     28  H   UNL     1       0.015  14.179  21.598  0.00  0.00    +0.000 HD
BRANCH  26  29
ATOM     29  C   UNL     1      -0.301  13.205  19.062  0.00  0.00    +0.000 C 
BRANCH  29  30
ATOM     30  C   UNL     1       0.813  14.192  18.779  0.00  0.00    +0.000 A 
ATOM     31  C   UNL     1       2.044  13.702  18.290  0.00  0.00    +0.000 A 
ATOM     32  C   UNL     1       3.092  14.561  17.967  0.00  0.00    +0.000 A 
ATOM     33  C   UNL     1       2.925  15.937  18.098  0.00  0.00    +0.000 A 
ATOM     34  C   UNL     1       1.717  16.450  18.544  0.00  0.00    +0.000 A 
ATOM     35  C   UNL     1       0.663  15.584  18.893  0.00  0.00    +0.000 A 
ATOM     36 CL   UNL     1      -0.794  16.321  19.459  0.00  0.00    +0.000 Cl
ENDBRANCH  29  30
ENDBRANCH  26  29
ENDBRANCH  20  24
ENDBRANCH   1  20
TORSDOF 5
ENDMDL
MODEL 6
REMARK VINA RESULT:      -9.8      1.832      2.764
REMARK  Name = 
REMARK  5 active torsions:
REMARK  status: ('A' for Active; 'I' for Inactive)
REMARK    1  A    between atoms: C_4  and  C_5
REMARK    2  A    between atoms: C_5  and  C_6
REMARK    3  A    between atoms: C_9  and  C_10
REMARK    4  A    between atoms: N_26  and  C_27
REMARK    5  A    between atoms: C_27  and  C_28
REMARK                            x       y       z     vdW  Elec       q    Type
REMARK                         _______ _______ _______ _____ _____    ______ ____
ROOT
ATOM      1  C   UNL     1       1.841   7.818  19.802  0.00  0.00    +0.000 A 
ATOM      2  C   UNL     1       2.372   8.145  18.565  0.00  0.00    +0.000 A 
ATOM      3  C   UNL     1       3.007   7.153  17.706  0.00  0.00    +0.000 A 
ATOM      4  C   UNL     1       3.208   5.741  17.963  0.00  0.00    +0.000 A 
ATOM      5  C   UNL     1       2.642   5.415  19.209  0.00  0.00    +0.000 A 
ATOM      6  C   UNL     1       1.987   6.423  20.091  0.00  0.00    +0.000 A 
ENDROOT
BRANCH   4   7
ATOM      7  C   UNL     1       4.210   4.816  16.991  0.00  0.00    +0.000 A 
ATOM      8  C   UNL     1       4.865   3.852  17.787  0.00  0.00    +0.000 A 
ATOM      9  C   UNL     1       6.123   4.247  18.233  0.00  0.00    +0.000 A 
ATOM     10  C   UNL     1       7.039   4.409  17.231  0.00  0.00    +0.000 A 
ATOM     11  C   UNL     1       6.520   5.365  16.331  0.00  0.00    +0.000 A 
ATOM     12  O   UNL     1       7.301   5.908  15.359  0.00  0.00    +0.000 OA
ATOM     13  C   UNL     1       6.891   5.300  14.223  0.00  0.00    +0.000 A 
ATOM     14  C   UNL     1       7.742   5.158  13.110  0.00  0.00    +0.000 A 
ATOM     15  C   UNL     1       7.441   4.150  12.200  0.00  0.00    +0.000 A 
ATOM     16  C   UNL     1       6.303   3.373  12.424  0.00  0.00    +0.000 A 
ATOM     17  C   UNL     1       5.397   3.629  13.518  0.00  0.00    +0.000 A 
ATOM     18  C   UNL     1       5.670   4.663  14.480  0.00  0.00    +0.000 A 
ATOM     19  C   UNL     1       5.164   5.241  15.887  0.00  0.00    +0.000 A 
ENDBRANCH   4   7
BRANCH   1  20
ATOM     20  C   UNL     1       1.250   8.810  20.850  0.00  0.00    +0.000 C 
BRANCH  20  24
ATOM     21  N   UNL     1      -1.322  11.681  17.773  0.00  0.00    +0.000 N 
ATOM     22  C   UNL     1      -0.809  11.144  18.894  0.00  0.00    +0.000 A 
ATOM     23  N   UNL     1      -0.145  10.003  19.040  0.00  0.00    +0.000 NA
ATOM     24  C   UNL     1       0.233   9.883  20.385  0.00  0.00    +0.000 A 
ATOM     25  C   UNL     1      -0.195  11.030  21.033  0.00  0.00    +0.000 A 
ATOM     26  N   UNL     1      -0.868  11.798  20.106  0.00  0.00    +0.000 N 
ATOM     27  H   UNL     1      -1.320  11.123  16.925  0.00  0.00    +0.000 HD
ATOM     28  H   UNL     1      -2.083  12.358  17.801  0.00  0.00    +0.000 HD
BRANCH  26  29
ATOM     29  C   UNL     1      -1.408  13.141  20.333  0.00  0.00    +0.000 C 
BRANCH  29  30
ATOM     30  C   UNL     1      -2.685  13.119  21.147  0.00  0.00    +0.000 A 
ATOM     31  C   UNL     1      -3.900  12.819  20.493  0.00  0.00    +0.000 A 
ATOM     32  C   UNL     1      -5.103  12.737  21.191  0.00  0.00    +0.000 A 
ATOM     33  C   UNL     1      -5.116  12.925  22.571  0.00  0.00    +0.000 A 
ATOM     34  C   UNL     1      -3.933  13.188  23.247  0.00  0.00    +0.000 A 
ATOM     35  C   UNL     1      -2.720  13.294  22.540  0.00  0.00    +0.000 A 
ATOM     36 CL   UNL     1      -1.307  13.646  23.471  0.00  0.00    +0.000 Cl
ENDBRANCH  29  30
ENDBRANCH  26  29
ENDBRANCH  20  24
ENDBRANCH   1  20
TORSDOF 5
ENDMDL
MODEL 7
REMARK VINA RESULT:      -9.8      0.607      1.038
REMARK  Name = 
REMARK  5 active torsions:
REMARK  status: ('A' for Active; 'I' for Inactive)
REMARK    1  A    between atoms: C_4  and  C_5
REMARK    2  A    between atoms: C_5  and  C_6
REMARK    3  A    between atoms: C_9  and  C_10
REMARK    4  A    between atoms: N_26  and  C_27
REMARK    5  A    between atoms: C_27  and  C_28
REMARK                            x       y       z     vdW  Elec       q    Type
REMARK                         _______ _______ _______ _____ _____    ______ ____
ROOT
ATOM      1  C   UNL     1       1.949   7.788  19.808  0.00  0.00    +0.000 A 
ATOM      2  C   UNL     1       2.437   8.107  18.552  0.00  0.00    +0.000 A 
ATOM      3  C   UNL     1       3.063   7.113  17.688  0.00  0.00    +0.000 A 
ATOM      4  C   UNL     1       3.297   5.709  17.959  0.00  0.00    +0.000 A 
ATOM      5  C   UNL     1       2.775   5.392  19.226  0.00  0.00    +0.000 A 
ATOM      6  C   UNL     1       2.128   6.401  20.113  0.00  0.00    +0.000 A 
ENDROOT
BRANCH   4   7
ATOM      7  C   UNL     1       4.286   4.788  16.970  0.00  0.00    +0.000 A 
ATOM      8  C   UNL     1       4.970   3.836  17.757  0.00  0.00    +0.000 A 
ATOM      9  C   UNL     1       6.234   4.247  18.171  0.00  0.00    +0.000 A 
ATOM     10  C   UNL     1       7.125   4.412  17.147  0.00  0.00    +0.000 A 
ATOM     11  C   UNL     1       6.575   5.356  16.253  0.00  0.00    +0.000 A 
ATOM     12  O   UNL     1       7.328   5.900  15.260  0.00  0.00    +0.000 OA
ATOM     13  C   UNL     1       6.898   5.281  14.138  0.00  0.00    +0.000 A 
ATOM     14  C   UNL     1       7.725   5.139  13.007  0.00  0.00    +0.000 A 
ATOM     15  C   UNL     1       7.413   4.122  12.110  0.00  0.00    +0.000 A 
ATOM     16  C   UNL     1       6.289   3.335  12.366  0.00  0.00    +0.000 A 
ATOM     17  C   UNL     1       5.406   3.589  13.479  0.00  0.00    +0.000 A 
ATOM     18  C   UNL     1       5.690   4.633  14.427  0.00  0.00    +0.000 A 
ATOM     19  C   UNL     1       5.211   5.215  15.842  0.00  0.00    +0.000 A 
ENDBRANCH   4   7
BRANCH   1  20
ATOM     20  C   UNL     1       1.372   8.785  20.860  0.00  0.00    +0.000 C 
BRANCH  20  24
ATOM     21  N   UNL     1       0.390  13.432  19.532  0.00  0.00    +0.000 N 
ATOM     22  C   UNL     1       0.242  12.135  19.856  0.00  0.00    +0.000 A 
ATOM     23  N   UNL     1       1.174  11.196  19.969  0.00  0.00    +0.000 NA
ATOM     24  C   UNL     1       0.550  10.006  20.373  0.00  0.00    +0.000 A 
ATOM     25  C   UNL     1      -0.795  10.286  20.542  0.00  0.00    +0.000 A 
ATOM     26  N   UNL     1      -0.986  11.606  20.192  0.00  0.00    +0.000 N 
ATOM     27  H   UNL     1       1.302  13.751  19.218  0.00  0.00    +0.000 HD
ATOM     28  H   UNL     1      -0.376  13.981  19.146  0.00  0.00    +0.000 HD
BRANCH  26  29
ATOM     29  C   UNL     1      -2.241  12.354  20.309  0.00  0.00    +0.000 C 
BRANCH  29  30
ATOM     30  C   UNL     1      -3.185  12.080  19.157  0.00  0.00    +0.000 A 
ATOM     31  C   UNL     1      -2.646  11.631  17.931  0.00  0.00    +0.000 A 
ATOM     32  C   UNL     1      -3.463  11.317  16.848  0.00  0.00    +0.000 A 
ATOM     33  C   UNL     1      -4.846  11.417  16.972  0.00  0.00    +0.000 A 
ATOM     34  C   UNL     1      -5.408  11.823  18.174  0.00  0.00    +0.000 A 
ATOM     35  C   UNL     1      -4.583  12.163  19.263  0.00  0.00    +0.000 A 
ATOM     36 CL   UNL     1      -5.379  12.677  20.708  0.00  0.00    +0.000 Cl
ENDBRANCH  29  30
ENDBRANCH  26  29
ENDBRANCH  20  24
ENDBRANCH   1  20
TORSDOF 5
ENDMDL
MODEL 8
REMARK VINA RESULT:      -9.8      0.886      1.106
REMARK  Name = 
REMARK  5 active torsions:
REMARK  status: ('A' for Active; 'I' for Inactive)
REMARK    1  A    between atoms: C_4  and  C_5
REMARK    2  A    between atoms: C_5  and  C_6
REMARK    3  A    between atoms: C_9  and  C_10
REMARK    4  A    between atoms: N_26  and  C_27
REMARK    5  A    between atoms: C_27  and  C_28
REMARK                            x       y       z     vdW  Elec       q    Type
REMARK                         _______ _______ _______ _____ _____    ______ ____
ROOT
ATOM      1  C   UNL     1       1.889   7.865  19.848  0.00  0.00    +0.000 A 
ATOM      2  C   UNL     1       2.373   6.607  20.166  0.00  0.00    +0.000 A 
ATOM      3  C   UNL     1       3.260   5.869  19.274  0.00  0.00    +0.000 A 
ATOM      4  C   UNL     1       3.757   6.268  17.972  0.00  0.00    +0.000 A 
ATOM      5  C   UNL     1       3.280   7.557  17.673  0.00  0.00    +0.000 A 
ATOM      6  C   UNL     1       2.377   8.319  18.582  0.00  0.00    +0.000 A 
ENDROOT
BRANCH   4   7
ATOM      7  C   UNL     1       4.530   5.174  16.967  0.00  0.00    +0.000 A 
ATOM      8  C   UNL     1       5.143   4.176  17.756  0.00  0.00    +0.000 A 
ATOM      9  C   UNL     1       6.480   4.429  18.049  0.00  0.00    +0.000 A 
ATOM     10  C   UNL     1       7.298   4.421  16.953  0.00  0.00    +0.000 A 
ATOM     11  C   UNL     1       6.808   5.388  16.049  0.00  0.00    +0.000 A 
ATOM     12  O   UNL     1       7.543   5.776  14.973  0.00  0.00    +0.000 OA
ATOM     13  C   UNL     1       6.944   5.168  13.924  0.00  0.00    +0.000 A 
ATOM     14  C   UNL     1       7.649   4.861  12.745  0.00  0.00    +0.000 A 
ATOM     15  C   UNL     1       7.132   3.855  11.935  0.00  0.00    +0.000 A 
ATOM     16  C   UNL     1       5.938   3.243  12.319  0.00  0.00    +0.000 A 
ATOM     17  C   UNL     1       5.190   3.668  13.478  0.00  0.00    +0.000 A 
ATOM     18  C   UNL     1       5.687   4.707  14.340  0.00  0.00    +0.000 A 
ATOM     19  C   UNL     1       5.408   5.416  15.750  0.00  0.00    +0.000 A 
ENDBRANCH   4   7
BRANCH   1  20
ATOM     20  C   UNL     1       0.847   8.691  20.664  0.00  0.00    +0.000 C 
BRANCH  20  24
ATOM     21  N   UNL     1       0.294  12.907  18.164  0.00  0.00    +0.000 N 
ATOM     22  C   UNL     1       0.033  11.810  18.897  0.00  0.00    +0.000 A 
ATOM     23  N   UNL     1       0.809  10.757  19.121  0.00  0.00    +0.000 NA
ATOM     24  C   UNL     1       0.129   9.885  19.984  0.00  0.00    +0.000 A 
ATOM     25  C   UNL     1      -1.076  10.487  20.305  0.00  0.00    +0.000 A 
ATOM     26  N   UNL     1      -1.142  11.672  19.604  0.00  0.00    +0.000 N 
ATOM     27  H   UNL     1       1.141  12.923  17.603  0.00  0.00    +0.000 HD
ATOM     28  H   UNL     1      -0.450  13.485  17.777  0.00  0.00    +0.000 HD
BRANCH  26  29
ATOM     29  C   UNL     1      -2.202  12.679  19.716  0.00  0.00    +0.000 C 
BRANCH  29  30
ATOM     30  C   UNL     1      -3.513  12.202  19.127  0.00  0.00    +0.000 A 
ATOM     31  C   UNL     1      -3.493  11.520  17.891  0.00  0.00    +0.000 A 
ATOM     32  C   UNL     1      -4.659  11.016  17.318  0.00  0.00    +0.000 A 
ATOM     33  C   UNL     1      -5.874  11.157  17.983  0.00  0.00    +0.000 A 
ATOM     34  C   UNL     1      -5.921  11.793  19.215  0.00  0.00    +0.000 A 
ATOM     35  C   UNL     1      -4.749  12.324  19.785  0.00  0.00    +0.000 A 
ATOM     36 CL   UNL     1      -4.917  13.116  21.312  0.00  0.00    +0.000 Cl
ENDBRANCH  29  30
ENDBRANCH  26  29
ENDBRANCH  20  24
ENDBRANCH   1  20
TORSDOF 5
ENDMDL
MODEL 9
REMARK VINA RESULT:      -9.7      1.452      2.156
REMARK  Name = 
REMARK  5 active torsions:
REMARK  status: ('A' for Active; 'I' for Inactive)
REMARK    1  A    between atoms: C_4  and  C_5
REMARK    2  A    between atoms: C_5  and  C_6
REMARK    3  A    between atoms: C_9  and  C_10
REMARK    4  A    between atoms: N_26  and  C_27
REMARK    5  A    between atoms: C_27  and  C_28
REMARK                            x       y       z     vdW  Elec       q    Type
REMARK                         _______ _______ _______ _____ _____    ______ ____
ROOT
ATOM      1  C   UNL     1       1.764   8.560  19.514  0.00  0.00    +0.000 A 
ATOM      2  C   UNL     1       2.075   7.265  19.896  0.00  0.00    +0.000 A 
ATOM      3  C   UNL     1       2.958   6.415  19.106  0.00  0.00    +0.000 A 
ATOM      4  C   UNL     1       3.619   6.726  17.854  0.00  0.00    +0.000 A 
ATOM      5  C   UNL     1       3.316   8.051  17.491  0.00  0.00    +0.000 A 
ATOM      6  C   UNL     1       2.418   8.928  18.296  0.00  0.00    +0.000 A 
ENDROOT
BRANCH   4   7
ATOM      7  C   UNL     1       4.361   5.531  16.945  0.00  0.00    +0.000 A 
ATOM      8  C   UNL     1       4.820   4.513  17.809  0.00  0.00    +0.000 A 
ATOM      9  C   UNL     1       6.148   4.656  18.197  0.00  0.00    +0.000 A 
ATOM     10  C   UNL     1       7.042   4.534  17.170  0.00  0.00    +0.000 A 
ATOM     11  C   UNL     1       6.711   5.508  16.201  0.00  0.00    +0.000 A 
ATOM     12  O   UNL     1       7.557   5.788  15.174  0.00  0.00    +0.000 OA
ATOM     13  C   UNL     1       6.985   5.198  14.101  0.00  0.00    +0.000 A 
ATOM     14  C   UNL     1       7.745   4.786  12.989  0.00  0.00    +0.000 A 
ATOM     15  C   UNL     1       7.200   3.800  12.172  0.00  0.00    +0.000 A 
ATOM     16  C   UNL     1       5.929   3.312  12.481  0.00  0.00    +0.000 A 
ATOM     17  C   UNL     1       5.140   3.845  13.565  0.00  0.00    +0.000 A 
ATOM     18  C   UNL     1       5.664   4.866  14.432  0.00  0.00    +0.000 A 
ATOM     19  C   UNL     1       5.346   5.649  15.794  0.00  0.00    +0.000 A 
ENDBRANCH   4   7
BRANCH   1  20
ATOM     20  C   UNL     1       0.745   9.513  20.212  0.00  0.00    +0.000 C 
BRANCH  20  24
ATOM     21  N   UNL     1      -2.162  10.458  16.341  0.00  0.00    +0.000 N 
ATOM     22  C   UNL     1      -1.668  10.419  17.591  0.00  0.00    +0.000 A 
ATOM     23  N   UNL     1      -0.689   9.664  18.074  0.00  0.00    +0.000 NA
ATOM     24  C   UNL     1      -0.494  10.006  19.421  0.00  0.00    +0.000 A 
ATOM     25  C   UNL     1      -1.372  11.037  19.712  0.00  0.00    +0.000 A 
ATOM     26  N   UNL     1      -2.119  11.270  18.577  0.00  0.00    +0.000 N 
ATOM     27  H   UNL     1      -1.848   9.757  15.675  0.00  0.00    +0.000 HD
ATOM     28  H   UNL     1      -3.100  10.800  16.144  0.00  0.00    +0.000 HD
BRANCH  26  29
ATOM     29  C   UNL     1      -3.106  12.341  18.403  0.00  0.00    +0.000 C 
BRANCH  29  30
ATOM     30  C   UNL     1      -4.475  11.950  18.919  0.00  0.00    +0.000 A 
ATOM     31  C   UNL     1      -5.262  11.065  18.150  0.00  0.00    +0.000 A 
ATOM     32  C   UNL     1      -6.510  10.631  18.590  0.00  0.00    +0.000 A 
ATOM     33  C   UNL     1      -6.993  11.050  19.827  0.00  0.00    +0.000 A 
ATOM     34  C   UNL     1      -6.230  11.893  20.620  0.00  0.00    +0.000 A 
ATOM     35  C   UNL     1      -4.977  12.352  20.168  0.00  0.00    +0.000 A 
ATOM     36 CL   UNL     1      -4.114  13.417  21.220  0.00  0.00    +0.000 Cl
ENDBRANCH  29  30
ENDBRANCH  26  29
ENDBRANCH  20  24
ENDBRANCH   1  20
TORSDOF 5
ENDMDL
