MODEL 1
REMARK VINA RESULT:      -6.7      0.000      0.000
REMARK  Name = 
REMARK  9 active torsions:
REMARK  status: ('A' for Active; 'I' for Inactive)
REMARK    1  A    between atoms: C_1  and  C_2
REMARK    2  A    between atoms: C_2  and  C_3
REMARK    3  A    between atoms: C_3  and  N_4
REMARK    4  A    between atoms: N_4  and  C_5
REMARK    5  A    between atoms: C_5  and  C_6
REMARK    6  A    between atoms: C_6  and  C_7
REMARK    7  A    between atoms: C_8  and  C_10
REMARK    8  A    between atoms: C_16  and  O_17
REMARK    9  A    between atoms: O_17  and  C_18
REMARK                            x       y       z     vdW  Elec       q    Type
REMARK                         _______ _______ _______ _____ _____    ______ ____
ROOT
ATOM      1  N   UNL     1       3.338   4.463  19.667  0.00  0.00    +0.000 N 
ATOM      2  C   UNL     1       4.178   3.553  18.976  0.00  0.00    +0.000 C 
ATOM      3  O   UNL     1       4.184   2.349  19.222  0.00  0.00    +0.000 OA
ENDROOT
BRANCH   2   4
ATOM      4  C   UNL     1       5.102   4.012  17.902  0.00  0.00    +0.000 A 
ATOM      5  C   UNL     1       4.643   3.974  16.574  0.00  0.00    +0.000 A 
ATOM      6  C   UNL     1       5.478   4.322  15.521  0.00  0.00    +0.000 A 
ATOM      7  F   UNL     1       5.036   4.189  14.264  0.00  0.00    +0.000 F 
ATOM      8  C   UNL     1       6.756   4.796  15.754  0.00  0.00    +0.000 A 
ATOM      9  C   UNL     1       7.185   4.956  17.069  0.00  0.00    +0.000 A 
ATOM     10  C   UNL     1       6.375   4.570  18.153  0.00  0.00    +0.000 A 
BRANCH  10  11
ATOM     11  O   UNL     1       6.906   4.953  19.355  0.00  0.00    +0.000 OA
ATOM     12  C   UNL     1       7.964   5.901  19.347  0.00  0.00    +0.000 C 
ENDBRANCH  10  11
ENDBRANCH   2   4
BRANCH   1  13
ATOM     13  C   UNL     1       2.421   3.873  20.664  0.00  0.00    +0.000 C 
BRANCH  13  15
ATOM     14  C   UNL     1       0.710   2.728  19.121  0.00  0.00    +0.000 C 
ATOM     15  C   UNL     1       0.948   3.710  20.255  0.00  0.00    +0.000 C 
ENDBRANCH  13  15
ENDBRANCH   1  13
BRANCH   1  16
ATOM     16  C   UNL     1       3.244   5.931  19.500  0.00  0.00    +0.000 C 
BRANCH  16  17
ATOM     17  C   UNL     1       2.478   6.465  18.285  0.00  0.00    +0.000 C 
ATOM     18  C   UNL     1       2.992   7.794  17.765  0.00  0.00    +0.000 C 
ENDBRANCH  16  17
ENDBRANCH   1  16
TORSDOF 6
ENDMDL
MODEL 2
REMARK VINA RESULT:      -6.4      0.997      1.288
REMARK  Name = 
REMARK  9 active torsions:
REMARK  status: ('A' for Active; 'I' for Inactive)
REMARK    1  A    between atoms: C_1  and  C_2
REMARK    2  A    between atoms: C_2  and  C_3
REMARK    3  A    between atoms: C_3  and  N_4
REMARK    4  A    between atoms: N_4  and  C_5
REMARK    5  A    between atoms: C_5  and  C_6
REMARK    6  A    between atoms: C_6  and  C_7
REMARK    7  A    between atoms: C_8  and  C_10
REMARK    8  A    between atoms: C_16  and  O_17
REMARK    9  A    between atoms: O_17  and  C_18
REMARK                            x       y       z     vdW  Elec       q    Type
REMARK                         _______ _______ _______ _____ _____    ______ ____
ROOT
ATOM      1  N   UNL     1       2.526   4.113  18.282  0.00  0.00    +0.000 N 
ATOM      2  C   UNL     1       3.617   3.271  17.945  0.00  0.00    +0.000 C 
ATOM      3  O   UNL     1       3.638   2.077  18.232  0.00  0.00    +0.000 OA
ENDROOT
BRANCH   2   4
ATOM      4  C   UNL     1       4.803   3.795  17.212  0.00  0.00    +0.000 A 
ATOM      5  C   UNL     1       4.732   3.875  15.811  0.00  0.00    +0.000 A 
ATOM      6  C   UNL     1       5.827   4.289  15.065  0.00  0.00    +0.000 A 
ATOM      7  F   UNL     1       5.754   4.269  13.728  0.00  0.00    +0.000 F 
ATOM      8  C   UNL     1       6.989   4.715  15.682  0.00  0.00    +0.000 A 
ATOM      9  C   UNL     1       7.034   4.758  17.073  0.00  0.00    +0.000 A 
ATOM     10  C   UNL     1       5.954   4.303  17.853  0.00  0.00    +0.000 A 
BRANCH  10  11
ATOM     11  O   UNL     1       6.129   4.576  19.183  0.00  0.00    +0.000 OA
ATOM     12  C   UNL     1       7.113   5.534  19.546  0.00  0.00    +0.000 C 
ENDBRANCH  10  11
ENDBRANCH   2   4
BRANCH   1  13
ATOM     13  C   UNL     1       1.382   3.457  18.950  0.00  0.00    +0.000 C 
BRANCH  13  15
ATOM     14  C   UNL     1       1.680   2.922  21.449  0.00  0.00    +0.000 C 
ATOM     15  C   UNL     1       1.096   3.859  20.407  0.00  0.00    +0.000 C 
ENDBRANCH  13  15
ENDBRANCH   1  13
BRANCH   1  16
ATOM     16  C   UNL     1       2.375   5.563  18.030  0.00  0.00    +0.000 C 
BRANCH  16  17
ATOM     17  C   UNL     1       3.076   6.532  18.986  0.00  0.00    +0.000 C 
ATOM     18  C   UNL     1       2.129   7.348  19.845  0.00  0.00    +0.000 C 
ENDBRANCH  16  17
ENDBRANCH   1  16
TORSDOF 6
ENDMDL
MODEL 3
REMARK VINA RESULT:      -6.4      1.980      2.721
REMARK  Name = 
REMARK  9 active torsions:
REMARK  status: ('A' for Active; 'I' for Inactive)
REMARK    1  A    between atoms: C_1  and  C_2
REMARK    2  A    between atoms: C_2  and  C_3
REMARK    3  A    between atoms: C_3  and  N_4
REMARK    4  A    between atoms: N_4  and  C_5
REMARK    5  A    between atoms: C_5  and  C_6
REMARK    6  A    between atoms: C_6  and  C_7
REMARK    7  A    between atoms: C_8  and  C_10
REMARK    8  A    between atoms: C_16  and  O_17
REMARK    9  A    between atoms: O_17  and  C_18
REMARK                            x       y       z     vdW  Elec       q    Type
REMARK                         _______ _______ _______ _____ _____    ______ ____
ROOT
ATOM      1  N   UNL     1       3.474   4.653  19.802  0.00  0.00    +0.000 N 
ATOM      2  C   UNL     1       4.697   4.121  19.318  0.00  0.00    +0.000 C 
ATOM      3  O   UNL     1       5.043   2.963  19.539  0.00  0.00    +0.000 OA
ENDROOT
BRANCH   2   4
ATOM      4  C   UNL     1       5.632   4.946  18.503  0.00  0.00    +0.000 A 
ATOM      5  C   UNL     1       6.710   5.564  19.158  0.00  0.00    +0.000 A 
ATOM      6  C   UNL     1       7.577   6.402  18.469  0.00  0.00    +0.000 A 
ATOM      7  F   UNL     1       8.540   7.044  19.142  0.00  0.00    +0.000 F 
ATOM      8  C   UNL     1       7.456   6.584  17.104  0.00  0.00    +0.000 A 
ATOM      9  C   UNL     1       6.468   5.882  16.417  0.00  0.00    +0.000 A 
ATOM     10  C   UNL     1       5.549   5.062  17.098  0.00  0.00    +0.000 A 
BRANCH  10  11
ATOM     11  O   UNL     1       4.767   4.341  16.236  0.00  0.00    +0.000 OA
ATOM     12  C   UNL     1       5.274   4.071  14.938  0.00  0.00    +0.000 C 
ENDBRANCH  10  11
ENDBRANCH   2   4
BRANCH   1  13
ATOM     13  C   UNL     1       2.606   3.713  20.542  0.00  0.00    +0.000 C 
BRANCH  13  15
ATOM     14  C   UNL     1       1.026   2.768  18.744  0.00  0.00    +0.000 C 
ATOM     15  C   UNL     1       1.162   3.548  20.040  0.00  0.00    +0.000 C 
ENDBRANCH  13  15
ENDBRANCH   1  13
BRANCH   1  16
ATOM     16  C   UNL     1       2.943   6.025  19.641  0.00  0.00    +0.000 C 
BRANCH  16  17
ATOM     17  C   UNL     1       2.455   6.444  18.251  0.00  0.00    +0.000 C 
ATOM     18  C   UNL     1       3.029   7.762  17.765  0.00  0.00    +0.000 C 
ENDBRANCH  16  17
ENDBRANCH   1  16
TORSDOF 6
ENDMDL
MODEL 4
REMARK VINA RESULT:      -6.4      1.558      2.339
REMARK  Name = 
REMARK  9 active torsions:
REMARK  status: ('A' for Active; 'I' for Inactive)
REMARK    1  A    between atoms: C_1  and  C_2
REMARK    2  A    between atoms: C_2  and  C_3
REMARK    3  A    between atoms: C_3  and  N_4
REMARK    4  A    between atoms: N_4  and  C_5
REMARK    5  A    between atoms: C_5  and  C_6
REMARK    6  A    between atoms: C_6  and  C_7
REMARK    7  A    between atoms: C_8  and  C_10
REMARK    8  A    between atoms: C_16  and  O_17
REMARK    9  A    between atoms: O_17  and  C_18
REMARK                            x       y       z     vdW  Elec       q    Type
REMARK                         _______ _______ _______ _____ _____    ______ ____
ROOT
ATOM      1  N   UNL     1       3.669   4.137  19.480  0.00  0.00    +0.000 N 
ATOM      2  C   UNL     1       4.077   5.145  18.569  0.00  0.00    +0.000 C 
ATOM      3  O   UNL     1       3.606   6.279  18.591  0.00  0.00    +0.000 OA
ENDROOT
BRANCH   2   4
ATOM      4  C   UNL     1       5.113   4.879  17.532  0.00  0.00    +0.000 A 
ATOM      5  C   UNL     1       4.706   4.837  16.187  0.00  0.00    +0.000 A 
ATOM      6  C   UNL     1       5.609   4.526  15.180  0.00  0.00    +0.000 A 
ATOM      7  F   UNL     1       5.169   4.407  13.921  0.00  0.00    +0.000 F 
ATOM      8  C   UNL     1       6.949   4.332  15.460  0.00  0.00    +0.000 A 
ATOM      9  C   UNL     1       7.392   4.491  16.771  0.00  0.00    +0.000 A 
ATOM     10  C   UNL     1       6.491   4.763  17.817  0.00  0.00    +0.000 A 
BRANCH  10  11
ATOM     11  O   UNL     1       7.136   5.039  18.993  0.00  0.00    +0.000 OA
ATOM     12  C   UNL     1       7.947   6.204  19.053  0.00  0.00    +0.000 C 
ENDBRANCH  10  11
ENDBRANCH   2   4
BRANCH   1  13
ATOM     13  C   UNL     1       2.682   4.546  20.501  0.00  0.00    +0.000 C 
BRANCH  13  15
ATOM     14  C   UNL     1       1.170   2.692  21.448  0.00  0.00    +0.000 C 
ATOM     15  C   UNL     1       2.403   3.556  21.644  0.00  0.00    +0.000 C 
ENDBRANCH  13  15
ENDBRANCH   1  13
BRANCH   1  16
ATOM     16  C   UNL     1       4.122   2.730  19.554  0.00  0.00    +0.000 C 
BRANCH  16  17
ATOM     17  C   UNL     1       3.547   1.739  18.537  0.00  0.00    +0.000 C 
ATOM     18  C   UNL     1       2.329   2.253  17.793  0.00  0.00    +0.000 C 
ENDBRANCH  16  17
ENDBRANCH   1  16
TORSDOF 6
ENDMDL
MODEL 5
REMARK VINA RESULT:      -6.3      2.380      5.289
REMARK  Name = 
REMARK  9 active torsions:
REMARK  status: ('A' for Active; 'I' for Inactive)
REMARK    1  A    between atoms: C_1  and  C_2
REMARK    2  A    between atoms: C_2  and  C_3
REMARK    3  A    between atoms: C_3  and  N_4
REMARK    4  A    between atoms: N_4  and  C_5
REMARK    5  A    between atoms: C_5  and  C_6
REMARK    6  A    between atoms: C_6  and  C_7
REMARK    7  A    between atoms: C_8  and  C_10
REMARK    8  A    between atoms: C_16  and  O_17
REMARK    9  A    between atoms: O_17  and  C_18
REMARK                            x       y       z     vdW  Elec       q    Type
REMARK                         _______ _______ _______ _____ _____    ______ ____
ROOT
ATOM      1  N   UNL     1       6.379   5.916  17.460  0.00  0.00    +0.000 N 
ATOM      2  C   UNL     1       5.595   5.451  18.547  0.00  0.00    +0.000 C 
ATOM      3  O   UNL     1       5.949   5.585  19.716  0.00  0.00    +0.000 OA
ENDROOT
BRANCH   2   4
ATOM      4  C   UNL     1       4.286   4.776  18.326  0.00  0.00    +0.000 A 
ATOM      5  C   UNL     1       4.283   3.381  18.152  0.00  0.00    +0.000 A 
ATOM      6  C   UNL     1       3.105   2.701  17.873  0.00  0.00    +0.000 A 
ATOM      7  F   UNL     1       3.152   1.386  17.626  0.00  0.00    +0.000 F 
ATOM      8  C   UNL     1       1.892   3.362  17.843  0.00  0.00    +0.000 A 
ATOM      9  C   UNL     1       1.860   4.724  18.134  0.00  0.00    +0.000 A 
ATOM     10  C   UNL     1       3.044   5.445  18.376  0.00  0.00    +0.000 A 
BRANCH  10  11
ATOM     11  O   UNL     1       2.790   6.724  18.797  0.00  0.00    +0.000 OA
ATOM     12  C   UNL     1       2.888   7.773  17.845  0.00  0.00    +0.000 C 
ENDBRANCH  10  11
ENDBRANCH   2   4
BRANCH   1  13
ATOM     13  C   UNL     1       7.625   6.627  17.816  0.00  0.00    +0.000 C 
BRANCH  13  15
ATOM     14  C   UNL     1       8.545   8.952  18.423  0.00  0.00    +0.000 C 
ATOM     15  C   UNL     1       7.703   8.123  17.469  0.00  0.00    +0.000 C 
ENDBRANCH  13  15
ENDBRANCH   1  13
BRANCH   1  16
ATOM     16  C   UNL     1       6.098   5.801  16.012  0.00  0.00    +0.000 C 
BRANCH  16  17
ATOM     17  C   UNL     1       6.780   4.668  15.239  0.00  0.00    +0.000 C 
ATOM     18  C   UNL     1       5.955   4.118  14.091  0.00  0.00    +0.000 C 
ENDBRANCH  16  17
ENDBRANCH   1  16
TORSDOF 6
ENDMDL
MODEL 6
REMARK VINA RESULT:      -6.3      1.460      2.459
REMARK  Name = 
REMARK  9 active torsions:
REMARK  status: ('A' for Active; 'I' for Inactive)
REMARK    1  A    between atoms: C_1  and  C_2
REMARK    2  A    between atoms: C_2  and  C_3
REMARK    3  A    between atoms: C_3  and  N_4
REMARK    4  A    between atoms: N_4  and  C_5
REMARK    5  A    between atoms: C_5  and  C_6
REMARK    6  A    between atoms: C_6  and  C_7
REMARK    7  A    between atoms: C_8  and  C_10
REMARK    8  A    between atoms: C_16  and  O_17
REMARK    9  A    between atoms: O_17  and  C_18
REMARK                            x       y       z     vdW  Elec       q    Type
REMARK                         _______ _______ _______ _____ _____    ______ ____
ROOT
ATOM      1  N   UNL     1       2.844   3.998  18.721  0.00  0.00    +0.000 N 
ATOM      2  C   UNL     1       3.792   5.018  18.450  0.00  0.00    +0.000 C 
ATOM      3  O   UNL     1       3.735   6.125  18.981  0.00  0.00    +0.000 OA
ENDROOT
BRANCH   2   4
ATOM      4  C   UNL     1       4.921   4.797  17.504  0.00  0.00    +0.000 A 
ATOM      5  C   UNL     1       4.642   4.813  16.127  0.00  0.00    +0.000 A 
ATOM      6  C   UNL     1       5.636   4.545  15.196  0.00  0.00    +0.000 A 
ATOM      7  F   UNL     1       5.316   4.482  13.897  0.00  0.00    +0.000 F 
ATOM      8  C   UNL     1       6.945   4.337  15.591  0.00  0.00    +0.000 A 
ATOM      9  C   UNL     1       7.263   4.438  16.943  0.00  0.00    +0.000 A 
ATOM     10  C   UNL     1       6.267   4.666  17.912  0.00  0.00    +0.000 A 
BRANCH  10  11
ATOM     11  O   UNL     1       6.798   4.890  19.154  0.00  0.00    +0.000 OA
ATOM     12  C   UNL     1       7.794   5.895  19.284  0.00  0.00    +0.000 C 
ENDBRANCH  10  11
ENDBRANCH   2   4
BRANCH   1  13
ATOM     13  C   UNL     1       1.811   4.322  19.727  0.00  0.00    +0.000 C 
BRANCH  13  15
ATOM     14  C   UNL     1       1.413   2.649  21.641  0.00  0.00    +0.000 C 
ATOM     15  C   UNL     1       0.976   3.154  20.277  0.00  0.00    +0.000 C 
ENDBRANCH  13  15
ENDBRANCH   1  13
BRANCH   1  16
ATOM     16  C   UNL     1       2.770   2.639  18.141  0.00  0.00    +0.000 C 
BRANCH  16  17
ATOM     17  C   UNL     1       3.708   1.568  18.706  0.00  0.00    +0.000 C 
ATOM     18  C   UNL     1       4.500   2.016  19.919  0.00  0.00    +0.000 C 
ENDBRANCH  16  17
ENDBRANCH   1  16
TORSDOF 6
ENDMDL
MODEL 7
REMARK VINA RESULT:      -6.3      2.437      5.520
REMARK  Name = 
REMARK  9 active torsions:
REMARK  status: ('A' for Active; 'I' for Inactive)
REMARK    1  A    between atoms: C_1  and  C_2
REMARK    2  A    between atoms: C_2  and  C_3
REMARK    3  A    between atoms: C_3  and  N_4
REMARK    4  A    between atoms: N_4  and  C_5
REMARK    5  A    between atoms: C_5  and  C_6
REMARK    6  A    between atoms: C_6  and  C_7
REMARK    7  A    between atoms: C_8  and  C_10
REMARK    8  A    between atoms: C_16  and  O_17
REMARK    9  A    between atoms: O_17  and  C_18
REMARK                            x       y       z     vdW  Elec       q    Type
REMARK                         _______ _______ _______ _____ _____    ______ ____
ROOT
ATOM      1  N   UNL     1       5.825   5.361  17.728  0.00  0.00    +0.000 N 
ATOM      2  C   UNL     1       5.535   5.162  19.102  0.00  0.00    +0.000 C 
ATOM      3  O   UNL     1       6.391   5.269  19.977  0.00  0.00    +0.000 OA
ENDROOT
BRANCH   2   4
ATOM      4  C   UNL     1       4.161   4.817  19.563  0.00  0.00    +0.000 A 
ATOM      5  C   UNL     1       3.289   5.870  19.887  0.00  0.00    +0.000 A 
ATOM      6  C   UNL     1       2.019   5.615  20.388  0.00  0.00    +0.000 A 
ATOM      7  F   UNL     1       1.248   6.641  20.770  0.00  0.00    +0.000 F 
ATOM      8  C   UNL     1       1.546   4.321  20.502  0.00  0.00    +0.000 A 
ATOM      9  C   UNL     1       2.351   3.270  20.071  0.00  0.00    +0.000 A 
ATOM     10  C   UNL     1       3.658   3.498  19.600  0.00  0.00    +0.000 A 
BRANCH  10  11
ATOM     11  O   UNL     1       4.223   2.365  19.078  0.00  0.00    +0.000 OA
ATOM     12  C   UNL     1       3.479   1.629  18.117  0.00  0.00    +0.000 C 
ENDBRANCH  10  11
ENDBRANCH   2   4
BRANCH   1  13
ATOM     13  C   UNL     1       7.211   5.763  17.409  0.00  0.00    +0.000 C 
BRANCH  13  15
ATOM     14  C   UNL     1       8.196   7.980  18.267  0.00  0.00    +0.000 C 
ATOM     15  C   UNL     1       7.466   7.257  17.149  0.00  0.00    +0.000 C 
ENDBRANCH  13  15
ENDBRANCH   1  13
BRANCH   1  16
ATOM     16  C   UNL     1       4.910   5.240  16.571  0.00  0.00    +0.000 C 
BRANCH  16  17
ATOM     17  C   UNL     1       5.065   4.016  15.663  0.00  0.00    +0.000 C 
ATOM     18  C   UNL     1       5.748   4.309  14.341  0.00  0.00    +0.000 C 
ENDBRANCH  16  17
ENDBRANCH   1  16
TORSDOF 6
ENDMDL
MODEL 8
REMARK VINA RESULT:      -6.3      0.797      1.001
REMARK  Name = 
REMARK  9 active torsions:
REMARK  status: ('A' for Active; 'I' for Inactive)
REMARK    1  A    between atoms: C_1  and  C_2
REMARK    2  A    between atoms: C_2  and  C_3
REMARK    3  A    between atoms: C_3  and  N_4
REMARK    4  A    between atoms: N_4  and  C_5
REMARK    5  A    between atoms: C_5  and  C_6
REMARK    6  A    between atoms: C_6  and  C_7
REMARK    7  A    between atoms: C_8  and  C_10
REMARK    8  A    between atoms: C_16  and  O_17
REMARK    9  A    between atoms: O_17  and  C_18
REMARK                            x       y       z     vdW  Elec       q    Type
REMARK                         _______ _______ _______ _____ _____    ______ ____
ROOT
ATOM      1  N   UNL     1       3.155   4.375  19.109  0.00  0.00    +0.000 N 
ATOM      2  C   UNL     1       3.901   3.496  18.283  0.00  0.00    +0.000 C 
ATOM      3  O   UNL     1       3.668   2.291  18.226  0.00  0.00    +0.000 OA
ENDROOT
BRANCH   2   4
ATOM      4  C   UNL     1       5.015   3.993  17.427  0.00  0.00    +0.000 A 
ATOM      5  C   UNL     1       4.785   4.112  16.046  0.00  0.00    +0.000 A 
ATOM      6  C   UNL     1       5.802   4.503  15.185  0.00  0.00    +0.000 A 
ATOM      7  F   UNL     1       5.572   4.520  13.866  0.00  0.00    +0.000 F 
ATOM      8  C   UNL     1       7.043   4.869  15.671  0.00  0.00    +0.000 A 
ATOM      9  C   UNL     1       7.252   4.875  17.048  0.00  0.00    +0.000 A 
ATOM     10  C   UNL     1       6.252   4.441  17.939  0.00  0.00    +0.000 A 
BRANCH  10  11
ATOM     11  O   UNL     1       6.592   4.673  19.245  0.00  0.00    +0.000 OA
ATOM     12  C   UNL     1       7.543   5.691  19.519  0.00  0.00    +0.000 C 
ENDBRANCH  10  11
ENDBRANCH   2   4
BRANCH   1  13
ATOM     13  C   UNL     1       2.035   3.767  19.858  0.00  0.00    +0.000 C 
BRANCH  13  15
ATOM     14  C   UNL     1       1.507   2.456  22.008  0.00  0.00    +0.000 C 
ATOM     15  C   UNL     1       2.188   3.662  21.384  0.00  0.00    +0.000 C 
ENDBRANCH  13  15
ENDBRANCH   1  13
BRANCH   1  16
ATOM     16  C   UNL     1       3.339   5.831  19.300  0.00  0.00    +0.000 C 
BRANCH  16  17
ATOM     17  C   UNL     1       2.767   6.770  18.233  0.00  0.00    +0.000 C 
ATOM     18  C   UNL     1       3.819   7.447  17.376  0.00  0.00    +0.000 C 
ENDBRANCH  16  17
ENDBRANCH   1  16
TORSDOF 6
ENDMDL
MODEL 9
REMARK VINA RESULT:      -6.3      2.212      2.936
REMARK  Name = 
REMARK  9 active torsions:
REMARK  status: ('A' for Active; 'I' for Inactive)
REMARK    1  A    between atoms: C_1  and  C_2
REMARK    2  A    between atoms: C_2  and  C_3
REMARK    3  A    between atoms: C_3  and  N_4
REMARK    4  A    between atoms: N_4  and  C_5
REMARK    5  A    between atoms: C_5  and  C_6
REMARK    6  A    between atoms: C_6  and  C_7
REMARK    7  A    between atoms: C_8  and  C_10
REMARK    8  A    between atoms: C_16  and  O_17
REMARK    9  A    between atoms: O_17  and  C_18
REMARK                            x       y       z     vdW  Elec       q    Type
REMARK                         _______ _______ _______ _____ _____    ______ ____
ROOT
ATOM      1  N   UNL     1       2.735   4.908  18.736  0.00  0.00    +0.000 N 
ATOM      2  C   UNL     1       3.918   4.263  18.291  0.00  0.00    +0.000 C 
ATOM      3  O   UNL     1       3.941   3.073  17.985  0.00  0.00    +0.000 OA
ENDROOT
BRANCH   2   4
ATOM      4  C   UNL     1       5.205   5.002  18.165  0.00  0.00    +0.000 A 
ATOM      5  C   UNL     1       6.093   4.975  19.254  0.00  0.00    +0.000 A 
ATOM      6  C   UNL     1       7.276   5.700  19.227  0.00  0.00    +0.000 A 
ATOM      7  F   UNL     1       8.055   5.722  20.316  0.00  0.00    +0.000 F 
ATOM      8  C   UNL     1       7.655   6.401  18.097  0.00  0.00    +0.000 A 
ATOM      9  C   UNL     1       6.846   6.341  16.965  0.00  0.00    +0.000 A 
ATOM     10  C   UNL     1       5.621   5.649  16.981  0.00  0.00    +0.000 A 
BRANCH  10  11
ATOM     11  O   UNL     1       5.057   5.573  15.735  0.00  0.00    +0.000 OA
ATOM     12  C   UNL     1       5.526   4.568  14.848  0.00  0.00    +0.000 C 
ENDBRANCH  10  11
ENDBRANCH   2   4
BRANCH   1  13
ATOM     13  C   UNL     1       1.512   4.079  18.754  0.00  0.00    +0.000 C 
BRANCH  13  15
ATOM     14  C   UNL     1       1.580   2.935  21.058  0.00  0.00    +0.000 C 
ATOM     15  C   UNL     1       0.832   3.863  20.116  0.00  0.00    +0.000 C 
ENDBRANCH  13  15
ENDBRANCH   1  13
BRANCH   1  16
ATOM     16  C   UNL     1       2.564   6.314  19.163  0.00  0.00    +0.000 C 
BRANCH  16  17
ATOM     17  C   UNL     1       2.561   7.396  18.078  0.00  0.00    +0.000 C 
ATOM     18  C   UNL     1       1.870   8.682  18.488  0.00  0.00    +0.000 C 
ENDBRANCH  16  17
ENDBRANCH   1  16
TORSDOF 6
ENDMDL
