MODEL 1
REMARK VINA RESULT:      -6.9      0.000      0.000
REMARK  Name = 
REMARK  10 active torsions:
REMARK  status: ('A' for Active; 'I' for Inactive)
REMARK    1  A    between atoms: C_1  and  O_2
REMARK    2  A    between atoms: O_2  and  C_3
REMARK    3  A    between atoms: C_6  and  C_7
REMARK    4  A    between atoms: C_8  and  C_9
REMARK    5  A    between atoms: N_11  and  C_12
REMARK    6  A    between atoms: C_19  and  C_20
REMARK    7  A    between atoms: C_24  and  C_25
REMARK    8  A    between atoms: C_25  and  C_26
REMARK    9  A    between atoms: C_26  and  C_27
REMARK   10  A    between atoms: C_27  and  O_28
REMARK                            x       y       z     vdW  Elec       q    Type
REMARK                         _______ _______ _______ _____ _____    ______ ____
ROOT
ATOM      1  C   UNL     1       5.081   6.020  16.648  0.00  0.00    +0.000 C 
ATOM      2  C   UNL     1       4.220   5.221  17.630  0.00  0.00    +0.000 C 
ATOM      3  C   UNL     1       4.086   3.872  17.479  0.00  0.00    +0.000 C 
ATOM      4  C   UNL     1       3.317   2.919  18.369  0.00  0.00    +0.000 C 
ATOM      5  N   UNL     1       4.707   3.225  16.409  0.00  0.00    +0.000 N 
ATOM      6  C   UNL     1       5.488   3.838  15.504  0.00  0.00    +0.000 A 
ATOM      7  N   UNL     1       6.168   3.376  14.485  0.00  0.00    +0.000 NA
ATOM      8  C   UNL     1       6.748   4.512  13.968  0.00  0.00    +0.000 A 
ATOM      9  N   UNL     1       6.420   5.657  14.583  0.00  0.00    +0.000 NA
ATOM     10  N   UNL     1       5.673   5.182  15.605  0.00  0.00    +0.000 N 
ATOM     11  H   UNL     1       4.588   2.216  16.339  0.00  0.00    +0.000 HD
ENDROOT
BRANCH   1  15
ATOM     12  C   UNL     1       8.237   8.439  18.394  0.00  0.00    +0.000 A 
ATOM     13  C   UNL     1       8.176   7.075  18.674  0.00  0.00    +0.000 A 
ATOM     14  C   UNL     1       7.174   6.277  18.117  0.00  0.00    +0.000 A 
ATOM     15  C   UNL     1       6.185   6.848  17.300  0.00  0.00    +0.000 A 
ATOM     16  C   UNL     1       6.246   8.229  17.043  0.00  0.00    +0.000 A 
ATOM     17  C   UNL     1       7.263   9.019  17.587  0.00  0.00    +0.000 A 
BRANCH  12  19
ATOM     18  C   UNL     1       9.248  10.529  18.806  0.00  0.00    +0.000 C 
ATOM     19  O   UNL     1       9.267   9.116  18.986  0.00  0.00    +0.000 OA
ENDBRANCH  12  19
ENDBRANCH   1  15
BRANCH   2  20
ATOM     20  C   UNL     1       3.612   5.982  18.786  0.00  0.00    +0.000 C 
ATOM     21  O   UNL     1       3.982   5.753  19.931  0.00  0.00    +0.000 OA
ATOM     22  N   UNL     1       2.661   6.932  18.448  0.00  0.00    +0.000 N 
ATOM     23  H   UNL     1       2.356   7.006  17.491  0.00  0.00    +0.000 HD
BRANCH  22  24
ATOM     24  C   UNL     1       1.997   7.813  19.334  0.00  0.00    +0.000 A 
ATOM     25  C   UNL     1       1.701   7.507  20.666  0.00  0.00    +0.000 A 
ATOM     26  C   UNL     1       0.982   8.404  21.461  0.00  0.00    +0.000 A 
ATOM     27  C   UNL     1       0.567   9.615  20.927  0.00  0.00    +0.000 A 
ATOM     28  F   UNL     1      -0.147  10.461  21.681  0.00  0.00    +0.000 F 
ATOM     29  C   UNL     1       0.883   9.958  19.620  0.00  0.00    +0.000 A 
ATOM     30  C   UNL     1       1.610   9.064  18.828  0.00  0.00    +0.000 A 
ENDBRANCH  22  24
ENDBRANCH   2  20
BRANCH   8  31
ATOM     31  C   UNL     1       7.697   4.483  12.826  0.00  0.00    +0.000 C 
BRANCH  31  32
ATOM     32  C   UNL     1       7.079   3.967  11.531  0.00  0.00    +0.000 C 
BRANCH  32  33
ATOM     33  C   UNL     1       7.242   2.462  11.341  0.00  0.00    +0.000 C 
BRANCH  33  34
ATOM     34  O   UNL     1       6.068   1.791  11.788  0.00  0.00    +0.000 OA
ATOM     35  H   UNL     1       6.317   1.235  12.544  0.00  0.00    +0.000 HD
ENDBRANCH  33  34
ENDBRANCH  32  33
ENDBRANCH  31  32
ENDBRANCH   8  31
TORSDOF 8
ENDMDL
MODEL 2
REMARK VINA RESULT:      -6.8      6.116     11.961
REMARK  Name = 
REMARK  10 active torsions:
REMARK  status: ('A' for Active; 'I' for Inactive)
REMARK    1  A    between atoms: C_1  and  O_2
REMARK    2  A    between atoms: O_2  and  C_3
REMARK    3  A    between atoms: C_6  and  C_7
REMARK    4  A    between atoms: C_8  and  C_9
REMARK    5  A    between atoms: N_11  and  C_12
REMARK    6  A    between atoms: C_19  and  C_20
REMARK    7  A    between atoms: C_24  and  C_25
REMARK    8  A    between atoms: C_25  and  C_26
REMARK    9  A    between atoms: C_26  and  C_27
REMARK   10  A    between atoms: C_27  and  O_28
REMARK                            x       y       z     vdW  Elec       q    Type
REMARK                         _______ _______ _______ _____ _____    ______ ____
ROOT
ATOM      1  C   UNL     1      -1.545  12.335  20.968  0.00  0.00    +0.000 C 
ATOM      2  C   UNL     1      -0.675  11.258  21.620  0.00  0.00    +0.000 C 
ATOM      3  C   UNL     1      -1.021  10.743  22.835  0.00  0.00    +0.000 C 
ATOM      4  C   UNL     1      -0.312   9.652  23.608  0.00  0.00    +0.000 C 
ATOM      5  N   UNL     1      -2.153  11.223  23.498  0.00  0.00    +0.000 N 
ATOM      6  C   UNL     1      -2.981  12.157  23.003  0.00  0.00    +0.000 A 
ATOM      7  N   UNL     1      -4.089  12.674  23.470  0.00  0.00    +0.000 NA
ATOM      8  C   UNL     1      -4.442  13.572  22.488  0.00  0.00    +0.000 A 
ATOM      9  N   UNL     1      -3.582  13.674  21.465  0.00  0.00    +0.000 NA
ATOM     10  N   UNL     1      -2.699  12.703  21.789  0.00  0.00    +0.000 N 
ATOM     11  H   UNL     1      -2.380  10.804  24.398  0.00  0.00    +0.000 HD
ENDROOT
BRANCH   1  15
ATOM     12  C   UNL     1      -2.875  11.471  16.925  0.00  0.00    +0.000 A 
ATOM     13  C   UNL     1      -3.717  11.200  18.002  0.00  0.00    +0.000 A 
ATOM     14  C   UNL     1      -3.311  11.478  19.310  0.00  0.00    +0.000 A 
ATOM     15  C   UNL     1      -2.030  11.994  19.561  0.00  0.00    +0.000 A 
ATOM     16  C   UNL     1      -1.183  12.242  18.467  0.00  0.00    +0.000 A 
ATOM     17  C   UNL     1      -1.601  11.982  17.159  0.00  0.00    +0.000 A 
BRANCH  12  19
ATOM     18  C   UNL     1      -2.988   9.907  15.165  0.00  0.00    +0.000 C 
ATOM     19  O   UNL     1      -3.382  11.170  15.691  0.00  0.00    +0.000 OA
ENDBRANCH  12  19
ENDBRANCH   1  15
BRANCH   2  20
ATOM     20  C   UNL     1       0.511  10.759  20.826  0.00  0.00    +0.000 C 
ATOM     21  O   UNL     1       1.543  11.418  20.787  0.00  0.00    +0.000 OA
ATOM     22  N   UNL     1       0.342   9.537  20.196  0.00  0.00    +0.000 N 
ATOM     23  H   UNL     1      -0.563   9.094  20.212  0.00  0.00    +0.000 HD
BRANCH  22  24
ATOM     24  C   UNL     1       1.315   8.829  19.450  0.00  0.00    +0.000 A 
ATOM     25  C   UNL     1       1.731   9.190  18.165  0.00  0.00    +0.000 A 
ATOM     26  C   UNL     1       2.650   8.403  17.466  0.00  0.00    +0.000 A 
ATOM     27  C   UNL     1       3.162   7.257  18.056  0.00  0.00    +0.000 A 
ATOM     28  F   UNL     1       4.020   6.488  17.373  0.00  0.00    +0.000 F 
ATOM     29  C   UNL     1       2.796   6.900  19.346  0.00  0.00    +0.000 A 
ATOM     30  C   UNL     1       1.883   7.693  20.049  0.00  0.00    +0.000 A 
ENDBRANCH  22  24
ENDBRANCH   2  20
BRANCH   8  31
ATOM     31  C   UNL     1      -5.700  14.361  22.532  0.00  0.00    +0.000 C 
BRANCH  31  32
ATOM     32  C   UNL     1      -6.959  13.513  22.392  0.00  0.00    +0.000 C 
BRANCH  32  33
ATOM     33  C   UNL     1      -7.546  13.075  23.730  0.00  0.00    +0.000 C 
BRANCH  33  34
ATOM     34  O   UNL     1      -7.121  11.749  24.031  0.00  0.00    +0.000 OA
ATOM     35  H   UNL     1      -6.221  11.642  23.682  0.00  0.00    +0.000 HD
ENDBRANCH  33  34
ENDBRANCH  32  33
ENDBRANCH  31  32
ENDBRANCH   8  31
TORSDOF 8
ENDMDL
MODEL 3
REMARK VINA RESULT:      -6.8      5.789     11.642
REMARK  Name = 
REMARK  10 active torsions:
REMARK  status: ('A' for Active; 'I' for Inactive)
REMARK    1  A    between atoms: C_1  and  O_2
REMARK    2  A    between atoms: O_2  and  C_3
REMARK    3  A    between atoms: C_6  and  C_7
REMARK    4  A    between atoms: C_8  and  C_9
REMARK    5  A    between atoms: N_11  and  C_12
REMARK    6  A    between atoms: C_19  and  C_20
REMARK    7  A    between atoms: C_24  and  C_25
REMARK    8  A    between atoms: C_25  and  C_26
REMARK    9  A    between atoms: C_26  and  C_27
REMARK   10  A    between atoms: C_27  and  O_28
REMARK                            x       y       z     vdW  Elec       q    Type
REMARK                         _______ _______ _______ _____ _____    ______ ____
ROOT
ATOM      1  C   UNL     1      -1.285  11.839  20.200  0.00  0.00    +0.000 C 
ATOM      2  C   UNL     1      -0.282  10.887  20.857  0.00  0.00    +0.000 C 
ATOM      3  C   UNL     1      -0.438  10.526  22.163  0.00  0.00    +0.000 C 
ATOM      4  C   UNL     1       0.423   9.571  22.962  0.00  0.00    +0.000 C 
ATOM      5  N   UNL     1      -1.494  11.051  22.910  0.00  0.00    +0.000 N 
ATOM      6  C   UNL     1      -2.427  11.883  22.420  0.00  0.00    +0.000 A 
ATOM      7  N   UNL     1      -3.489  12.421  22.967  0.00  0.00    +0.000 NA
ATOM      8  C   UNL     1      -4.014  13.168  21.938  0.00  0.00    +0.000 A 
ATOM      9  N   UNL     1      -3.303  13.162  20.800  0.00  0.00    +0.000 NA
ATOM     10  N   UNL     1      -2.337  12.273  21.120  0.00  0.00    +0.000 N 
ATOM     11  H   UNL     1      -1.578  10.748  23.878  0.00  0.00    +0.000 HD
ENDROOT
BRANCH   1  15
ATOM     12  C   UNL     1      -3.092  10.185  16.613  0.00  0.00    +0.000 A 
ATOM     13  C   UNL     1      -2.430  11.410  16.552  0.00  0.00    +0.000 A 
ATOM     14  C   UNL     1      -1.836  11.956  17.692  0.00  0.00    +0.000 A 
ATOM     15  C   UNL     1      -1.935  11.298  18.928  0.00  0.00    +0.000 A 
ATOM     16  C   UNL     1      -2.623  10.073  18.980  0.00  0.00    +0.000 A 
ATOM     17  C   UNL     1      -3.198   9.521  17.832  0.00  0.00    +0.000 A 
BRANCH  12  19
ATOM     18  C   UNL     1      -2.875  10.074  14.269  0.00  0.00    +0.000 C 
ATOM     19  O   UNL     1      -3.624   9.744  15.434  0.00  0.00    +0.000 OA
ENDBRANCH  12  19
ENDBRANCH   1  15
BRANCH   2  20
ATOM     20  C   UNL     1       0.811  10.327  19.975  0.00  0.00    +0.000 C 
ATOM     21  O   UNL     1       1.578  11.086  19.395  0.00  0.00    +0.000 OA
ATOM     22  N   UNL     1       0.879   8.945  19.905  0.00  0.00    +0.000 N 
ATOM     23  H   UNL     1       0.164   8.392  20.351  0.00  0.00    +0.000 HD
BRANCH  22  24
ATOM     24  C   UNL     1       1.845   8.182  19.206  0.00  0.00    +0.000 A 
ATOM     25  C   UNL     1       2.372   8.539  17.961  0.00  0.00    +0.000 A 
ATOM     26  C   UNL     1       3.274   7.699  17.301  0.00  0.00    +0.000 A 
ATOM     27  C   UNL     1       3.657   6.504  17.891  0.00  0.00    +0.000 A 
ATOM     28  F   UNL     1       4.498   5.687  17.245  0.00  0.00    +0.000 F 
ATOM     29  C   UNL     1       3.178   6.146  19.144  0.00  0.00    +0.000 A 
ATOM     30  C   UNL     1       2.284   6.991  19.808  0.00  0.00    +0.000 A 
ENDBRANCH  22  24
ENDBRANCH   2  20
BRANCH   8  31
ATOM     31  C   UNL     1      -5.293  13.913  22.056  0.00  0.00    +0.000 C 
BRANCH  31  32
ATOM     32  C   UNL     1      -5.746  14.129  23.496  0.00  0.00    +0.000 C 
BRANCH  32  33
ATOM     33  C   UNL     1      -6.881  13.203  23.919  0.00  0.00    +0.000 C 
BRANCH  33  34
ATOM     34  O   UNL     1      -6.370  11.896  24.163  0.00  0.00    +0.000 OA
ATOM     35  H   UNL     1      -5.415  11.916  23.989  0.00  0.00    +0.000 HD
ENDBRANCH  33  34
ENDBRANCH  32  33
ENDBRANCH  31  32
ENDBRANCH   8  31
TORSDOF 8
ENDMDL
MODEL 4
REMARK VINA RESULT:      -6.6      0.264      1.231
REMARK  Name = 
REMARK  10 active torsions:
REMARK  status: ('A' for Active; 'I' for Inactive)
REMARK    1  A    between atoms: C_1  and  O_2
REMARK    2  A    between atoms: O_2  and  C_3
REMARK    3  A    between atoms: C_6  and  C_7
REMARK    4  A    between atoms: C_8  and  C_9
REMARK    5  A    between atoms: N_11  and  C_12
REMARK    6  A    between atoms: C_19  and  C_20
REMARK    7  A    between atoms: C_24  and  C_25
REMARK    8  A    between atoms: C_25  and  C_26
REMARK    9  A    between atoms: C_26  and  C_27
REMARK   10  A    between atoms: C_27  and  O_28
REMARK                            x       y       z     vdW  Elec       q    Type
REMARK                         _______ _______ _______ _____ _____    ______ ____
ROOT
ATOM      1  C   UNL     1       4.995   6.051  16.580  0.00  0.00    +0.000 C 
ATOM      2  C   UNL     1       4.088   5.323  17.575  0.00  0.00    +0.000 C 
ATOM      3  C   UNL     1       3.872   3.983  17.449  0.00  0.00    +0.000 C 
ATOM      4  C   UNL     1       3.046   3.094  18.355  0.00  0.00    +0.000 C 
ATOM      5  N   UNL     1       4.452   3.280  16.391  0.00  0.00    +0.000 N 
ATOM      6  C   UNL     1       5.268   3.828  15.476  0.00  0.00    +0.000 A 
ATOM      7  N   UNL     1       5.918   3.307  14.466  0.00  0.00    +0.000 NA
ATOM      8  C   UNL     1       6.567   4.396  13.929  0.00  0.00    +0.000 A 
ATOM      9  N   UNL     1       6.309   5.570  14.524  0.00  0.00    +0.000 NA
ATOM     10  N   UNL     1       5.535   5.159  15.553  0.00  0.00    +0.000 N 
ATOM     11  H   UNL     1       4.272   2.279  16.340  0.00  0.00    +0.000 HD
ENDROOT
BRANCH   1  15
ATOM     12  C   UNL     1       8.253   8.184  18.503  0.00  0.00    +0.000 A 
ATOM     13  C   UNL     1       7.387   8.867  17.651  0.00  0.00    +0.000 A 
ATOM     14  C   UNL     1       6.329   8.201  17.028  0.00  0.00    +0.000 A 
ATOM     15  C   UNL     1       6.148   6.822  17.218  0.00  0.00    +0.000 A 
ATOM     16  C   UNL     1       7.041   6.141  18.063  0.00  0.00    +0.000 A 
ATOM     17  C   UNL     1       8.087   6.816  18.700  0.00  0.00    +0.000 A 
BRANCH  12  19
ATOM     18  C   UNL     1       9.132  10.343  18.852  0.00  0.00    +0.000 C 
ATOM     19  O   UNL     1       9.244   8.939  19.064  0.00  0.00    +0.000 OA
ENDBRANCH  12  19
ENDBRANCH   1  15
BRANCH   2  20
ATOM     20  C   UNL     1       3.528   6.141  18.718  0.00  0.00    +0.000 C 
ATOM     21  O   UNL     1       3.962   5.985  19.852  0.00  0.00    +0.000 OA
ATOM     22  N   UNL     1       2.543   7.054  18.378  0.00  0.00    +0.000 N 
ATOM     23  H   UNL     1       2.185   7.068  17.436  0.00  0.00    +0.000 HD
BRANCH  22  24
ATOM     24  C   UNL     1       1.909   7.975  19.247  0.00  0.00    +0.000 A 
ATOM     25  C   UNL     1       1.508   9.259  18.867  0.00  0.00    +0.000 A 
ATOM     26  C   UNL     1       0.947  10.136  19.801  0.00  0.00    +0.000 A 
ATOM     27  C   UNL     1       0.780   9.725  21.115  0.00  0.00    +0.000 A 
ATOM     28  F   UNL     1       0.272  10.576  22.015  0.00  0.00    +0.000 F 
ATOM     29  C   UNL     1       1.135   8.442  21.507  0.00  0.00    +0.000 A 
ATOM     30  C   UNL     1       1.686   7.562  20.570  0.00  0.00    +0.000 A 
ENDBRANCH  22  24
ENDBRANCH   2  20
BRANCH   8  31
ATOM     31  C   UNL     1       7.511   4.289  12.788  0.00  0.00    +0.000 C 
BRANCH  31  32
ATOM     32  C   UNL     1       6.897   3.659  11.542  0.00  0.00    +0.000 C 
BRANCH  32  33
ATOM     33  C   UNL     1       7.350   2.223  11.305  0.00  0.00    +0.000 C 
BRANCH  33  34
ATOM     34  O   UNL     1       6.224   1.351  11.342  0.00  0.00    +0.000 OA
ATOM     35  H   UNL     1       6.543   0.451  11.162  0.00  0.00    +0.000 HD
ENDBRANCH  33  34
ENDBRANCH  32  33
ENDBRANCH  31  32
ENDBRANCH   8  31
TORSDOF 8
ENDMDL
MODEL 5
REMARK VINA RESULT:      -6.5      6.341     10.498
REMARK  Name = 
REMARK  10 active torsions:
REMARK  status: ('A' for Active; 'I' for Inactive)
REMARK    1  A    between atoms: C_1  and  O_2
REMARK    2  A    between atoms: O_2  and  C_3
REMARK    3  A    between atoms: C_6  and  C_7
REMARK    4  A    between atoms: C_8  and  C_9
REMARK    5  A    between atoms: N_11  and  C_12
REMARK    6  A    between atoms: C_19  and  C_20
REMARK    7  A    between atoms: C_24  and  C_25
REMARK    8  A    between atoms: C_25  and  C_26
REMARK    9  A    between atoms: C_26  and  C_27
REMARK   10  A    between atoms: C_27  and  O_28
REMARK                            x       y       z     vdW  Elec       q    Type
REMARK                         _______ _______ _______ _____ _____    ______ ____
ROOT
ATOM      1  C   UNL     1      -0.264  12.199  19.086  0.00  0.00    +0.000 C 
ATOM      2  C   UNL     1       0.155  13.230  20.137  0.00  0.00    +0.000 C 
ATOM      3  C   UNL     1      -0.791  13.862  20.889  0.00  0.00    +0.000 C 
ATOM      4  C   UNL     1      -0.566  14.871  21.995  0.00  0.00    +0.000 C 
ATOM      5  N   UNL     1      -2.145  13.592  20.676  0.00  0.00    +0.000 N 
ATOM      6  C   UNL     1      -2.608  12.699  19.786  0.00  0.00    +0.000 A 
ATOM      7  N   UNL     1      -3.823  12.304  19.500  0.00  0.00    +0.000 NA
ATOM      8  C   UNL     1      -3.613  11.378  18.503  0.00  0.00    +0.000 A 
ATOM      9  N   UNL     1      -2.337  11.221  18.122  0.00  0.00    +0.000 NA
ATOM     10  N   UNL     1      -1.715  12.025  19.013  0.00  0.00    +0.000 N 
ATOM     11  H   UNL     1      -2.817  14.080  21.265  0.00  0.00    +0.000 HD
ENDROOT
BRANCH   1  15
ATOM     12  C   UNL     1       1.627   8.331  19.659  0.00  0.00    +0.000 A 
ATOM     13  C   UNL     1       1.785   9.005  18.449  0.00  0.00    +0.000 A 
ATOM     14  C   UNL     1       1.191  10.253  18.247  0.00  0.00    +0.000 A 
ATOM     15  C   UNL     1       0.390  10.828  19.246  0.00  0.00    +0.000 A 
ATOM     16  C   UNL     1       0.222  10.128  20.454  0.00  0.00    +0.000 A 
ATOM     17  C   UNL     1       0.835   8.888  20.659  0.00  0.00    +0.000 A 
BRANCH  12  19
ATOM     18  C   UNL     1       2.844   6.654  18.536  0.00  0.00    +0.000 C 
ATOM     19  O   UNL     1       2.262   7.124  19.748  0.00  0.00    +0.000 OA
ENDBRANCH  12  19
ENDBRANCH   1  15
BRANCH   2  20
ATOM     20  C   UNL     1       1.639  13.440  20.340  0.00  0.00    +0.000 C 
ATOM     21  O   UNL     1       2.215  12.881  21.266  0.00  0.00    +0.000 OA
ATOM     22  N   UNL     1       2.262  14.263  19.417  0.00  0.00    +0.000 N 
ATOM     23  H   UNL     1       1.704  14.747  18.730  0.00  0.00    +0.000 HD
BRANCH  22  24
ATOM     24  C   UNL     1       3.644  14.564  19.351  0.00  0.00    +0.000 A 
ATOM     25  C   UNL     1       4.402  15.000  20.442  0.00  0.00    +0.000 A 
ATOM     26  C   UNL     1       5.748  15.341  20.284  0.00  0.00    +0.000 A 
ATOM     27  C   UNL     1       6.341  15.238  19.034  0.00  0.00    +0.000 A 
ATOM     28  F   UNL     1       7.622  15.593  18.878  0.00  0.00    +0.000 F 
ATOM     29  C   UNL     1       5.620  14.770  17.944  0.00  0.00    +0.000 A 
ATOM     30  C   UNL     1       4.276  14.420  18.105  0.00  0.00    +0.000 A 
ENDBRANCH  22  24
ENDBRANCH   2  20
BRANCH   8  31
ATOM     31  C   UNL     1      -4.712  10.582  17.901  0.00  0.00    +0.000 C 
BRANCH  31  32
ATOM     32  C   UNL     1      -6.102  11.133  18.198  0.00  0.00    +0.000 C 
BRANCH  32  33
ATOM     33  C   UNL     1      -6.791  10.439  19.369  0.00  0.00    +0.000 C 
BRANCH  33  34
ATOM     34  O   UNL     1      -7.477   9.280  18.906  0.00  0.00    +0.000 OA
ATOM     35  H   UNL     1      -6.808   8.636  18.620  0.00  0.00    +0.000 HD
ENDBRANCH  33  34
ENDBRANCH  32  33
ENDBRANCH  31  32
ENDBRANCH   8  31
TORSDOF 8
ENDMDL
MODEL 6
REMARK VINA RESULT:      -6.5      6.273     10.195
REMARK  Name = 
REMARK  10 active torsions:
REMARK  status: ('A' for Active; 'I' for Inactive)
REMARK    1  A    between atoms: C_1  and  O_2
REMARK    2  A    between atoms: O_2  and  C_3
REMARK    3  A    between atoms: C_6  and  C_7
REMARK    4  A    between atoms: C_8  and  C_9
REMARK    5  A    between atoms: N_11  and  C_12
REMARK    6  A    between atoms: C_19  and  C_20
REMARK    7  A    between atoms: C_24  and  C_25
REMARK    8  A    between atoms: C_25  and  C_26
REMARK    9  A    between atoms: C_26  and  C_27
REMARK   10  A    between atoms: C_27  and  O_28
REMARK                            x       y       z     vdW  Elec       q    Type
REMARK                         _______ _______ _______ _____ _____    ______ ____
ROOT
ATOM      1  C   UNL     1       0.061  12.538  19.256  0.00  0.00    +0.000 C 
ATOM      2  C   UNL     1       0.582  13.476  20.347  0.00  0.00    +0.000 C 
ATOM      3  C   UNL     1      -0.291  14.066  21.215  0.00  0.00    +0.000 C 
ATOM      4  C   UNL     1       0.041  14.981  22.374  0.00  0.00    +0.000 C 
ATOM      5  N   UNL     1      -1.662  13.838  21.086  0.00  0.00    +0.000 N 
ATOM      6  C   UNL     1      -2.212  13.025  20.169  0.00  0.00    +0.000 A 
ATOM      7  N   UNL     1      -3.454  12.675  19.948  0.00  0.00    +0.000 NA
ATOM      8  C   UNL     1      -3.342  11.826  18.870  0.00  0.00    +0.000 A 
ATOM      9  N   UNL     1      -2.102  11.676  18.382  0.00  0.00    +0.000 NA
ATOM     10  N   UNL     1      -1.396  12.397  19.281  0.00  0.00    +0.000 N 
ATOM     11  H   UNL     1      -2.277  14.290  21.761  0.00  0.00    +0.000 HD
ENDROOT
BRANCH   1  15
ATOM     12  C   UNL     1       1.818   8.567  19.150  0.00  0.00    +0.000 A 
ATOM     13  C   UNL     1       1.102   8.976  20.274  0.00  0.00    +0.000 A 
ATOM     14  C   UNL     1       0.522  10.247  20.326  0.00  0.00    +0.000 A 
ATOM     15  C   UNL     1       0.691  11.147  19.261  0.00  0.00    +0.000 A 
ATOM     16  C   UNL     1       1.433  10.729  18.143  0.00  0.00    +0.000 A 
ATOM     17  C   UNL     1       1.993   9.449  18.088  0.00  0.00    +0.000 A 
BRANCH  12  19
ATOM     18  C   UNL     1       3.120   6.914  18.088  0.00  0.00    +0.000 C 
ATOM     19  O   UNL     1       2.329   7.301  19.208  0.00  0.00    +0.000 OA
ENDBRANCH  12  19
ENDBRANCH   1  15
BRANCH   2  20
ATOM     20  C   UNL     1       2.081  13.643  20.452  0.00  0.00    +0.000 C 
ATOM     21  O   UNL     1       2.707  13.025  21.304  0.00  0.00    +0.000 OA
ATOM     22  N   UNL     1       2.657  14.498  19.526  0.00  0.00    +0.000 N 
ATOM     23  H   UNL     1       2.065  15.028  18.907  0.00  0.00    +0.000 HD
BRANCH  22  24
ATOM     24  C   UNL     1       4.038  14.771  19.375  0.00  0.00    +0.000 A 
ATOM     25  C   UNL     1       4.833  15.355  20.366  0.00  0.00    +0.000 A 
ATOM     26  C   UNL     1       6.176  15.654  20.118  0.00  0.00    +0.000 A 
ATOM     27  C   UNL     1       6.728  15.362  18.880  0.00  0.00    +0.000 A 
ATOM     28  F   UNL     1       8.006  15.676  18.634  0.00  0.00    +0.000 F 
ATOM     29  C   UNL     1       5.970  14.746  17.894  0.00  0.00    +0.000 A 
ATOM     30  C   UNL     1       4.629  14.438  18.146  0.00  0.00    +0.000 A 
ENDBRANCH  22  24
ENDBRANCH   2  20
BRANCH   8  31
ATOM     31  C   UNL     1      -4.502  11.099  18.295  0.00  0.00    +0.000 C 
BRANCH  31  32
ATOM     32  C   UNL     1      -4.846  11.524  16.871  0.00  0.00    +0.000 C 
BRANCH  32  33
ATOM     33  C   UNL     1      -4.062  10.765  15.806  0.00  0.00    +0.000 C 
BRANCH  33  34
ATOM     34  O   UNL     1      -2.956  11.550  15.372  0.00  0.00    +0.000 OA
ATOM     35  H   UNL     1      -3.207  11.975  14.535  0.00  0.00    +0.000 HD
ENDBRANCH  33  34
ENDBRANCH  32  33
ENDBRANCH  31  32
ENDBRANCH   8  31
TORSDOF 8
ENDMDL
MODEL 7
REMARK VINA RESULT:      -6.5      5.730     11.374
REMARK  Name = 
REMARK  10 active torsions:
REMARK  status: ('A' for Active; 'I' for Inactive)
REMARK    1  A    between atoms: C_1  and  O_2
REMARK    2  A    between atoms: O_2  and  C_3
REMARK    3  A    between atoms: C_6  and  C_7
REMARK    4  A    between atoms: C_8  and  C_9
REMARK    5  A    between atoms: N_11  and  C_12
REMARK    6  A    between atoms: C_19  and  C_20
REMARK    7  A    between atoms: C_24  and  C_25
REMARK    8  A    between atoms: C_25  and  C_26
REMARK    9  A    between atoms: C_26  and  C_27
REMARK   10  A    between atoms: C_27  and  O_28
REMARK                            x       y       z     vdW  Elec       q    Type
REMARK                         _______ _______ _______ _____ _____    ______ ____
ROOT
ATOM      1  C   UNL     1      -1.201  11.831  20.207  0.00  0.00    +0.000 C 
ATOM      2  C   UNL     1      -0.257  10.860  20.921  0.00  0.00    +0.000 C 
ATOM      3  C   UNL     1      -0.467  10.544  22.232  0.00  0.00    +0.000 C 
ATOM      4  C   UNL     1       0.330   9.580  23.085  0.00  0.00    +0.000 C 
ATOM      5  N   UNL     1      -1.523  11.133  22.930  0.00  0.00    +0.000 N 
ATOM      6  C   UNL     1      -2.407  11.986  22.387  0.00  0.00    +0.000 A 
ATOM      7  N   UNL     1      -3.462  12.581  22.885  0.00  0.00    +0.000 NA
ATOM      8  C   UNL     1      -3.925  13.318  21.819  0.00  0.00    +0.000 A 
ATOM      9  N   UNL     1      -3.181  13.250  20.705  0.00  0.00    +0.000 NA
ATOM     10  N   UNL     1      -2.262  12.333  21.080  0.00  0.00    +0.000 N 
ATOM     11  H   UNL     1      -1.648  10.862  23.903  0.00  0.00    +0.000 HD
ENDROOT
BRANCH   1  15
ATOM     12  C   UNL     1      -3.034  10.377  16.548  0.00  0.00    +0.000 A 
ATOM     13  C   UNL     1      -3.173   9.647  17.728  0.00  0.00    +0.000 A 
ATOM     14  C   UNL     1      -2.597  10.101  18.917  0.00  0.00    +0.000 A 
ATOM     15  C   UNL     1      -1.832  11.279  18.931  0.00  0.00    +0.000 A 
ATOM     16  C   UNL     1      -1.683  11.993  17.730  0.00  0.00    +0.000 A 
ATOM     17  C   UNL     1      -2.278  11.545  16.547  0.00  0.00    +0.000 A 
BRANCH  12  19
ATOM     18  C   UNL     1      -2.995  10.085  14.209  0.00  0.00    +0.000 C 
ATOM     19  O   UNL     1      -3.649   9.842  15.450  0.00  0.00    +0.000 OA
ENDBRANCH  12  19
ENDBRANCH   1  15
BRANCH   2  20
ATOM     20  C   UNL     1       0.839  10.231  20.091  0.00  0.00    +0.000 C 
ATOM     21  O   UNL     1       1.669  10.941  19.535  0.00  0.00    +0.000 OA
ATOM     22  N   UNL     1       0.836   8.847  20.039  0.00  0.00    +0.000 N 
ATOM     23  H   UNL     1       0.075   8.338  20.461  0.00  0.00    +0.000 HD
BRANCH  22  24
ATOM     24  C   UNL     1       1.786   8.025  19.387  0.00  0.00    +0.000 A 
ATOM     25  C   UNL     1       2.305   6.846  19.932  0.00  0.00    +0.000 A 
ATOM     26  C   UNL     1       3.291   6.122  19.256  0.00  0.00    +0.000 A 
ATOM     27  C   UNL     1       3.753   6.571  18.028  0.00  0.00    +0.000 A 
ATOM     28  F   UNL     1       4.719   5.893  17.396  0.00  0.00    +0.000 F 
ATOM     29  C   UNL     1       3.226   7.717  17.449  0.00  0.00    +0.000 A 
ATOM     30  C   UNL     1       2.233   8.436  18.121  0.00  0.00    +0.000 A 
ENDBRANCH  22  24
ENDBRANCH   2  20
BRANCH   8  31
ATOM     31  C   UNL     1      -5.176  14.116  21.875  0.00  0.00    +0.000 C 
BRANCH  31  32
ATOM     32  C   UNL     1      -6.391  13.319  22.338  0.00  0.00    +0.000 C 
BRANCH  32  33
ATOM     33  C   UNL     1      -7.076  12.550  21.214  0.00  0.00    +0.000 C 
BRANCH  33  34
ATOM     34  O   UNL     1      -7.127  11.164  21.540  0.00  0.00    +0.000 OA
ATOM     35  H   UNL     1      -7.571  10.706  20.807  0.00  0.00    +0.000 HD
ENDBRANCH  33  34
ENDBRANCH  32  33
ENDBRANCH  31  32
ENDBRANCH   8  31
TORSDOF 8
ENDMDL
MODEL 8
REMARK VINA RESULT:      -6.4      5.710     11.338
REMARK  Name = 
REMARK  10 active torsions:
REMARK  status: ('A' for Active; 'I' for Inactive)
REMARK    1  A    between atoms: C_1  and  O_2
REMARK    2  A    between atoms: O_2  and  C_3
REMARK    3  A    between atoms: C_6  and  C_7
REMARK    4  A    between atoms: C_8  and  C_9
REMARK    5  A    between atoms: N_11  and  C_12
REMARK    6  A    between atoms: C_19  and  C_20
REMARK    7  A    between atoms: C_24  and  C_25
REMARK    8  A    between atoms: C_25  and  C_26
REMARK    9  A    between atoms: C_26  and  C_27
REMARK   10  A    between atoms: C_27  and  O_28
REMARK                            x       y       z     vdW  Elec       q    Type
REMARK                         _______ _______ _______ _____ _____    ______ ____
ROOT
ATOM      1  C   UNL     1      -1.345  11.861  20.141  0.00  0.00    +0.000 C 
ATOM      2  C   UNL     1      -0.344  10.946  20.851  0.00  0.00    +0.000 C 
ATOM      3  C   UNL     1      -0.526  10.621  22.164  0.00  0.00    +0.000 C 
ATOM      4  C   UNL     1       0.328   9.705  23.013  0.00  0.00    +0.000 C 
ATOM      5  N   UNL     1      -1.609  11.152  22.868  0.00  0.00    +0.000 N 
ATOM      6  C   UNL     1      -2.543  11.954  22.330  0.00  0.00    +0.000 A 
ATOM      7  N   UNL     1      -3.625  12.490  22.834  0.00  0.00    +0.000 NA
ATOM      8  C   UNL     1      -4.136  13.198  21.770  0.00  0.00    +0.000 A 
ATOM      9  N   UNL     1      -3.397  13.169  20.651  0.00  0.00    +0.000 NA
ATOM     10  N   UNL     1      -2.426  12.305  21.021  0.00  0.00    +0.000 N 
ATOM     11  H   UNL     1      -1.713  10.876  23.843  0.00  0.00    +0.000 HD
ENDROOT
BRANCH   1  15
ATOM     12  C   UNL     1      -3.042  10.069  16.567  0.00  0.00    +0.000 A 
ATOM     13  C   UNL     1      -2.329  11.263  16.470  0.00  0.00    +0.000 A 
ATOM     14  C   UNL     1      -1.769  11.852  17.607  0.00  0.00    +0.000 A 
ATOM     15  C   UNL     1      -1.953  11.271  18.871  0.00  0.00    +0.000 A 
ATOM     16  C   UNL     1      -2.692  10.078  18.957  0.00  0.00    +0.000 A 
ATOM     17  C   UNL     1      -3.233   9.482  17.814  0.00  0.00    +0.000 A 
BRANCH  12  19
ATOM     18  C   UNL     1      -3.067  10.240  14.216  0.00  0.00    +0.000 C 
ATOM     19  O   UNL     1      -3.534   9.581  15.389  0.00  0.00    +0.000 OA
ENDBRANCH  12  19
ENDBRANCH   1  15
BRANCH   2  20
ATOM     20  C   UNL     1       0.780  10.377  20.015  0.00  0.00    +0.000 C 
ATOM     21  O   UNL     1       1.596  11.128  19.494  0.00  0.00    +0.000 OA
ATOM     22  N   UNL     1       0.817   8.995  19.915  0.00  0.00    +0.000 N 
ATOM     23  H   UNL     1       0.065   8.451  20.309  0.00  0.00    +0.000 HD
BRANCH  22  24
ATOM     24  C   UNL     1       1.798   8.223  19.248  0.00  0.00    +0.000 A 
ATOM     25  C   UNL     1       2.329   8.545  17.995  0.00  0.00    +0.000 A 
ATOM     26  C   UNL     1       3.248   7.697  17.371  0.00  0.00    +0.000 A 
ATOM     27  C   UNL     1       3.643   6.528  18.003  0.00  0.00    +0.000 A 
ATOM     28  F   UNL     1       4.500   5.701  17.391  0.00  0.00    +0.000 F 
ATOM     29  C   UNL     1       3.161   6.206  19.264  0.00  0.00    +0.000 A 
ATOM     30  C   UNL     1       2.249   7.060  19.893  0.00  0.00    +0.000 A 
ENDBRANCH  22  24
ENDBRANCH   2  20
BRANCH   8  31
ATOM     31  C   UNL     1      -5.429  13.925  21.833  0.00  0.00    +0.000 C 
BRANCH  31  32
ATOM     32  C   UNL     1      -6.648  13.023  21.676  0.00  0.00    +0.000 C 
BRANCH  32  33
ATOM     33  C   UNL     1      -6.446  11.904  20.659  0.00  0.00    +0.000 C 
BRANCH  33  34
ATOM     34  O   UNL     1      -6.323  12.458  19.352  0.00  0.00    +0.000 OA
ATOM     35  H   UNL     1      -6.833  13.285  19.334  0.00  0.00    +0.000 HD
ENDBRANCH  33  34
ENDBRANCH  32  33
ENDBRANCH  31  32
ENDBRANCH   8  31
TORSDOF 8
ENDMDL
MODEL 9
REMARK VINA RESULT:      -6.4      6.343     10.251
REMARK  Name = 
REMARK  10 active torsions:
REMARK  status: ('A' for Active; 'I' for Inactive)
REMARK    1  A    between atoms: C_1  and  O_2
REMARK    2  A    between atoms: O_2  and  C_3
REMARK    3  A    between atoms: C_6  and  C_7
REMARK    4  A    between atoms: C_8  and  C_9
REMARK    5  A    between atoms: N_11  and  C_12
REMARK    6  A    between atoms: C_19  and  C_20
REMARK    7  A    between atoms: C_24  and  C_25
REMARK    8  A    between atoms: C_25  and  C_26
REMARK    9  A    between atoms: C_26  and  C_27
REMARK   10  A    between atoms: C_27  and  O_28
REMARK                            x       y       z     vdW  Elec       q    Type
REMARK                         _______ _______ _______ _____ _____    ______ ____
ROOT
ATOM      1  C   UNL     1       0.017  12.521  19.223  0.00  0.00    +0.000 C 
ATOM      2  C   UNL     1       0.573  13.474  20.284  0.00  0.00    +0.000 C 
ATOM      3  C   UNL     1      -0.273  14.101  21.150  0.00  0.00    +0.000 C 
ATOM      4  C   UNL     1       0.095  15.037  22.282  0.00  0.00    +0.000 C 
ATOM      5  N   UNL     1      -1.651  13.900  21.046  0.00  0.00    +0.000 N 
ATOM      6  C   UNL     1      -2.231  13.078  20.156  0.00  0.00    +0.000 A 
ATOM      7  N   UNL     1      -3.484  12.749  19.962  0.00  0.00    +0.000 NA
ATOM      8  C   UNL     1      -3.405  11.873  18.903  0.00  0.00    +0.000 A 
ATOM      9  N   UNL     1      -2.176  11.685  18.400  0.00  0.00    +0.000 NA
ATOM     10  N   UNL     1      -1.442  12.411  19.272  0.00  0.00    +0.000 N 
ATOM     11  H   UNL     1      -2.246  14.381  21.719  0.00  0.00    +0.000 HD
ENDROOT
BRANCH   1  15
ATOM     12  C   UNL     1       1.758   8.547  19.426  0.00  0.00    +0.000 A 
ATOM     13  C   UNL     1       1.955   9.331  18.290  0.00  0.00    +0.000 A 
ATOM     14  C   UNL     1       1.410  10.615  18.207  0.00  0.00    +0.000 A 
ATOM     15  C   UNL     1       0.618  11.118  19.252  0.00  0.00    +0.000 A 
ATOM     16  C   UNL     1       0.410  10.308  20.382  0.00  0.00    +0.000 A 
ATOM     17  C   UNL     1       0.975   9.033  20.468  0.00  0.00    +0.000 A 
BRANCH  12  19
ATOM     18  C   UNL     1       2.839   6.903  18.127  0.00  0.00    +0.000 C 
ATOM     19  O   UNL     1       2.348   7.315  19.399  0.00  0.00    +0.000 OA
ENDBRANCH  12  19
ENDBRANCH   1  15
BRANCH   2  20
ATOM     20  C   UNL     1       2.077  13.611  20.363  0.00  0.00    +0.000 C 
ATOM     21  O   UNL     1       2.708  12.965  21.190  0.00  0.00    +0.000 OA
ATOM     22  N   UNL     1       2.652  14.473  19.443  0.00  0.00    +0.000 N 
ATOM     23  H   UNL     1       2.058  15.027  18.846  0.00  0.00    +0.000 HD
BRANCH  22  24
ATOM     24  C   UNL     1       4.034  14.724  19.271  0.00  0.00    +0.000 A 
ATOM     25  C   UNL     1       4.723  14.518  18.071  0.00  0.00    +0.000 A 
ATOM     26  C   UNL     1       6.103  14.727  17.997  0.00  0.00    +0.000 A 
ATOM     27  C   UNL     1       6.795  15.150  19.121  0.00  0.00    +0.000 A 
ATOM     28  F   UNL     1       8.122  15.320  19.057  0.00  0.00    +0.000 F 
ATOM     29  C   UNL     1       6.128  15.399  20.313  0.00  0.00    +0.000 A 
ATOM     30  C   UNL     1       4.746  15.200  20.384  0.00  0.00    +0.000 A 
ENDBRANCH  22  24
ENDBRANCH   2  20
BRANCH   8  31
ATOM     31  C   UNL     1      -4.589  11.157  18.362  0.00  0.00    +0.000 C 
BRANCH  31  32
ATOM     32  C   UNL     1      -4.930  11.538  16.925  0.00  0.00    +0.000 C 
BRANCH  32  33
ATOM     33  C   UNL     1      -4.111  10.779  15.887  0.00  0.00    +0.000 C 
BRANCH  33  34
ATOM     34  O   UNL     1      -3.046  11.601  15.419  0.00  0.00    +0.000 OA
ATOM     35  H   UNL     1      -2.500  11.841  16.186  0.00  0.00    +0.000 HD
ENDBRANCH  33  34
ENDBRANCH  32  33
ENDBRANCH  31  32
ENDBRANCH   8  31
TORSDOF 8
ENDMDL
