MODEL 1
REMARK VINA RESULT:      -7.6      0.000      0.000
REMARK  Name = 
REMARK  13 active torsions:
REMARK  status: ('A' for Active; 'I' for Inactive)
REMARK    1  A    between atoms: C_2  and  C_4
REMARK    2  A    between atoms: C_7  and  N_8
REMARK    3  A    between atoms: N_8  and  C_9
REMARK    4  A    between atoms: C_9  and  C_10
REMARK    5  A    between atoms: C_10  and  C_11
REMARK    6  A    between atoms: C_11  and  C_12
REMARK    7  A    between atoms: C_12  and  C_13
REMARK    8  A    between atoms: C_13  and  C_14
REMARK    9  A    between atoms: C_14  and  N_15
REMARK   10  A    between atoms: N_15  and  C_16
REMARK   11  A    between atoms: C_19  and  C_20
REMARK   12  A    between atoms: C_24  and  N_25
REMARK   13  A    between atoms: C_26  and  N_27
REMARK                            x       y       z     vdW  Elec       q    Type
REMARK                         _______ _______ _______ _____ _____    ______ ____
ROOT
ATOM      1  C   UNL     1       1.545   4.331  20.274  0.00  0.00    +0.000 C 
ENDROOT
BRANCH   1   2
ATOM      2  C   UNL     1       1.277   5.741  20.807  0.00  0.00    +0.000 C 
BRANCH   2   3
ATOM      3  C   UNL     1       2.088   6.753  20.009  0.00  0.00    +0.000 C 
BRANCH   3   4
ATOM      4  N   UNL     1       2.064   8.062  20.633  0.00  0.00    +0.000 N 
ATOM      5  H   UNL     1       2.987   8.477  20.743  0.00  0.00    +0.000 HD
BRANCH   4   9
ATOM      6  C   UNL     1      -0.684  10.784  18.896  0.00  0.00    +0.000 A 
ATOM      7  C   UNL     1       0.264  10.151  18.090  0.00  0.00    +0.000 A 
ATOM      8  C   UNL     1       1.189   9.273  18.654  0.00  0.00    +0.000 A 
ATOM      9  C   UNL     1       1.203   9.016  20.034  0.00  0.00    +0.000 A 
ATOM     10  C   UNL     1       0.218   9.632  20.844  0.00  0.00    +0.000 A 
ATOM     11  C   UNL     1      -0.682  10.544  20.279  0.00  0.00    +0.000 A 
BRANCH   6  13
ATOM     12  N   UNL     1      -2.492  12.356  19.021  0.00  0.00    +0.000 NA
ATOM     13  C   UNL     1      -1.696  11.680  18.267  0.00  0.00    +0.000 C 
ATOM     14  N   UNL     1      -1.773  11.778  16.906  0.00  0.00    +0.000 N 
ATOM     15  H   UNL     1      -3.085  12.955  18.450  0.00  0.00    +0.000 HD
ATOM     16  H   UNL     1      -2.652  12.132  16.555  0.00  0.00    +0.000 HD
ATOM     17  H   UNL     1      -1.468  10.957  16.397  0.00  0.00    +0.000 HD
ENDBRANCH   6  13
BRANCH  10  18
ATOM     18  N   UNL     1       0.274   9.487  22.253  0.00  0.00    +0.000 N 
ATOM     19  H   UNL     1       1.240   9.554  22.568  0.00  0.00    +0.000 HD
ATOM     20  H   UNL     1      -0.153   8.623  22.571  0.00  0.00    +0.000 HD
ENDBRANCH  10  18
ENDBRANCH   4   9
ENDBRANCH   3   4
ENDBRANCH   2   3
ENDBRANCH   1   2
BRANCH   1  21
ATOM     21  C   UNL     1       2.078   3.353  21.337  0.00  0.00    +0.000 C 
BRANCH  21  22
ATOM     22  C   UNL     1       3.338   2.574  20.910  0.00  0.00    +0.000 C 
BRANCH  22  23
ATOM     23  C   UNL     1       3.770   3.089  19.547  0.00  0.00    +0.000 C 
BRANCH  23  24
ATOM     24  N   UNL     1       5.034   3.794  19.522  0.00  0.00    +0.000 N 
ATOM     25  H   UNL     1       5.748   3.376  20.111  0.00  0.00    +0.000 HD
BRANCH  24  26
ATOM     26  C   UNL     1       5.518   4.137  18.231  0.00  0.00    +0.000 A 
ATOM     27  C   UNL     1       4.673   3.846  17.138  0.00  0.00    +0.000 A 
ATOM     28  C   UNL     1       5.087   4.031  15.812  0.00  0.00    +0.000 A 
ATOM     29  C   UNL     1       6.380   4.478  15.544  0.00  0.00    +0.000 A 
ATOM     30  C   UNL     1       7.227   4.787  16.605  0.00  0.00    +0.000 A 
ATOM     31  C   UNL     1       6.817   4.648  17.942  0.00  0.00    +0.000 A 
BRANCH  29  32
ATOM     32  C   UNL     1       6.870   4.629  14.146  0.00  0.00    +0.000 C 
ATOM     33  N   UNL     1       6.412   3.930  13.155  0.00  0.00    +0.000 NA
ATOM     34  N   UNL     1       7.855   5.521  13.846  0.00  0.00    +0.000 N 
ATOM     35  H   UNL     1       5.636   3.325  13.444  0.00  0.00    +0.000 HD
ATOM     36  H   UNL     1       8.574   5.644  14.548  0.00  0.00    +0.000 HD
ATOM     37  H   UNL     1       8.233   5.336  12.921  0.00  0.00    +0.000 HD
ENDBRANCH  29  32
BRANCH  31  38
ATOM     38  N   UNL     1       7.810   4.914  18.909  0.00  0.00    +0.000 N 
ATOM     39  H   UNL     1       8.070   4.109  19.468  0.00  0.00    +0.000 HD
ATOM     40  H   UNL     1       8.643   5.331  18.516  0.00  0.00    +0.000 HD
ENDBRANCH  31  38
ENDBRANCH  24  26
ENDBRANCH  23  24
ENDBRANCH  22  23
ENDBRANCH  21  22
ENDBRANCH   1  21
TORSDOF 13
ENDMDL
MODEL 2
REMARK VINA RESULT:      -7.5      1.906      3.206
REMARK  Name = 
REMARK  13 active torsions:
REMARK  status: ('A' for Active; 'I' for Inactive)
REMARK    1  A    between atoms: C_2  and  C_4
REMARK    2  A    between atoms: C_7  and  N_8
REMARK    3  A    between atoms: N_8  and  C_9
REMARK    4  A    between atoms: C_9  and  C_10
REMARK    5  A    between atoms: C_10  and  C_11
REMARK    6  A    between atoms: C_11  and  C_12
REMARK    7  A    between atoms: C_12  and  C_13
REMARK    8  A    between atoms: C_13  and  C_14
REMARK    9  A    between atoms: C_14  and  N_15
REMARK   10  A    between atoms: N_15  and  C_16
REMARK   11  A    between atoms: C_19  and  C_20
REMARK   12  A    between atoms: C_24  and  N_25
REMARK   13  A    between atoms: C_26  and  N_27
REMARK                            x       y       z     vdW  Elec       q    Type
REMARK                         _______ _______ _______ _____ _____    ______ ____
ROOT
ATOM      1  C   UNL     1       1.623   2.644  20.430  0.00  0.00    +0.000 C 
ENDROOT
BRANCH   1   2
ATOM      2  C   UNL     1       2.436   3.853  20.901  0.00  0.00    +0.000 C 
BRANCH   2   3
ATOM      3  C   UNL     1       1.679   5.134  20.583  0.00  0.00    +0.000 C 
BRANCH   3   4
ATOM      4  N   UNL     1       2.564   6.283  20.567  0.00  0.00    +0.000 N 
ATOM      5  H   UNL     1       3.461   6.100  20.121  0.00  0.00    +0.000 HD
BRANCH   4   9
ATOM      6  C   UNL     1       1.146   9.915  18.902  0.00  0.00    +0.000 A 
ATOM      7  C   UNL     1       0.889   9.624  20.243  0.00  0.00    +0.000 A 
ATOM      8  C   UNL     1       1.329   8.421  20.795  0.00  0.00    +0.000 A 
ATOM      9  C   UNL     1       2.020   7.474  20.023  0.00  0.00    +0.000 A 
ATOM     10  C   UNL     1       2.310   7.788  18.673  0.00  0.00    +0.000 A 
ATOM     11  C   UNL     1       1.831   8.978  18.112  0.00  0.00    +0.000 A 
BRANCH   6  13
ATOM     12  N   UNL     1       1.595  12.136  18.114  0.00  0.00    +0.000 NA
ATOM     13  C   UNL     1       0.712  11.227  18.344  0.00  0.00    +0.000 C 
ATOM     14  N   UNL     1      -0.610  11.458  18.082  0.00  0.00    +0.000 N 
ATOM     15  H   UNL     1       1.154  12.950  17.689  0.00  0.00    +0.000 HD
ATOM     16  H   UNL     1      -0.866  12.433  18.018  0.00  0.00    +0.000 HD
ATOM     17  H   UNL     1      -1.260  10.936  18.657  0.00  0.00    +0.000 HD
ENDBRANCH   6  13
BRANCH  10  18
ATOM     18  N   UNL     1       2.903   6.810  17.834  0.00  0.00    +0.000 N 
ATOM     19  H   UNL     1       3.042   5.947  18.358  0.00  0.00    +0.000 HD
ATOM     20  H   UNL     1       3.774   7.130  17.423  0.00  0.00    +0.000 HD
ENDBRANCH  10  18
ENDBRANCH   4   9
ENDBRANCH   3   4
ENDBRANCH   2   3
ENDBRANCH   1   2
BRANCH   1  21
ATOM     21  C   UNL     1       1.020   2.806  19.023  0.00  0.00    +0.000 C 
BRANCH  21  22
ATOM     22  C   UNL     1       1.856   2.170  17.895  0.00  0.00    +0.000 C 
BRANCH  22  23
ATOM     23  C   UNL     1       2.916   3.172  17.472  0.00  0.00    +0.000 C 
BRANCH  23  24
ATOM     24  N   UNL     1       4.285   2.757  17.691  0.00  0.00    +0.000 N 
ATOM     25  H   UNL     1       4.573   1.971  17.115  0.00  0.00    +0.000 HD
BRANCH  24  26
ATOM     26  C   UNL     1       5.246   3.804  17.712  0.00  0.00    +0.000 A 
ATOM     27  C   UNL     1       5.467   4.438  18.954  0.00  0.00    +0.000 A 
ATOM     28  C   UNL     1       6.302   5.557  19.076  0.00  0.00    +0.000 A 
ATOM     29  C   UNL     1       6.909   6.097  17.945  0.00  0.00    +0.000 A 
ATOM     30  C   UNL     1       6.719   5.481  16.711  0.00  0.00    +0.000 A 
ATOM     31  C   UNL     1       5.920   4.334  16.573  0.00  0.00    +0.000 A 
BRANCH  29  32
ATOM     32  C   UNL     1       7.755   7.320  18.031  0.00  0.00    +0.000 C 
ATOM     33  N   UNL     1       7.785   8.227  17.106  0.00  0.00    +0.000 NA
ATOM     34  N   UNL     1       8.560   7.535  19.109  0.00  0.00    +0.000 N 
ATOM     35  H   UNL     1       7.114   8.028  16.357  0.00  0.00    +0.000 HD
ATOM     36  H   UNL     1       8.986   6.713  19.519  0.00  0.00    +0.000 HD
ATOM     37  H   UNL     1       9.232   8.271  18.910  0.00  0.00    +0.000 HD
ENDBRANCH  29  32
BRANCH  31  38
ATOM     38  N   UNL     1       5.748   3.872  15.250  0.00  0.00    +0.000 N 
ATOM     39  H   UNL     1       5.486   2.895  15.184  0.00  0.00    +0.000 HD
ATOM     40  H   UNL     1       5.096   4.431  14.719  0.00  0.00    +0.000 HD
ENDBRANCH  31  38
ENDBRANCH  24  26
ENDBRANCH  23  24
ENDBRANCH  22  23
ENDBRANCH  21  22
ENDBRANCH   1  21
TORSDOF 13
ENDMDL
MODEL 3
REMARK VINA RESULT:      -7.4      1.513      8.520
REMARK  Name = 
REMARK  13 active torsions:
REMARK  status: ('A' for Active; 'I' for Inactive)
REMARK    1  A    between atoms: C_2  and  C_4
REMARK    2  A    between atoms: C_7  and  N_8
REMARK    3  A    between atoms: N_8  and  C_9
REMARK    4  A    between atoms: C_9  and  C_10
REMARK    5  A    between atoms: C_10  and  C_11
REMARK    6  A    between atoms: C_11  and  C_12
REMARK    7  A    between atoms: C_12  and  C_13
REMARK    8  A    between atoms: C_13  and  C_14
REMARK    9  A    between atoms: C_14  and  N_15
REMARK   10  A    between atoms: N_15  and  C_16
REMARK   11  A    between atoms: C_19  and  C_20
REMARK   12  A    between atoms: C_24  and  N_25
REMARK   13  A    between atoms: C_26  and  N_27
REMARK                            x       y       z     vdW  Elec       q    Type
REMARK                         _______ _______ _______ _____ _____    ______ ____
ROOT
ATOM      1  C   UNL     1       1.436   3.711  20.643  0.00  0.00    +0.000 C 
ENDROOT
BRANCH   1   2
ATOM      2  C   UNL     1       1.080   2.418  19.905  0.00  0.00    +0.000 C 
BRANCH   2   3
ATOM      3  C   UNL     1       1.446   2.549  18.434  0.00  0.00    +0.000 C 
BRANCH   3   4
ATOM      4  N   UNL     1       2.743   1.960  18.156  0.00  0.00    +0.000 N 
ATOM      5  H   UNL     1       2.718   1.249  17.426  0.00  0.00    +0.000 HD
BRANCH   4   9
ATOM      6  C   UNL     1       5.794   4.820  17.463  0.00  0.00    +0.000 A 
ATOM      7  C   UNL     1       4.820   4.600  16.488  0.00  0.00    +0.000 A 
ATOM      8  C   UNL     1       3.826   3.644  16.694  0.00  0.00    +0.000 A 
ATOM      9  C   UNL     1       3.787   2.875  17.867  0.00  0.00    +0.000 A 
ATOM     10  C   UNL     1       4.755   3.124  18.870  0.00  0.00    +0.000 A 
ATOM     11  C   UNL     1       5.775   4.056  18.640  0.00  0.00    +0.000 A 
BRANCH   6  13
ATOM     12  N   UNL     1       7.250   6.104  16.052  0.00  0.00    +0.000 NA
ATOM     13  C   UNL     1       6.819   5.881  17.246  0.00  0.00    +0.000 C 
ATOM     14  N   UNL     1       7.291   6.606  18.304  0.00  0.00    +0.000 N 
ATOM     15  H   UNL     1       7.902   6.885  16.059  0.00  0.00    +0.000 HD
ATOM     16  H   UNL     1       8.178   7.062  18.144  0.00  0.00    +0.000 HD
ATOM     17  H   UNL     1       7.269   6.129  19.197  0.00  0.00    +0.000 HD
ENDBRANCH   6  13
BRANCH  10  18
ATOM     18  N   UNL     1       4.816   2.289  20.014  0.00  0.00    +0.000 N 
ATOM     19  H   UNL     1       3.957   1.747  20.090  0.00  0.00    +0.000 HD
ATOM     20  H   UNL     1       4.992   2.812  20.865  0.00  0.00    +0.000 HD
ENDBRANCH  10  18
ENDBRANCH   4   9
ENDBRANCH   3   4
ENDBRANCH   2   3
ENDBRANCH   1   2
BRANCH   1  21
ATOM     21  C   UNL     1       1.596   4.933  19.719  0.00  0.00    +0.000 C 
BRANCH  21  22
ATOM     22  C   UNL     1       2.308   6.135  20.372  0.00  0.00    +0.000 C 
BRANCH  22  23
ATOM     23  C   UNL     1       1.260   6.973  21.084  0.00  0.00    +0.000 C 
BRANCH  23  24
ATOM     24  N   UNL     1       1.631   8.350  21.332  0.00  0.00    +0.000 N 
ATOM     25  H   UNL     1       2.631   8.522  21.278  0.00  0.00    +0.000 HD
BRANCH  24  26
ATOM     26  C   UNL     1       0.867   9.325  20.636  0.00  0.00    +0.000 A 
ATOM     27  C   UNL     1       1.102   9.443  19.249  0.00  0.00    +0.000 A 
ATOM     28  C   UNL     1       0.496  10.445  18.478  0.00  0.00    +0.000 A 
ATOM     29  C   UNL     1      -0.334  11.383  19.088  0.00  0.00    +0.000 A 
ATOM     30  C   UNL     1      -0.593  11.279  20.452  0.00  0.00    +0.000 A 
ATOM     31  C   UNL     1      -0.030  10.258  21.234  0.00  0.00    +0.000 A 
BRANCH  29  32
ATOM     32  C   UNL     1      -0.946  12.495  18.308  0.00  0.00    +0.000 C 
ATOM     33  N   UNL     1      -0.860  13.739  18.662  0.00  0.00    +0.000 NA
ATOM     34  N   UNL     1      -1.648  12.243  17.169  0.00  0.00    +0.000 N 
ATOM     35  H   UNL     1      -0.271  13.858  19.492  0.00  0.00    +0.000 HD
ATOM     36  H   UNL     1      -2.193  11.389  17.160  0.00  0.00    +0.000 HD
ATOM     37  H   UNL     1      -2.189  13.059  16.896  0.00  0.00    +0.000 HD
ENDBRANCH  29  32
BRANCH  31  38
ATOM     38  N   UNL     1      -0.311  10.329  22.616  0.00  0.00    +0.000 N 
ATOM     39  H   UNL     1      -1.188  10.788  22.837  0.00  0.00    +0.000 HD
ATOM     40  H   UNL     1      -0.280   9.428  23.072  0.00  0.00    +0.000 HD
ENDBRANCH  31  38
ENDBRANCH  24  26
ENDBRANCH  23  24
ENDBRANCH  22  23
ENDBRANCH  21  22
ENDBRANCH   1  21
TORSDOF 13
ENDMDL
MODEL 4
REMARK VINA RESULT:      -7.4      1.717      2.264
REMARK  Name = 
REMARK  13 active torsions:
REMARK  status: ('A' for Active; 'I' for Inactive)
REMARK    1  A    between atoms: C_2  and  C_4
REMARK    2  A    between atoms: C_7  and  N_8
REMARK    3  A    between atoms: N_8  and  C_9
REMARK    4  A    between atoms: C_9  and  C_10
REMARK    5  A    between atoms: C_10  and  C_11
REMARK    6  A    between atoms: C_11  and  C_12
REMARK    7  A    between atoms: C_12  and  C_13
REMARK    8  A    between atoms: C_13  and  C_14
REMARK    9  A    between atoms: C_14  and  N_15
REMARK   10  A    between atoms: N_15  and  C_16
REMARK   11  A    between atoms: C_19  and  C_20
REMARK   12  A    between atoms: C_24  and  N_25
REMARK   13  A    between atoms: C_26  and  N_27
REMARK                            x       y       z     vdW  Elec       q    Type
REMARK                         _______ _______ _______ _____ _____    ______ ____
ROOT
ATOM      1  C   UNL     1       1.523   4.308  20.773  0.00  0.00    +0.000 C 
ENDROOT
BRANCH   1   2
ATOM      2  C   UNL     1       2.539   5.453  20.759  0.00  0.00    +0.000 C 
BRANCH   2   3
ATOM      3  C   UNL     1       1.959   6.644  20.010  0.00  0.00    +0.000 C 
BRANCH   3   4
ATOM      4  N   UNL     1       1.783   7.787  20.886  0.00  0.00    +0.000 N 
ATOM      5  H   UNL     1       2.654   8.126  21.292  0.00  0.00    +0.000 HD
BRANCH   4   9
ATOM      6  C   UNL     1      -0.515  10.964  19.275  0.00  0.00    +0.000 A 
ATOM      7  C   UNL     1       0.368  10.264  18.451  0.00  0.00    +0.000 A 
ATOM      8  C   UNL     1       1.147   9.234  18.976  0.00  0.00    +0.000 A 
ATOM      9  C   UNL     1       1.078   8.886  20.333  0.00  0.00    +0.000 A 
ATOM     10  C   UNL     1       0.156   9.574  21.159  0.00  0.00    +0.000 A 
ATOM     11  C   UNL     1      -0.594  10.635  20.637  0.00  0.00    +0.000 A 
BRANCH   6  13
ATOM     12  N   UNL     1      -1.306  12.264  17.420  0.00  0.00    +0.000 NA
ATOM     13  C   UNL     1      -1.376  12.028  18.685  0.00  0.00    +0.000 C 
ATOM     14  N   UNL     1      -2.227  12.743  19.480  0.00  0.00    +0.000 N 
ATOM     15  H   UNL     1      -1.986  12.976  17.162  0.00  0.00    +0.000 HD
ATOM     16  H   UNL     1      -2.527  13.627  19.095  0.00  0.00    +0.000 HD
ATOM     17  H   UNL     1      -1.939  12.832  20.447  0.00  0.00    +0.000 HD
ENDBRANCH   6  13
BRANCH  10  18
ATOM     18  N   UNL     1       0.143   9.330  22.556  0.00  0.00    +0.000 N 
ATOM     19  H   UNL     1      -0.547   9.931  23.004  0.00  0.00    +0.000 HD
ATOM     20  H   UNL     1       1.058   9.449  22.978  0.00  0.00    +0.000 HD
ENDBRANCH  10  18
ENDBRANCH   4   9
ENDBRANCH   3   4
ENDBRANCH   2   3
ENDBRANCH   1   2
BRANCH   1  21
ATOM     21  C   UNL     1       0.839   4.063  19.415  0.00  0.00    +0.000 C 
BRANCH  21  22
ATOM     22  C   UNL     1       0.566   2.579  19.100  0.00  0.00    +0.000 C 
BRANCH  22  23
ATOM     23  C   UNL     1       1.861   1.809  19.295  0.00  0.00    +0.000 C 
BRANCH  23  24
ATOM     24  N   UNL     1       2.763   1.815  18.163  0.00  0.00    +0.000 N 
ATOM     25  H   UNL     1       2.309   1.614  17.276  0.00  0.00    +0.000 HD
BRANCH  24  26
ATOM     26  C   UNL     1       3.647   2.925  18.090  0.00  0.00    +0.000 A 
ATOM     27  C   UNL     1       3.502   3.779  16.976  0.00  0.00    +0.000 A 
ATOM     28  C   UNL     1       4.389   4.838  16.734  0.00  0.00    +0.000 A 
ATOM     29  C   UNL     1       5.473   5.043  17.585  0.00  0.00    +0.000 A 
ATOM     30  C   UNL     1       5.628   4.223  18.699  0.00  0.00    +0.000 A 
ATOM     31  C   UNL     1       4.727   3.184  18.983  0.00  0.00    +0.000 A 
BRANCH  29  32
ATOM     32  C   UNL     1       6.467   6.121  17.323  0.00  0.00    +0.000 C 
ATOM     33  N   UNL     1       6.157   7.249  16.764  0.00  0.00    +0.000 NA
ATOM     34  N   UNL     1       7.777   5.957  17.658  0.00  0.00    +0.000 N 
ATOM     35  H   UNL     1       5.149   7.325  16.594  0.00  0.00    +0.000 HD
ATOM     36  H   UNL     1       8.150   5.022  17.553  0.00  0.00    +0.000 HD
ATOM     37  H   UNL     1       8.351   6.665  17.207  0.00  0.00    +0.000 HD
ENDBRANCH  29  32
BRANCH  31  38
ATOM     38  N   UNL     1       5.061   2.382  20.096  0.00  0.00    +0.000 N 
ATOM     39  H   UNL     1       5.872   2.704  20.611  0.00  0.00    +0.000 HD
ATOM     40  H   UNL     1       4.288   2.252  20.734  0.00  0.00    +0.000 HD
ENDBRANCH  31  38
ENDBRANCH  24  26
ENDBRANCH  23  24
ENDBRANCH  22  23
ENDBRANCH  21  22
ENDBRANCH   1  21
TORSDOF 13
ENDMDL
MODEL 5
REMARK VINA RESULT:      -7.3      0.901      1.720
REMARK  Name = 
REMARK  13 active torsions:
REMARK  status: ('A' for Active; 'I' for Inactive)
REMARK    1  A    between atoms: C_2  and  C_4
REMARK    2  A    between atoms: C_7  and  N_8
REMARK    3  A    between atoms: N_8  and  C_9
REMARK    4  A    between atoms: C_9  and  C_10
REMARK    5  A    between atoms: C_10  and  C_11
REMARK    6  A    between atoms: C_11  and  C_12
REMARK    7  A    between atoms: C_12  and  C_13
REMARK    8  A    between atoms: C_13  and  C_14
REMARK    9  A    between atoms: C_14  and  N_15
REMARK   10  A    between atoms: N_15  and  C_16
REMARK   11  A    between atoms: C_19  and  C_20
REMARK   12  A    between atoms: C_24  and  N_25
REMARK   13  A    between atoms: C_26  and  N_27
REMARK                            x       y       z     vdW  Elec       q    Type
REMARK                         _______ _______ _______ _____ _____    ______ ____
ROOT
ATOM      1  C   UNL     1       1.966   3.948  21.559  0.00  0.00    +0.000 C 
ENDROOT
BRANCH   1   2
ATOM      2  C   UNL     1       2.017   4.987  20.436  0.00  0.00    +0.000 C 
BRANCH   2   3
ATOM      3  C   UNL     1       1.166   6.191  20.812  0.00  0.00    +0.000 C 
BRANCH   3   4
ATOM      4  N   UNL     1       1.930   7.422  20.744  0.00  0.00    +0.000 N 
ATOM      5  H   UNL     1       2.823   7.321  20.264  0.00  0.00    +0.000 HD
BRANCH   4   9
ATOM      6  C   UNL     1       0.088  10.879  19.122  0.00  0.00    +0.000 A 
ATOM      7  C   UNL     1      -0.228  10.473  20.420  0.00  0.00    +0.000 A 
ATOM      8  C   UNL     1       0.353   9.324  20.955  0.00  0.00    +0.000 A 
ATOM      9  C   UNL     1       1.248   8.543  20.208  0.00  0.00    +0.000 A 
ATOM     10  C   UNL     1       1.594   8.977  18.904  0.00  0.00    +0.000 A 
ATOM     11  C   UNL     1       0.977  10.108  18.356  0.00  0.00    +0.000 A 
BRANCH   6  13
ATOM     12  N   UNL     1       0.250  12.967  17.951  0.00  0.00    +0.000 NA
ATOM     13  C   UNL     1      -0.504  12.137  18.586  0.00  0.00    +0.000 C 
ATOM     14  N   UNL     1      -1.833  12.403  18.769  0.00  0.00    +0.000 N 
ATOM     15  H   UNL     1      -0.306  13.747  17.606  0.00  0.00    +0.000 HD
ATOM     16  H   UNL     1      -2.088  13.375  18.674  0.00  0.00    +0.000 HD
ATOM     17  H   UNL     1      -2.245  11.985  19.595  0.00  0.00    +0.000 HD
ENDBRANCH   6  13
BRANCH  10  18
ATOM     18  N   UNL     1       2.403   8.154  18.080  0.00  0.00    +0.000 N 
ATOM     19  H   UNL     1       3.267   8.641  17.849  0.00  0.00    +0.000 HD
ATOM     20  H   UNL     1       1.919   7.854  17.239  0.00  0.00    +0.000 HD
ENDBRANCH  10  18
ENDBRANCH   4   9
ENDBRANCH   3   4
ENDBRANCH   2   3
ENDBRANCH   1   2
BRANCH   1  21
ATOM     21  C   UNL     1       2.655   2.616  21.210  0.00  0.00    +0.000 C 
BRANCH  21  22
ATOM     22  C   UNL     1       2.990   2.447  19.715  0.00  0.00    +0.000 C 
BRANCH  22  23
ATOM     23  C   UNL     1       4.501   2.506  19.561  0.00  0.00    +0.000 C 
BRANCH  23  24
ATOM     24  N   UNL     1       5.060   3.834  19.426  0.00  0.00    +0.000 N 
ATOM     25  H   UNL     1       5.703   4.086  20.170  0.00  0.00    +0.000 HD
BRANCH  24  26
ATOM     26  C   UNL     1       5.556   4.161  18.135  0.00  0.00    +0.000 A 
ATOM     27  C   UNL     1       4.715   3.871  17.040  0.00  0.00    +0.000 A 
ATOM     28  C   UNL     1       5.139   4.040  15.714  0.00  0.00    +0.000 A 
ATOM     29  C   UNL     1       6.439   4.469  15.452  0.00  0.00    +0.000 A 
ATOM     30  C   UNL     1       7.283   4.776  16.515  0.00  0.00    +0.000 A 
ATOM     31  C   UNL     1       6.863   4.654  17.850  0.00  0.00    +0.000 A 
BRANCH  29  32
ATOM     32  C   UNL     1       6.940   4.602  14.056  0.00  0.00    +0.000 C 
ATOM     33  N   UNL     1       7.793   5.508  13.693  0.00  0.00    +0.000 NA
ATOM     34  N   UNL     1       6.502   3.764  13.075  0.00  0.00    +0.000 N 
ATOM     35  H   UNL     1       8.121   6.062  14.491  0.00  0.00    +0.000 HD
ATOM     36  H   UNL     1       5.534   3.473  13.136  0.00  0.00    +0.000 HD
ATOM     37  H   UNL     1       6.748   4.129  12.159  0.00  0.00    +0.000 HD
ENDBRANCH  29  32
BRANCH  31  38
ATOM     38  N   UNL     1       7.853   4.916  18.822  0.00  0.00    +0.000 N 
ATOM     39  H   UNL     1       8.716   4.401  18.683  0.00  0.00    +0.000 HD
ATOM     40  H   UNL     1       8.062   5.900  18.918  0.00  0.00    +0.000 HD
ENDBRANCH  31  38
ENDBRANCH  24  26
ENDBRANCH  23  24
ENDBRANCH  22  23
ENDBRANCH  21  22
ENDBRANCH   1  21
TORSDOF 13
ENDMDL
MODEL 6
REMARK VINA RESULT:      -7.3      1.478      8.523
REMARK  Name = 
REMARK  13 active torsions:
REMARK  status: ('A' for Active; 'I' for Inactive)
REMARK    1  A    between atoms: C_2  and  C_4
REMARK    2  A    between atoms: C_7  and  N_8
REMARK    3  A    between atoms: N_8  and  C_9
REMARK    4  A    between atoms: C_9  and  C_10
REMARK    5  A    between atoms: C_10  and  C_11
REMARK    6  A    between atoms: C_11  and  C_12
REMARK    7  A    between atoms: C_12  and  C_13
REMARK    8  A    between atoms: C_13  and  C_14
REMARK    9  A    between atoms: C_14  and  N_15
REMARK   10  A    between atoms: N_15  and  C_16
REMARK   11  A    between atoms: C_19  and  C_20
REMARK   12  A    between atoms: C_24  and  N_25
REMARK   13  A    between atoms: C_26  and  N_27
REMARK                            x       y       z     vdW  Elec       q    Type
REMARK                         _______ _______ _______ _____ _____    ______ ____
ROOT
ATOM      1  C   UNL     1       1.386   3.318  20.217  0.00  0.00    +0.000 C 
ENDROOT
BRANCH   1   2
ATOM      2  C   UNL     1       1.867   2.933  18.815  0.00  0.00    +0.000 C 
BRANCH   2   3
ATOM      3  C   UNL     1       3.266   2.341  18.898  0.00  0.00    +0.000 C 
BRANCH   3   4
ATOM      4  N   UNL     1       4.057   2.681  17.731  0.00  0.00    +0.000 N 
ATOM      5  H   UNL     1       3.506   2.773  16.879  0.00  0.00    +0.000 HD
BRANCH   4   9
ATOM      6  C   UNL     1       6.709   5.977  18.012  0.00  0.00    +0.000 A 
ATOM      7  C   UNL     1       6.251   5.359  19.177  0.00  0.00    +0.000 A 
ATOM      8  C   UNL     1       5.358   4.290  19.097  0.00  0.00    +0.000 A 
ATOM      9  C   UNL     1       4.890   3.821  17.860  0.00  0.00    +0.000 A 
ATOM     10  C   UNL     1       5.385   4.427  16.679  0.00  0.00    +0.000 A 
ATOM     11  C   UNL     1       6.248   5.526  16.766  0.00  0.00    +0.000 A 
BRANCH   6  13
ATOM     12  N   UNL     1       8.515   7.108  19.115  0.00  0.00    +0.000 NA
ATOM     13  C   UNL     1       7.701   7.084  18.116  0.00  0.00    +0.000 C 
ATOM     14  N   UNL     1       7.742   8.062  17.161  0.00  0.00    +0.000 N 
ATOM     15  H   UNL     1       9.159   7.890  19.019  0.00  0.00    +0.000 HD
ATOM     16  H   UNL     1       8.193   8.918  17.449  0.00  0.00    +0.000 HD
ATOM     17  H   UNL     1       6.863   8.239  16.690  0.00  0.00    +0.000 HD
ENDBRANCH   6  13
BRANCH  10  18
ATOM     18  N   UNL     1       4.847   4.058  15.420  0.00  0.00    +0.000 N 
ATOM     19  H   UNL     1       5.262   3.180  15.113  0.00  0.00    +0.000 HD
ATOM     20  H   UNL     1       4.970   4.782  14.720  0.00  0.00    +0.000 HD
ENDBRANCH  10  18
ENDBRANCH   4   9
ENDBRANCH   3   4
ENDBRANCH   2   3
ENDBRANCH   1   2
BRANCH   1  21
ATOM     21  C   UNL     1       1.252   4.837  20.436  0.00  0.00    +0.000 C 
BRANCH  21  22
ATOM     22  C   UNL     1       2.585   5.608  20.374  0.00  0.00    +0.000 C 
BRANCH  22  23
ATOM     23  C   UNL     1       2.294   7.011  19.869  0.00  0.00    +0.000 C 
BRANCH  23  24
ATOM     24  N   UNL     1       1.805   7.940  20.866  0.00  0.00    +0.000 N 
ATOM     25  H   UNL     1       2.532   8.319  21.466  0.00  0.00    +0.000 HD
BRANCH  24  26
ATOM     26  C   UNL     1       0.911   8.936  20.388  0.00  0.00    +0.000 A 
ATOM     27  C   UNL     1       0.979   9.242  19.012  0.00  0.00    +0.000 A 
ATOM     28  C   UNL     1       0.232  10.285  18.447  0.00  0.00    +0.000 A 
ATOM     29  C   UNL     1      -0.577  11.078  19.259  0.00  0.00    +0.000 A 
ATOM     30  C   UNL     1      -0.672  10.787  20.617  0.00  0.00    +0.000 A 
ATOM     31  C   UNL     1       0.035   9.720  21.195  0.00  0.00    +0.000 A 
BRANCH  29  32
ATOM     32  C   UNL     1      -1.337  12.231  18.701  0.00  0.00    +0.000 C 
ATOM     33  N   UNL     1      -0.943  12.904  17.666  0.00  0.00    +0.000 NA
ATOM     34  N   UNL     1      -2.500  12.642  19.277  0.00  0.00    +0.000 N 
ATOM     35  H   UNL     1      -0.096  12.503  17.252  0.00  0.00    +0.000 HD
ATOM     36  H   UNL     1      -2.548  12.570  20.286  0.00  0.00    +0.000 HD
ATOM     37  H   UNL     1      -2.762  13.563  18.934  0.00  0.00    +0.000 HD
ENDBRANCH  29  32
BRANCH  31  38
ATOM     38  N   UNL     1      -0.091   9.599  22.596  0.00  0.00    +0.000 N 
ATOM     39  H   UNL     1       0.123  10.449  23.106  0.00  0.00    +0.000 HD
ATOM     40  H   UNL     1      -0.996   9.255  22.883  0.00  0.00    +0.000 HD
ENDBRANCH  31  38
ENDBRANCH  24  26
ENDBRANCH  23  24
ENDBRANCH  22  23
ENDBRANCH  21  22
ENDBRANCH   1  21
TORSDOF 13
ENDMDL
MODEL 7
REMARK VINA RESULT:      -7.3      1.423      2.436
REMARK  Name = 
REMARK  13 active torsions:
REMARK  status: ('A' for Active; 'I' for Inactive)
REMARK    1  A    between atoms: C_2  and  C_4
REMARK    2  A    between atoms: C_7  and  N_8
REMARK    3  A    between atoms: N_8  and  C_9
REMARK    4  A    between atoms: C_9  and  C_10
REMARK    5  A    between atoms: C_10  and  C_11
REMARK    6  A    between atoms: C_11  and  C_12
REMARK    7  A    between atoms: C_12  and  C_13
REMARK    8  A    between atoms: C_13  and  C_14
REMARK    9  A    between atoms: C_14  and  N_15
REMARK   10  A    between atoms: N_15  and  C_16
REMARK   11  A    between atoms: C_19  and  C_20
REMARK   12  A    between atoms: C_24  and  N_25
REMARK   13  A    between atoms: C_26  and  N_27
REMARK                            x       y       z     vdW  Elec       q    Type
REMARK                         _______ _______ _______ _____ _____    ______ ____
ROOT
ATOM      1  C   UNL     1       2.206   4.293  19.803  0.00  0.00    +0.000 C 
ENDROOT
BRANCH   1   2
ATOM      2  C   UNL     1       1.474   5.509  20.376  0.00  0.00    +0.000 C 
BRANCH   2   3
ATOM      3  C   UNL     1       2.172   6.785  19.928  0.00  0.00    +0.000 C 
BRANCH   3   4
ATOM      4  N   UNL     1       1.894   7.887  20.831  0.00  0.00    +0.000 N 
ATOM      5  H   UNL     1       2.728   8.273  21.270  0.00  0.00    +0.000 HD
BRANCH   4   9
ATOM      6  C   UNL     1      -0.578  10.951  19.260  0.00  0.00    +0.000 A 
ATOM      7  C   UNL     1       0.314  10.284  18.417  0.00  0.00    +0.000 A 
ATOM      8  C   UNL     1       1.150   9.292  18.929  0.00  0.00    +0.000 A 
ATOM      9  C   UNL     1       1.129   8.950  20.289  0.00  0.00    +0.000 A 
ATOM     10  C   UNL     1       0.199   9.604  21.134  0.00  0.00    +0.000 A 
ATOM     11  C   UNL     1      -0.609  10.628  20.625  0.00  0.00    +0.000 A 
BRANCH   6  13
ATOM     12  N   UNL     1      -2.481  12.406  19.397  0.00  0.00    +0.000 NA
ATOM     13  C   UNL     1      -1.499  11.973  18.685  0.00  0.00    +0.000 C 
ATOM     14  N   UNL     1      -1.298  12.442  17.416  0.00  0.00    +0.000 N 
ATOM     15  H   UNL     1      -2.984  13.132  18.890  0.00  0.00    +0.000 HD
ATOM     16  H   UNL     1      -2.107  12.868  16.989  0.00  0.00    +0.000 HD
ATOM     17  H   UNL     1      -0.835  11.796  16.788  0.00  0.00    +0.000 HD
ENDBRANCH   6  13
BRANCH  10  18
ATOM     18  N   UNL     1       0.230   9.368  22.532  0.00  0.00    +0.000 N 
ATOM     19  H   UNL     1      -0.700   9.503  22.925  0.00  0.00    +0.000 HD
ATOM     20  H   UNL     1       0.913   9.950  23.007  0.00  0.00    +0.000 HD
ENDBRANCH  10  18
ENDBRANCH   4   9
ENDBRANCH   3   4
ENDBRANCH   2   3
ENDBRANCH   1   2
BRANCH   1  21
ATOM     21  C   UNL     1       1.270   3.211  19.234  0.00  0.00    +0.000 C 
BRANCH  21  22
ATOM     22  C   UNL     1       1.973   2.162  18.350  0.00  0.00    +0.000 C 
BRANCH  22  23
ATOM     23  C   UNL     1       3.473   2.349  18.501  0.00  0.00    +0.000 C 
BRANCH  23  24
ATOM     24  N   UNL     1       4.178   2.710  17.289  0.00  0.00    +0.000 N 
ATOM     25  H   UNL     1       3.570   2.859  16.489  0.00  0.00    +0.000 HD
BRANCH  24  26
ATOM     26  C   UNL     1       5.157   3.730  17.433  0.00  0.00    +0.000 A 
ATOM     27  C   UNL     1       5.271   4.327  18.706  0.00  0.00    +0.000 A 
ATOM     28  C   UNL     1       6.117   5.420  18.939  0.00  0.00    +0.000 A 
ATOM     29  C   UNL     1       6.845   5.971  17.887  0.00  0.00    +0.000 A 
ATOM     30  C   UNL     1       6.762   5.390  16.624  0.00  0.00    +0.000 A 
ATOM     31  C   UNL     1       5.953   4.269  16.379  0.00  0.00    +0.000 A 
BRANCH  29  32
ATOM     32  C   UNL     1       7.708   7.168  18.088  0.00  0.00    +0.000 C 
ATOM     33  N   UNL     1       8.550   7.278  19.067  0.00  0.00    +0.000 NA
ATOM     34  N   UNL     1       7.636   8.230  17.238  0.00  0.00    +0.000 N 
ATOM     35  H   UNL     1       8.592   6.422  19.629  0.00  0.00    +0.000 HD
ATOM     36  H   UNL     1       6.717   8.444  16.868  0.00  0.00    +0.000 HD
ATOM     37  H   UNL     1       8.099   9.041  17.639  0.00  0.00    +0.000 HD
ENDBRANCH  29  32
BRANCH  31  38
ATOM     38  N   UNL     1       5.901   3.844  15.034  0.00  0.00    +0.000 N 
ATOM     39  H   UNL     1       6.321   4.493  14.378  0.00  0.00    +0.000 HD
ATOM     40  H   UNL     1       6.295   2.924  14.895  0.00  0.00    +0.000 HD
ENDBRANCH  31  38
ENDBRANCH  24  26
ENDBRANCH  23  24
ENDBRANCH  22  23
ENDBRANCH  21  22
ENDBRANCH   1  21
TORSDOF 13
ENDMDL
MODEL 8
REMARK VINA RESULT:      -7.3      2.121      8.438
REMARK  Name = 
REMARK  13 active torsions:
REMARK  status: ('A' for Active; 'I' for Inactive)
REMARK    1  A    between atoms: C_2  and  C_4
REMARK    2  A    between atoms: C_7  and  N_8
REMARK    3  A    between atoms: N_8  and  C_9
REMARK    4  A    between atoms: C_9  and  C_10
REMARK    5  A    between atoms: C_10  and  C_11
REMARK    6  A    between atoms: C_11  and  C_12
REMARK    7  A    between atoms: C_12  and  C_13
REMARK    8  A    between atoms: C_13  and  C_14
REMARK    9  A    between atoms: C_14  and  N_15
REMARK   10  A    between atoms: N_15  and  C_16
REMARK   11  A    between atoms: C_19  and  C_20
REMARK   12  A    between atoms: C_24  and  N_25
REMARK   13  A    between atoms: C_26  and  N_27
REMARK                            x       y       z     vdW  Elec       q    Type
REMARK                         _______ _______ _______ _____ _____    ______ ____
ROOT
ATOM      1  C   UNL     1       5.114   6.625  15.521  0.00  0.00    +0.000 C 
ENDROOT
BRANCH   1   2
ATOM      2  C   UNL     1       5.393   5.213  15.000  0.00  0.00    +0.000 C 
BRANCH   2   3
ATOM      3  C   UNL     1       6.207   4.439  16.026  0.00  0.00    +0.000 C 
BRANCH   3   4
ATOM      4  N   UNL     1       5.532   3.220  16.429  0.00  0.00    +0.000 N 
ATOM      5  H   UNL     1       6.168   2.473  16.703  0.00  0.00    +0.000 HD
BRANCH   4   9
ATOM      6  C   UNL     1       2.661   3.481  19.538  0.00  0.00    +0.000 A 
ATOM      7  C   UNL     1       2.244   3.196  18.236  0.00  0.00    +0.000 A 
ATOM      8  C   UNL     1       3.177   3.133  17.201  0.00  0.00    +0.000 A 
ATOM      9  C   UNL     1       4.541   3.365  17.433  0.00  0.00    +0.000 A 
ATOM     10  C   UNL     1       4.966   3.619  18.760  0.00  0.00    +0.000 A 
ATOM     11  C   UNL     1       4.021   3.723  19.789  0.00  0.00    +0.000 A 
BRANCH   6  13
ATOM     12  N   UNL     1       0.421   3.729  20.359  0.00  0.00    +0.000 NA
ATOM     13  C   UNL     1       1.656   3.495  20.639  0.00  0.00    +0.000 C 
ATOM     14  N   UNL     1       2.047   3.262  21.928  0.00  0.00    +0.000 N 
ATOM     15  H   UNL     1      -0.146   3.655  21.202  0.00  0.00    +0.000 HD
ATOM     16  H   UNL     1       1.404   3.594  22.633  0.00  0.00    +0.000 HD
ATOM     17  H   UNL     1       3.004   3.518  22.140  0.00  0.00    +0.000 HD
ENDBRANCH   6  13
BRANCH  10  18
ATOM     18  N   UNL     1       6.315   3.972  19.013  0.00  0.00    +0.000 N 
ATOM     19  H   UNL     1       6.900   3.674  18.235  0.00  0.00    +0.000 HD
ATOM     20  H   UNL     1       6.656   3.593  19.891  0.00  0.00    +0.000 HD
ENDBRANCH  10  18
ENDBRANCH   4   9
ENDBRANCH   3   4
ENDBRANCH   2   3
ENDBRANCH   1   2
BRANCH   1  21
ATOM     21  C   UNL     1       5.593   6.864  16.965  0.00  0.00    +0.000 C 
BRANCH  21  22
ATOM     22  C   UNL     1       4.458   6.940  18.006  0.00  0.00    +0.000 C 
BRANCH  22  23
ATOM     23  C   UNL     1       3.455   7.978  17.534  0.00  0.00    +0.000 C 
BRANCH  23  24
ATOM     24  N   UNL     1       2.081   7.732  17.918  0.00  0.00    +0.000 N 
ATOM     25  H   UNL     1       1.830   6.748  17.937  0.00  0.00    +0.000 HD
BRANCH  24  26
ATOM     26  C   UNL     1       1.631   8.437  19.068  0.00  0.00    +0.000 A 
ATOM     27  C   UNL     1       1.673   7.741  20.295  0.00  0.00    +0.000 A 
ATOM     28  C   UNL     1       1.149   8.287  21.475  0.00  0.00    +0.000 A 
ATOM     29  C   UNL     1       0.531   9.536  21.446  0.00  0.00    +0.000 A 
ATOM     30  C   UNL     1       0.491  10.249  20.251  0.00  0.00    +0.000 A 
ATOM     31  C   UNL     1       1.047   9.737  19.067  0.00  0.00    +0.000 A 
BRANCH  29  32
ATOM     32  C   UNL     1      -0.088  10.119  22.669  0.00  0.00    +0.000 C 
ATOM     33  N   UNL     1       0.068   9.612  23.852  0.00  0.00    +0.000 NA
ATOM     34  N   UNL     1      -0.873  11.229  22.591  0.00  0.00    +0.000 N 
ATOM     35  H   UNL     1       0.715   8.817  23.842  0.00  0.00    +0.000 HD
ATOM     36  H   UNL     1      -1.449  11.311  21.762  0.00  0.00    +0.000 HD
ATOM     37  H   UNL     1      -1.400  11.355  23.451  0.00  0.00    +0.000 HD
ENDBRANCH  29  32
BRANCH  31  38
ATOM     38  N   UNL     1       0.854  10.531  17.916  0.00  0.00    +0.000 N 
ATOM     39  H   UNL     1       0.673  10.000  17.072  0.00  0.00    +0.000 HD
ATOM     40  H   UNL     1       0.132  11.229  18.034  0.00  0.00    +0.000 HD
ENDBRANCH  31  38
ENDBRANCH  24  26
ENDBRANCH  23  24
ENDBRANCH  22  23
ENDBRANCH  21  22
ENDBRANCH   1  21
TORSDOF 13
ENDMDL
MODEL 9
REMARK VINA RESULT:      -7.2      1.512      2.097
REMARK  Name = 
REMARK  13 active torsions:
REMARK  status: ('A' for Active; 'I' for Inactive)
REMARK    1  A    between atoms: C_2  and  C_4
REMARK    2  A    between atoms: C_7  and  N_8
REMARK    3  A    between atoms: N_8  and  C_9
REMARK    4  A    between atoms: C_9  and  C_10
REMARK    5  A    between atoms: C_10  and  C_11
REMARK    6  A    between atoms: C_11  and  C_12
REMARK    7  A    between atoms: C_12  and  C_13
REMARK    8  A    between atoms: C_13  and  C_14
REMARK    9  A    between atoms: C_14  and  N_15
REMARK   10  A    between atoms: N_15  and  C_16
REMARK   11  A    between atoms: C_19  and  C_20
REMARK   12  A    between atoms: C_24  and  N_25
REMARK   13  A    between atoms: C_26  and  N_27
REMARK                            x       y       z     vdW  Elec       q    Type
REMARK                         _______ _______ _______ _____ _____    ______ ____
ROOT
ATOM      1  C   UNL     1       1.307   3.525  20.857  0.00  0.00    +0.000 C 
ENDROOT
BRANCH   1   2
ATOM      2  C   UNL     1       1.051   4.925  20.293  0.00  0.00    +0.000 C 
BRANCH   2   3
ATOM      3  C   UNL     1       2.181   5.858  20.704  0.00  0.00    +0.000 C 
BRANCH   3   4
ATOM      4  N   UNL     1       2.236   7.032  19.853  0.00  0.00    +0.000 N 
ATOM      5  H   UNL     1       1.930   6.856  18.898  0.00  0.00    +0.000 HD
BRANCH   4   9
ATOM      6  C   UNL     1       0.412  10.592  21.257  0.00  0.00    +0.000 A 
ATOM      7  C   UNL     1       0.711   9.568  22.158  0.00  0.00    +0.000 A 
ATOM      8  C   UNL     1       1.288   8.382  21.704  0.00  0.00    +0.000 A 
ATOM      9  C   UNL     1       1.567   8.181  20.343  0.00  0.00    +0.000 A 
ATOM     10  C   UNL     1       1.296   9.236  19.437  0.00  0.00    +0.000 A 
ATOM     11  C   UNL     1       0.678  10.407  19.891  0.00  0.00    +0.000 A 
BRANCH   6  13
ATOM     12  N   UNL     1      -0.666  11.903  22.952  0.00  0.00    +0.000 NA
ATOM     13  C   UNL     1      -0.158  11.870  21.769  0.00  0.00    +0.000 C 
ATOM     14  N   UNL     1      -0.140  12.992  20.987  0.00  0.00    +0.000 N 
ATOM     15  H   UNL     1      -0.965  12.850  23.176  0.00  0.00    +0.000 HD
ATOM     16  H   UNL     1      -0.804  13.705  21.253  0.00  0.00    +0.000 HD
ATOM     17  H   UNL     1      -0.151  12.820  19.989  0.00  0.00    +0.000 HD
ENDBRANCH   6  13
BRANCH  10  18
ATOM     18  N   UNL     1       1.456   9.026  18.044  0.00  0.00    +0.000 N 
ATOM     19  H   UNL     1       0.545   8.883  17.610  0.00  0.00    +0.000 HD
ATOM     20  H   UNL     1       2.081   8.253  17.839  0.00  0.00    +0.000 HD
ENDBRANCH  10  18
ENDBRANCH   4   9
ENDBRANCH   3   4
ENDBRANCH   2   3
ENDBRANCH   1   2
BRANCH   1  21
ATOM     21  C   UNL     1       2.289   2.684  20.020  0.00  0.00    +0.000 C 
BRANCH  21  22
ATOM     22  C   UNL     1       3.561   2.252  20.776  0.00  0.00    +0.000 C 
BRANCH  22  23
ATOM     23  C   UNL     1       4.759   2.551  19.891  0.00  0.00    +0.000 C 
BRANCH  23  24
ATOM     24  N   UNL     1       4.969   3.949  19.582  0.00  0.00    +0.000 N 
ATOM     25  H   UNL     1       5.463   4.461  20.307  0.00  0.00    +0.000 HD
BRANCH  24  26
ATOM     26  C   UNL     1       5.469   4.220  18.280  0.00  0.00    +0.000 A 
ATOM     27  C   UNL     1       4.599   3.962  17.199  0.00  0.00    +0.000 A 
ATOM     28  C   UNL     1       5.017   4.079  15.866  0.00  0.00    +0.000 A 
ATOM     29  C   UNL     1       6.338   4.420  15.581  0.00  0.00    +0.000 A 
ATOM     30  C   UNL     1       7.212   4.694  16.630  0.00  0.00    +0.000 A 
ATOM     31  C   UNL     1       6.801   4.624  17.971  0.00  0.00    +0.000 A 
BRANCH  29  32
ATOM     32  C   UNL     1       6.830   4.494  14.177  0.00  0.00    +0.000 C 
ATOM     33  N   UNL     1       6.527   3.616  13.273  0.00  0.00    +0.000 NA
ATOM     34  N   UNL     1       7.648   5.507  13.779  0.00  0.00    +0.000 N 
ATOM     35  H   UNL     1       5.864   2.919  13.628  0.00  0.00    +0.000 HD
ATOM     36  H   UNL     1       8.317   5.837  14.465  0.00  0.00    +0.000 HD
ATOM     37  H   UNL     1       8.077   5.288  12.884  0.00  0.00    +0.000 HD
ENDBRANCH  29  32
BRANCH  31  38
ATOM     38  N   UNL     1       7.817   4.841  18.927  0.00  0.00    +0.000 N 
ATOM     39  H   UNL     1       7.902   5.806  19.229  0.00  0.00    +0.000 HD
ATOM     40  H   UNL     1       7.732   4.243  19.736  0.00  0.00    +0.000 HD
ENDBRANCH  31  38
ENDBRANCH  24  26
ENDBRANCH  23  24
ENDBRANCH  22  23
ENDBRANCH  21  22
ENDBRANCH   1  21
TORSDOF 13
ENDMDL
