MODEL 1
REMARK VINA RESULT:      -6.8      0.000      0.000
REMARK  Name = 
REMARK  9 active torsions:
REMARK  status: ('A' for Active; 'I' for Inactive)
REMARK    1  A    between atoms: C_1  and  C_2
REMARK    2  A    between atoms: C_2  and  C_3
REMARK    3  A    between atoms: C_3  and  C_4
REMARK    4  A    between atoms: C_4  and  C_5
REMARK    5  A    between atoms: C_5  and  C_6
REMARK    6  A    between atoms: C_6  and  C_7
REMARK    7  A    between atoms: C_7  and  C_8
REMARK    8  A    between atoms: C_8  and  C_9
REMARK    9  A    between atoms: C_9  and  N_10
REMARK                            x       y       z     vdW  Elec       q    Type
REMARK                         _______ _______ _______ _____ _____    ______ ____
ROOT
ATOM      1  N   UNL     1       4.301   3.325  17.584  0.00  0.00    +0.000 N 
ATOM      2  C   UNL     1       5.011   3.931  16.580  0.00  0.00    +0.000 A 
ATOM      3  C   UNL     1       5.977   4.666  17.222  0.00  0.00    +0.000 A 
ATOM      4  C   UNL     1       7.029   5.511  16.755  0.00  0.00    +0.000 A 
ATOM      5  O   UNL     1       7.275   5.745  15.580  0.00  0.00    +0.000 OA
ATOM      6  N   UNL     1       7.751   6.039  17.798  0.00  0.00    +0.000 N 
ATOM      7  C   UNL     1       7.470   5.778  19.124  0.00  0.00    +0.000 A 
ATOM      8  N   UNL     1       6.527   5.023  19.585  0.00  0.00    +0.000 NA
ATOM      9  C   UNL     1       5.755   4.445  18.580  0.00  0.00    +0.000 A 
ATOM     10  N   UNL     1       4.738   3.631  18.825  0.00  0.00    +0.000 NA
ATOM     11  H   UNL     1       8.515   6.646  17.543  0.00  0.00    +0.000 HD
ENDROOT
BRANCH   1  12
ATOM     12  C   UNL     1       3.133   2.488  17.410  0.00  0.00    +0.000 C 
BRANCH  12  13
ATOM     13  C   UNL     1       2.539   2.017  18.737  0.00  0.00    +0.000 C 
BRANCH  13  14
ATOM     14  C   UNL     1       1.032   2.277  18.810  0.00  0.00    +0.000 C 
BRANCH  14  15
ATOM     15  C   UNL     1       0.672   3.209  19.967  0.00  0.00    +0.000 C 
BRANCH  15  16
ATOM     16  C   UNL     1       1.671   3.118  21.112  0.00  0.00    +0.000 C 
BRANCH  16  17
ATOM     17  C   UNL     1       2.335   4.476  21.335  0.00  0.00    +0.000 C 
BRANCH  17  18
ATOM     18  C   UNL     1       1.662   5.554  20.494  0.00  0.00    +0.000 C 
BRANCH  18  20
ATOM     19  C   UNL     1       2.385   6.281  18.203  0.00  0.00    +0.000 C 
ATOM     20  C   UNL     1       2.689   6.347  19.690  0.00  0.00    +0.000 C 
ENDBRANCH  18  20
ENDBRANCH  17  18
ENDBRANCH  16  17
ENDBRANCH  15  16
ENDBRANCH  14  15
ENDBRANCH  13  14
ENDBRANCH  12  13
ENDBRANCH   1  12
TORSDOF 8
ENDMDL
MODEL 2
REMARK VINA RESULT:      -6.5      1.118      1.144
REMARK  Name = 
REMARK  9 active torsions:
REMARK  status: ('A' for Active; 'I' for Inactive)
REMARK    1  A    between atoms: C_1  and  C_2
REMARK    2  A    between atoms: C_2  and  C_3
REMARK    3  A    between atoms: C_3  and  C_4
REMARK    4  A    between atoms: C_4  and  C_5
REMARK    5  A    between atoms: C_5  and  C_6
REMARK    6  A    between atoms: C_6  and  C_7
REMARK    7  A    between atoms: C_7  and  C_8
REMARK    8  A    between atoms: C_8  and  C_9
REMARK    9  A    between atoms: C_9  and  N_10
REMARK                            x       y       z     vdW  Elec       q    Type
REMARK                         _______ _______ _______ _____ _____    ______ ____
ROOT
ATOM      1  N   UNL     1       4.616   3.499  18.081  0.00  0.00    +0.000 N 
ATOM      2  C   UNL     1       4.421   4.328  17.007  0.00  0.00    +0.000 A 
ATOM      3  C   UNL     1       5.392   5.292  17.121  0.00  0.00    +0.000 A 
ATOM      4  C   UNL     1       5.733   6.430  16.330  0.00  0.00    +0.000 A 
ATOM      5  O   UNL     1       5.159   6.773  15.306  0.00  0.00    +0.000 OA
ATOM      6  N   UNL     1       6.805   7.108  16.859  0.00  0.00    +0.000 N 
ATOM      7  C   UNL     1       7.450   6.723  18.017  0.00  0.00    +0.000 A 
ATOM      8  N   UNL     1       7.170   5.703  18.760  0.00  0.00    +0.000 NA
ATOM      9  C   UNL     1       6.092   4.961  18.280  0.00  0.00    +0.000 A 
ATOM     10  N   UNL     1       5.638   3.872  18.882  0.00  0.00    +0.000 NA
ATOM     11  H   UNL     1       7.105   7.925  16.349  0.00  0.00    +0.000 HD
ENDROOT
BRANCH   1  12
ATOM     12  C   UNL     1       3.796   2.359  18.432  0.00  0.00    +0.000 C 
BRANCH  12  13
ATOM     13  C   UNL     1       2.458   2.341  17.694  0.00  0.00    +0.000 C 
BRANCH  13  14
ATOM     14  C   UNL     1       1.274   2.426  18.661  0.00  0.00    +0.000 C 
BRANCH  14  15
ATOM     15  C   UNL     1       1.721   2.296  20.117  0.00  0.00    +0.000 C 
BRANCH  15  16
ATOM     16  C   UNL     1       1.240   3.459  20.974  0.00  0.00    +0.000 C 
BRANCH  16  17
ATOM     17  C   UNL     1       2.255   4.600  20.922  0.00  0.00    +0.000 C 
BRANCH  17  18
ATOM     18  C   UNL     1       1.735   5.750  20.067  0.00  0.00    +0.000 C 
BRANCH  18  20
ATOM     19  C   UNL     1       2.421   7.360  18.268  0.00  0.00    +0.000 C 
ATOM     20  C   UNL     1       2.886   6.556  19.470  0.00  0.00    +0.000 C 
ENDBRANCH  18  20
ENDBRANCH  17  18
ENDBRANCH  16  17
ENDBRANCH  15  16
ENDBRANCH  14  15
ENDBRANCH  13  14
ENDBRANCH  12  13
ENDBRANCH   1  12
TORSDOF 8
ENDMDL
MODEL 3
REMARK VINA RESULT:      -6.4      1.603      2.039
REMARK  Name = 
REMARK  9 active torsions:
REMARK  status: ('A' for Active; 'I' for Inactive)
REMARK    1  A    between atoms: C_1  and  C_2
REMARK    2  A    between atoms: C_2  and  C_3
REMARK    3  A    between atoms: C_3  and  C_4
REMARK    4  A    between atoms: C_4  and  C_5
REMARK    5  A    between atoms: C_5  and  C_6
REMARK    6  A    between atoms: C_6  and  C_7
REMARK    7  A    between atoms: C_7  and  C_8
REMARK    8  A    between atoms: C_8  and  C_9
REMARK    9  A    between atoms: C_9  and  N_10
REMARK                            x       y       z     vdW  Elec       q    Type
REMARK                         _______ _______ _______ _____ _____    ______ ____
ROOT
ATOM      1  N   UNL     1       4.813   4.177  17.573  0.00  0.00    +0.000 N 
ATOM      2  C   UNL     1       5.649   4.134  18.658  0.00  0.00    +0.000 A 
ATOM      3  C   UNL     1       6.465   5.231  18.521  0.00  0.00    +0.000 A 
ATOM      4  C   UNL     1       7.533   5.754  19.310  0.00  0.00    +0.000 A 
ATOM      5  O   UNL     1       7.943   5.266  20.353  0.00  0.00    +0.000 OA
ATOM      6  N   UNL     1       8.057   6.897  18.754  0.00  0.00    +0.000 N 
ATOM      7  C   UNL     1       7.596   7.446  17.574  0.00  0.00    +0.000 A 
ATOM      8  N   UNL     1       6.635   7.000  16.832  0.00  0.00    +0.000 NA
ATOM      9  C   UNL     1       6.050   5.842  17.339  0.00  0.00    +0.000 A 
ATOM     10  N   UNL     1       5.044   5.218  16.743  0.00  0.00    +0.000 NA
ATOM     11  H   UNL     1       8.816   7.326  19.260  0.00  0.00    +0.000 HD
ENDROOT
BRANCH   1  12
ATOM     12  C   UNL     1       3.807   3.192  17.239  0.00  0.00    +0.000 C 
BRANCH  12  13
ATOM     13  C   UNL     1       2.389   3.760  17.266  0.00  0.00    +0.000 C 
BRANCH  13  14
ATOM     14  C   UNL     1       1.473   2.960  18.198  0.00  0.00    +0.000 C 
BRANCH  14  15
ATOM     15  C   UNL     1       2.147   2.665  19.538  0.00  0.00    +0.000 C 
BRANCH  15  16
ATOM     16  C   UNL     1       1.443   3.352  20.700  0.00  0.00    +0.000 C 
BRANCH  16  17
ATOM     17  C   UNL     1       2.241   4.578  21.142  0.00  0.00    +0.000 C 
BRANCH  17  18
ATOM     18  C   UNL     1       1.795   5.820  20.379  0.00  0.00    +0.000 C 
BRANCH  18  20
ATOM     19  C   UNL     1       2.485   7.370  18.530  0.00  0.00    +0.000 C 
ATOM     20  C   UNL     1       2.969   6.475  19.658  0.00  0.00    +0.000 C 
ENDBRANCH  18  20
ENDBRANCH  17  18
ENDBRANCH  16  17
ENDBRANCH  15  16
ENDBRANCH  14  15
ENDBRANCH  13  14
ENDBRANCH  12  13
ENDBRANCH   1  12
TORSDOF 8
ENDMDL
MODEL 4
REMARK VINA RESULT:      -6.4      0.879      1.202
REMARK  Name = 
REMARK  9 active torsions:
REMARK  status: ('A' for Active; 'I' for Inactive)
REMARK    1  A    between atoms: C_1  and  C_2
REMARK    2  A    between atoms: C_2  and  C_3
REMARK    3  A    between atoms: C_3  and  C_4
REMARK    4  A    between atoms: C_4  and  C_5
REMARK    5  A    between atoms: C_5  and  C_6
REMARK    6  A    between atoms: C_6  and  C_7
REMARK    7  A    between atoms: C_7  and  C_8
REMARK    8  A    between atoms: C_8  and  C_9
REMARK    9  A    between atoms: C_9  and  N_10
REMARK                            x       y       z     vdW  Elec       q    Type
REMARK                         _______ _______ _______ _____ _____    ______ ____
ROOT
ATOM      1  N   UNL     1       4.176   2.959  18.514  0.00  0.00    +0.000 N 
ATOM      2  C   UNL     1       4.289   3.509  17.263  0.00  0.00    +0.000 A 
ATOM      3  C   UNL     1       5.302   4.430  17.370  0.00  0.00    +0.000 A 
ATOM      4  C   UNL     1       5.907   5.325  16.437  0.00  0.00    +0.000 A 
ATOM      5  O   UNL     1       5.594   5.433  15.260  0.00  0.00    +0.000 OA
ATOM      6  N   UNL     1       6.906   6.065  17.024  0.00  0.00    +0.000 N 
ATOM      7  C   UNL     1       7.256   5.946  18.354  0.00  0.00    +0.000 A 
ATOM      8  N   UNL     1       6.732   5.151  19.228  0.00  0.00    +0.000 NA
ATOM      9  C   UNL     1       5.712   4.361  18.700  0.00  0.00    +0.000 A 
ATOM     10  N   UNL     1       5.040   3.472  19.417  0.00  0.00    +0.000 NA
ATOM     11  H   UNL     1       7.382   6.720  16.422  0.00  0.00    +0.000 HD
ENDROOT
BRANCH   1  12
ATOM     12  C   UNL     1       3.197   1.975  18.922  0.00  0.00    +0.000 C 
BRANCH  12  13
ATOM     13  C   UNL     1       1.794   2.285  18.402  0.00  0.00    +0.000 C 
BRANCH  13  14
ATOM     14  C   UNL     1       0.918   2.931  19.479  0.00  0.00    +0.000 C 
BRANCH  14  15
ATOM     15  C   UNL     1       1.611   2.942  20.843  0.00  0.00    +0.000 C 
BRANCH  15  16
ATOM     16  C   UNL     1       2.127   4.324  21.215  0.00  0.00    +0.000 C 
BRANCH  16  17
ATOM     17  C   UNL     1       1.569   5.369  20.250  0.00  0.00    +0.000 C 
BRANCH  17  18
ATOM     18  C   UNL     1       2.685   6.243  19.692  0.00  0.00    +0.000 C 
BRANCH  18  20
ATOM     19  C   UNL     1       3.447   7.629  17.742  0.00  0.00    +0.000 C 
ATOM     20  C   UNL     1       2.297   6.835  18.339  0.00  0.00    +0.000 C 
ENDBRANCH  18  20
ENDBRANCH  17  18
ENDBRANCH  16  17
ENDBRANCH  15  16
ENDBRANCH  14  15
ENDBRANCH  13  14
ENDBRANCH  12  13
ENDBRANCH   1  12
TORSDOF 8
ENDMDL
MODEL 5
REMARK VINA RESULT:      -6.3      1.105      1.346
REMARK  Name = 
REMARK  9 active torsions:
REMARK  status: ('A' for Active; 'I' for Inactive)
REMARK    1  A    between atoms: C_1  and  C_2
REMARK    2  A    between atoms: C_2  and  C_3
REMARK    3  A    between atoms: C_3  and  C_4
REMARK    4  A    between atoms: C_4  and  C_5
REMARK    5  A    between atoms: C_5  and  C_6
REMARK    6  A    between atoms: C_6  and  C_7
REMARK    7  A    between atoms: C_7  and  C_8
REMARK    8  A    between atoms: C_8  and  C_9
REMARK    9  A    between atoms: C_9  and  N_10
REMARK                            x       y       z     vdW  Elec       q    Type
REMARK                         _______ _______ _______ _____ _____    ______ ____
ROOT
ATOM      1  N   UNL     1       4.697   3.516  18.413  0.00  0.00    +0.000 N 
ATOM      2  C   UNL     1       4.813   3.970  17.125  0.00  0.00    +0.000 A 
ATOM      3  C   UNL     1       5.796   4.928  17.173  0.00  0.00    +0.000 A 
ATOM      4  C   UNL     1       6.388   5.767  16.182  0.00  0.00    +0.000 A 
ATOM      5  O   UNL     1       6.093   5.772  14.995  0.00  0.00    +0.000 OA
ATOM      6  N   UNL     1       7.354   6.582  16.723  0.00  0.00    +0.000 N 
ATOM      7  C   UNL     1       7.685   6.579  18.063  0.00  0.00    +0.000 A 
ATOM      8  N   UNL     1       7.170   5.838  18.990  0.00  0.00    +0.000 NA
ATOM      9  C   UNL     1       6.185   4.977  18.511  0.00  0.00    +0.000 A 
ATOM     10  N   UNL     1       5.529   4.126  19.286  0.00  0.00    +0.000 NA
ATOM     11  H   UNL     1       7.819   7.203  16.079  0.00  0.00    +0.000 HD
ENDROOT
BRANCH   1  12
ATOM     12  C   UNL     1       3.741   2.536  18.884  0.00  0.00    +0.000 C 
BRANCH  12  13
ATOM     13  C   UNL     1       3.911   2.206  20.366  0.00  0.00    +0.000 C 
BRANCH  13  14
ATOM     14  C   UNL     1       2.728   2.707  21.199  0.00  0.00    +0.000 C 
BRANCH  14  15
ATOM     15  C   UNL     1       1.452   2.818  20.363  0.00  0.00    +0.000 C 
BRANCH  15  16
ATOM     16  C   UNL     1       0.937   4.248  20.286  0.00  0.00    +0.000 C 
BRANCH  16  17
ATOM     17  C   UNL     1       1.965   5.207  20.884  0.00  0.00    +0.000 C 
BRANCH  17  18
ATOM     18  C   UNL     1       1.906   6.565  20.194  0.00  0.00    +0.000 C 
BRANCH  18  20
ATOM     19  C   UNL     1       2.424   7.750  18.043  0.00  0.00    +0.000 C 
ATOM     20  C   UNL     1       2.795   6.592  18.954  0.00  0.00    +0.000 C 
ENDBRANCH  18  20
ENDBRANCH  17  18
ENDBRANCH  16  17
ENDBRANCH  15  16
ENDBRANCH  14  15
ENDBRANCH  13  14
ENDBRANCH  12  13
ENDBRANCH   1  12
TORSDOF 8
ENDMDL
MODEL 6
REMARK VINA RESULT:      -6.2      1.714      3.328
REMARK  Name = 
REMARK  9 active torsions:
REMARK  status: ('A' for Active; 'I' for Inactive)
REMARK    1  A    between atoms: C_1  and  C_2
REMARK    2  A    between atoms: C_2  and  C_3
REMARK    3  A    between atoms: C_3  and  C_4
REMARK    4  A    between atoms: C_4  and  C_5
REMARK    5  A    between atoms: C_5  and  C_6
REMARK    6  A    between atoms: C_6  and  C_7
REMARK    7  A    between atoms: C_7  and  C_8
REMARK    8  A    between atoms: C_8  and  C_9
REMARK    9  A    between atoms: C_9  and  N_10
REMARK                            x       y       z     vdW  Elec       q    Type
REMARK                         _______ _______ _______ _____ _____    ______ ____
ROOT
ATOM      1  N   UNL     1       4.299   6.012  18.358  0.00  0.00    +0.000 N 
ATOM      2  C   UNL     1       5.481   5.447  18.763  0.00  0.00    +0.000 A 
ATOM      3  C   UNL     1       6.180   5.216  17.604  0.00  0.00    +0.000 A 
ATOM      4  C   UNL     1       7.467   4.659  17.337  0.00  0.00    +0.000 A 
ATOM      5  O   UNL     1       8.248   4.253  18.186  0.00  0.00    +0.000 OA
ATOM      6  N   UNL     1       7.735   4.634  15.989  0.00  0.00    +0.000 N 
ATOM      7  C   UNL     1       6.851   5.088  15.031  0.00  0.00    +0.000 A 
ATOM      8  N   UNL     1       5.679   5.596  15.233  0.00  0.00    +0.000 NA
ATOM      9  C   UNL     1       5.341   5.659  16.583  0.00  0.00    +0.000 A 
ATOM     10  N   UNL     1       4.188   6.149  17.018  0.00  0.00    +0.000 NA
ATOM     11  H   UNL     1       8.632   4.254  15.725  0.00  0.00    +0.000 HD
ENDROOT
BRANCH   1  12
ATOM     12  C   UNL     1       3.196   6.380  19.219  0.00  0.00    +0.000 C 
BRANCH  12  13
ATOM     13  C   UNL     1       2.977   5.387  20.359  0.00  0.00    +0.000 C 
BRANCH  13  14
ATOM     14  C   UNL     1       1.489   5.154  20.632  0.00  0.00    +0.000 C 
BRANCH  14  15
ATOM     15  C   UNL     1       1.149   3.665  20.698  0.00  0.00    +0.000 C 
BRANCH  15  16
ATOM     16  C   UNL     1       0.407   3.188  19.458  0.00  0.00    +0.000 C 
BRANCH  16  17
ATOM     17  C   UNL     1       1.240   2.142  18.719  0.00  0.00    +0.000 C 
BRANCH  17  18
ATOM     18  C   UNL     1       2.127   2.798  17.667  0.00  0.00    +0.000 C 
BRANCH  18  20
ATOM     19  C   UNL     1       3.823   1.194  18.591  0.00  0.00    +0.000 C 
ATOM     20  C   UNL     1       3.605   2.563  17.968  0.00  0.00    +0.000 C 
ENDBRANCH  18  20
ENDBRANCH  17  18
ENDBRANCH  16  17
ENDBRANCH  15  16
ENDBRANCH  14  15
ENDBRANCH  13  14
ENDBRANCH  12  13
ENDBRANCH   1  12
TORSDOF 8
ENDMDL
MODEL 7
REMARK VINA RESULT:      -6.2      2.791      4.313
REMARK  Name = 
REMARK  9 active torsions:
REMARK  status: ('A' for Active; 'I' for Inactive)
REMARK    1  A    between atoms: C_1  and  C_2
REMARK    2  A    between atoms: C_2  and  C_3
REMARK    3  A    between atoms: C_3  and  C_4
REMARK    4  A    between atoms: C_4  and  C_5
REMARK    5  A    between atoms: C_5  and  C_6
REMARK    6  A    between atoms: C_6  and  C_7
REMARK    7  A    between atoms: C_7  and  C_8
REMARK    8  A    between atoms: C_8  and  C_9
REMARK    9  A    between atoms: C_9  and  N_10
REMARK                            x       y       z     vdW  Elec       q    Type
REMARK                         _______ _______ _______ _____ _____    ______ ____
ROOT
ATOM      1  N   UNL     1       6.549   4.518  16.370  0.00  0.00    +0.000 N 
ATOM      2  C   UNL     1       5.884   3.752  15.447  0.00  0.00    +0.000 A 
ATOM      3  C   UNL     1       6.441   4.090  14.238  0.00  0.00    +0.000 A 
ATOM      4  C   UNL     1       6.202   3.653  12.900  0.00  0.00    +0.000 A 
ATOM      5  O   UNL     1       5.376   2.813  12.570  0.00  0.00    +0.000 OA
ATOM      6  N   UNL     1       7.026   4.295  12.006  0.00  0.00    +0.000 N 
ATOM      7  C   UNL     1       7.955   5.245  12.379  0.00  0.00    +0.000 A 
ATOM      8  N   UNL     1       8.198   5.668  13.576  0.00  0.00    +0.000 NA
ATOM      9  C   UNL     1       7.400   5.054  14.540  0.00  0.00    +0.000 A 
ATOM     10  N   UNL     1       7.485   5.332  15.834  0.00  0.00    +0.000 NA
ATOM     11  H   UNL     1       6.915   4.034  11.038  0.00  0.00    +0.000 HD
ENDROOT
BRANCH   1  12
ATOM     12  C   UNL     1       6.274   4.563  17.790  0.00  0.00    +0.000 C 
BRANCH  12  13
ATOM     13  C   UNL     1       4.962   5.274  18.118  0.00  0.00    +0.000 C 
BRANCH  13  14
ATOM     14  C   UNL     1       4.123   4.483  19.124  0.00  0.00    +0.000 C 
BRANCH  14  15
ATOM     15  C   UNL     1       4.043   3.001  18.756  0.00  0.00    +0.000 C 
BRANCH  15  16
ATOM     16  C   UNL     1       2.997   2.729  17.685  0.00  0.00    +0.000 C 
BRANCH  16  17
ATOM     17  C   UNL     1       1.699   3.459  18.025  0.00  0.00    +0.000 C 
BRANCH  17  18
ATOM     18  C   UNL     1       0.886   2.674  19.048  0.00  0.00    +0.000 C 
BRANCH  18  20
ATOM     19  C   UNL     1       1.574   2.682  21.462  0.00  0.00    +0.000 C 
ATOM     20  C   UNL     1       0.807   3.420  20.378  0.00  0.00    +0.000 C 
ENDBRANCH  18  20
ENDBRANCH  17  18
ENDBRANCH  16  17
ENDBRANCH  15  16
ENDBRANCH  14  15
ENDBRANCH  13  14
ENDBRANCH  12  13
ENDBRANCH   1  12
TORSDOF 8
ENDMDL
MODEL 8
REMARK VINA RESULT:      -6.1      3.664      6.569
REMARK  Name = 
REMARK  9 active torsions:
REMARK  status: ('A' for Active; 'I' for Inactive)
REMARK    1  A    between atoms: C_1  and  C_2
REMARK    2  A    between atoms: C_2  and  C_3
REMARK    3  A    between atoms: C_3  and  C_4
REMARK    4  A    between atoms: C_4  and  C_5
REMARK    5  A    between atoms: C_5  and  C_6
REMARK    6  A    between atoms: C_6  and  C_7
REMARK    7  A    between atoms: C_7  and  C_8
REMARK    8  A    between atoms: C_8  and  C_9
REMARK    9  A    between atoms: C_9  and  N_10
REMARK                            x       y       z     vdW  Elec       q    Type
REMARK                         _______ _______ _______ _____ _____    ______ ____
ROOT
ATOM      1  N   UNL     1       4.370   5.446  17.799  0.00  0.00    +0.000 N 
ATOM      2  C   UNL     1       4.288   4.081  17.704  0.00  0.00    +0.000 A 
ATOM      3  C   UNL     1       3.552   3.693  18.798  0.00  0.00    +0.000 A 
ATOM      4  C   UNL     1       3.111   2.422  19.273  0.00  0.00    +0.000 A 
ATOM      5  O   UNL     1       3.334   1.350  18.728  0.00  0.00    +0.000 OA
ATOM      6  N   UNL     1       2.388   2.543  20.436  0.00  0.00    +0.000 N 
ATOM      7  C   UNL     1       2.140   3.752  21.053  0.00  0.00    +0.000 A 
ATOM      8  N   UNL     1       2.523   4.921  20.655  0.00  0.00    +0.000 NA
ATOM      9  C   UNL     1       3.260   4.877  19.473  0.00  0.00    +0.000 A 
ATOM     10  N   UNL     1       3.748   5.959  18.883  0.00  0.00    +0.000 NA
ATOM     11  H   UNL     1       2.040   1.682  20.830  0.00  0.00    +0.000 HD
ENDROOT
BRANCH   1  12
ATOM     12  C   UNL     1       5.103   6.315  16.903  0.00  0.00    +0.000 C 
BRANCH  12  13
ATOM     13  C   UNL     1       6.205   5.584  16.139  0.00  0.00    +0.000 C 
BRANCH  13  14
ATOM     14  C   UNL     1       5.800   5.300  14.689  0.00  0.00    +0.000 C 
BRANCH  14  15
ATOM     15  C   UNL     1       6.098   3.855  14.289  0.00  0.00    +0.000 C 
BRANCH  15  16
ATOM     16  C   UNL     1       6.523   3.737  12.832  0.00  0.00    +0.000 C 
BRANCH  16  17
ATOM     17  C   UNL     1       5.501   2.909  12.055  0.00  0.00    +0.000 C 
BRANCH  17  18
ATOM     18  C   UNL     1       4.268   3.740  11.724  0.00  0.00    +0.000 C 
BRANCH  18  20
ATOM     19  C   UNL     1       2.985   4.175   9.610  0.00  0.00    +0.000 C 
ATOM     20  C   UNL     1       3.471   3.114  10.582  0.00  0.00    +0.000 C 
ENDBRANCH  18  20
ENDBRANCH  17  18
ENDBRANCH  16  17
ENDBRANCH  15  16
ENDBRANCH  14  15
ENDBRANCH  13  14
ENDBRANCH  12  13
ENDBRANCH   1  12
TORSDOF 8
ENDMDL
MODEL 9
REMARK VINA RESULT:      -6.1      1.173      2.068
REMARK  Name = 
REMARK  9 active torsions:
REMARK  status: ('A' for Active; 'I' for Inactive)
REMARK    1  A    between atoms: C_1  and  C_2
REMARK    2  A    between atoms: C_2  and  C_3
REMARK    3  A    between atoms: C_3  and  C_4
REMARK    4  A    between atoms: C_4  and  C_5
REMARK    5  A    between atoms: C_5  and  C_6
REMARK    6  A    between atoms: C_6  and  C_7
REMARK    7  A    between atoms: C_7  and  C_8
REMARK    8  A    between atoms: C_8  and  C_9
REMARK    9  A    between atoms: C_9  and  N_10
REMARK                            x       y       z     vdW  Elec       q    Type
REMARK                         _______ _______ _______ _____ _____    ______ ____
ROOT
ATOM      1  N   UNL     1       5.227   3.614  18.631  0.00  0.00    +0.000 N 
ATOM      2  C   UNL     1       5.324   3.955  17.307  0.00  0.00    +0.000 A 
ATOM      3  C   UNL     1       6.192   5.019  17.277  0.00  0.00    +0.000 A 
ATOM      4  C   UNL     1       6.712   5.823  16.218  0.00  0.00    +0.000 A 
ATOM      5  O   UNL     1       6.447   5.683  15.032  0.00  0.00    +0.000 OA
ATOM      6  N   UNL     1       7.566   6.790  16.691  0.00  0.00    +0.000 N 
ATOM      7  C   UNL     1       7.862   6.950  18.030  0.00  0.00    +0.000 A 
ATOM      8  N   UNL     1       7.411   6.247  19.016  0.00  0.00    +0.000 NA
ATOM      9  C   UNL     1       6.540   5.238  18.609  0.00  0.00    +0.000 A 
ATOM     10  N   UNL     1       5.964   4.394  19.453  0.00  0.00    +0.000 NA
ATOM     11  H   UNL     1       7.975   7.396  15.997  0.00  0.00    +0.000 HD
ENDROOT
BRANCH   1  12
ATOM     12  C   UNL     1       4.376   2.581  19.180  0.00  0.00    +0.000 C 
BRANCH  12  13
ATOM     13  C   UNL     1       3.643   1.783  18.103  0.00  0.00    +0.000 C 
BRANCH  13  14
ATOM     14  C   UNL     1       2.185   2.228  17.959  0.00  0.00    +0.000 C 
BRANCH  14  15
ATOM     15  C   UNL     1       2.070   3.564  17.223  0.00  0.00    +0.000 C 
BRANCH  15  16
ATOM     16  C   UNL     1       1.326   4.610  18.041  0.00  0.00    +0.000 C 
BRANCH  16  17
ATOM     17  C   UNL     1       2.322   5.476  18.811  0.00  0.00    +0.000 C 
BRANCH  17  18
ATOM     18  C   UNL     1       2.044   5.422  20.308  0.00  0.00    +0.000 C 
BRANCH  18  20
ATOM     19  C   UNL     1       1.870   3.297  21.632  0.00  0.00    +0.000 C 
ATOM     20  C   UNL     1       1.162   4.228  20.663  0.00  0.00    +0.000 C 
ENDBRANCH  18  20
ENDBRANCH  17  18
ENDBRANCH  16  17
ENDBRANCH  15  16
ENDBRANCH  14  15
ENDBRANCH  13  14
ENDBRANCH  12  13
ENDBRANCH   1  12
TORSDOF 8
ENDMDL
