MODEL 1
REMARK VINA RESULT:      -7.9      0.000      0.000
REMARK  Name = 
REMARK  8 active torsions:
REMARK  status: ('A' for Active; 'I' for Inactive)
REMARK    1  A    between atoms: C_1  and  O_2
REMARK    2  A    between atoms: O_2  and  C_3
REMARK    3  A    between atoms: C_5  and  C_6
REMARK    4  A    between atoms: C_6  and  N_8
REMARK    5  A    between atoms: C_16  and  O_17
REMARK    6  A    between atoms: O_17  and  S_18
REMARK    7  A    between atoms: S_18  and  C_21
REMARK    8  A    between atoms: C_24  and  C_25
REMARK                            x       y       z     vdW  Elec       q    Type
REMARK                         _______ _______ _______ _____ _____    ______ ____
ROOT
ATOM      1  C   UNL     1       2.081   5.816  20.251  0.00  0.00    +0.000 A 
ATOM      2  C   UNL     1       1.529   7.008  20.758  0.00  0.00    +0.000 A 
ATOM      3  C   UNL     1       1.508   8.190  20.007  0.00  0.00    +0.000 A 
ATOM      4  C   UNL     1       2.144   8.187  18.766  0.00  0.00    +0.000 A 
ATOM      5  C   UNL     1       2.737   7.019  18.275  0.00  0.00    +0.000 A 
ATOM      6  C   UNL     1       2.717   5.820  19.004  0.00  0.00    +0.000 A 
ENDROOT
BRANCH   1   8
ATOM      7  C   UNL     1       1.108   3.691  20.729  0.00  0.00    +0.000 C 
ATOM      8  O   UNL     1       1.948   4.767  21.123  0.00  0.00    +0.000 OA
ENDBRANCH   1   8
BRANCH   3   9
ATOM      9  C   UNL     1       0.860   9.434  20.557  0.00  0.00    +0.000 C 
ATOM     10  S   UNL     1       0.649   9.650  22.225  0.00  0.00    +0.000 S 
BRANCH   9  11
ATOM     11  N   UNL     1       0.449  10.415  19.644  0.00  0.00    +0.000 N 
ATOM     12  C   UNL     1       1.268  11.572  19.245  0.00  0.00    +0.000 C 
ATOM     13  C   UNL     1       0.408  12.835  19.104  0.00  0.00    +0.000 C 
ATOM     14  O   UNL     1      -0.699  12.617  18.216  0.00  0.00    +0.000 OA
ATOM     15  C   UNL     1      -1.540  11.562  18.709  0.00  0.00    +0.000 C 
ATOM     16  C   UNL     1      -0.762  10.251  18.821  0.00  0.00    +0.000 C 
ENDBRANCH   9  11
ENDBRANCH   3   9
BRANCH   6  17
ATOM     17  O   UNL     1       3.323   4.667  18.543  0.00  0.00    +0.000 OA
BRANCH  17  18
ATOM     18  S   UNL     1       4.906   4.374  18.835  0.00  0.00    +0.000 S 
ATOM     19  O   UNL     1       5.453   5.503  19.560  0.00  0.00    +0.000 OA
ATOM     20  O   UNL     1       5.038   3.022  19.355  0.00  0.00    +0.000 OA
BRANCH  18  21
ATOM     21  C   UNL     1       5.705   4.341  17.246  0.00  0.00    +0.000 A 
ATOM     22  C   UNL     1       4.966   4.002  16.106  0.00  0.00    +0.000 A 
ATOM     23  C   UNL     1       5.531   4.183  14.841  0.00  0.00    +0.000 A 
ATOM     24  C   UNL     1       6.827   4.695  14.712  0.00  0.00    +0.000 A 
ATOM     25  C   UNL     1       7.420   4.981  13.363  0.00  0.00    +0.000 C 
ATOM     26  C   UNL     1       7.566   5.002  15.869  0.00  0.00    +0.000 A 
ATOM     27  C   UNL     1       7.007   4.826  17.135  0.00  0.00    +0.000 A 
ENDBRANCH  18  21
ENDBRANCH  17  18
ENDBRANCH   6  17
TORSDOF 6
ENDMDL
MODEL 2
REMARK VINA RESULT:      -7.5      2.313      3.198
REMARK  Name = 
REMARK  8 active torsions:
REMARK  status: ('A' for Active; 'I' for Inactive)
REMARK    1  A    between atoms: C_1  and  O_2
REMARK    2  A    between atoms: O_2  and  C_3
REMARK    3  A    between atoms: C_5  and  C_6
REMARK    4  A    between atoms: C_6  and  N_8
REMARK    5  A    between atoms: C_16  and  O_17
REMARK    6  A    between atoms: O_17  and  S_18
REMARK    7  A    between atoms: S_18  and  C_21
REMARK    8  A    between atoms: C_24  and  C_25
REMARK                            x       y       z     vdW  Elec       q    Type
REMARK                         _______ _______ _______ _____ _____    ______ ____
ROOT
ATOM      1  C   UNL     1       1.289   8.529  20.245  0.00  0.00    +0.000 A 
ATOM      2  C   UNL     1       0.425   9.604  19.964  0.00  0.00    +0.000 A 
ATOM      3  C   UNL     1       0.269  10.106  18.665  0.00  0.00    +0.000 A 
ATOM      4  C   UNL     1       1.075   9.577  17.659  0.00  0.00    +0.000 A 
ATOM      5  C   UNL     1       1.971   8.539  17.939  0.00  0.00    +0.000 A 
ATOM      6  C   UNL     1       2.094   8.000  19.229  0.00  0.00    +0.000 A 
ENDROOT
BRANCH   1   8
ATOM      7  C   UNL     1       0.972   9.170  22.521  0.00  0.00    +0.000 C 
ATOM      8  O   UNL     1       1.250   8.158  21.564  0.00  0.00    +0.000 OA
ENDBRANCH   1   8
BRANCH   3   9
ATOM      9  C   UNL     1      -0.706  11.222  18.390  0.00  0.00    +0.000 C 
ATOM     10  S   UNL     1      -0.331  12.830  18.770  0.00  0.00    +0.000 S 
BRANCH   9  11
ATOM     11  N   UNL     1      -1.931  10.886  17.796  0.00  0.00    +0.000 N 
ATOM     12  C   UNL     1      -2.076   9.939  16.677  0.00  0.00    +0.000 C 
ATOM     13  C   UNL     1      -3.129  10.429  15.673  0.00  0.00    +0.000 C 
ATOM     14  O   UNL     1      -4.380  10.706  16.321  0.00  0.00    +0.000 OA
ATOM     15  C   UNL     1      -4.215  11.724  17.321  0.00  0.00    +0.000 C 
ATOM     16  C   UNL     1      -3.218  11.281  18.392  0.00  0.00    +0.000 C 
ENDBRANCH   9  11
ENDBRANCH   3   9
BRANCH   6  17
ATOM     17  O   UNL     1       2.995   6.995  19.525  0.00  0.00    +0.000 OA
BRANCH  17  18
ATOM     18  S   UNL     1       2.789   5.481  18.939  0.00  0.00    +0.000 S 
ATOM     19  O   UNL     1       3.050   4.539  20.008  0.00  0.00    +0.000 OA
ATOM     20  O   UNL     1       1.538   5.438  18.199  0.00  0.00    +0.000 OA
BRANCH  18  21
ATOM     21  C   UNL     1       4.061   5.246  17.718  0.00  0.00    +0.000 A 
ATOM     22  C   UNL     1       4.419   3.948  17.331  0.00  0.00    +0.000 A 
ATOM     23  C   UNL     1       5.256   3.765  16.229  0.00  0.00    +0.000 A 
ATOM     24  C   UNL     1       5.739   4.869  15.516  0.00  0.00    +0.000 A 
ATOM     25  C   UNL     1       6.566   4.693  14.276  0.00  0.00    +0.000 C 
ATOM     26  C   UNL     1       5.393   6.166  15.936  0.00  0.00    +0.000 A 
ATOM     27  C   UNL     1       4.555   6.356  17.035  0.00  0.00    +0.000 A 
ENDBRANCH  18  21
ENDBRANCH  17  18
ENDBRANCH   6  17
TORSDOF 6
ENDMDL
MODEL 3
REMARK VINA RESULT:      -7.4      3.000      9.185
REMARK  Name = 
REMARK  8 active torsions:
REMARK  status: ('A' for Active; 'I' for Inactive)
REMARK    1  A    between atoms: C_1  and  O_2
REMARK    2  A    between atoms: O_2  and  C_3
REMARK    3  A    between atoms: C_5  and  C_6
REMARK    4  A    between atoms: C_6  and  N_8
REMARK    5  A    between atoms: C_16  and  O_17
REMARK    6  A    between atoms: O_17  and  S_18
REMARK    7  A    between atoms: S_18  and  C_21
REMARK    8  A    between atoms: C_24  and  C_25
REMARK                            x       y       z     vdW  Elec       q    Type
REMARK                         _______ _______ _______ _____ _____    ______ ____
ROOT
ATOM      1  C   UNL     1       1.378   8.829  20.236  0.00  0.00    +0.000 A 
ATOM      2  C   UNL     1       1.894   7.585  19.827  0.00  0.00    +0.000 A 
ATOM      3  C   UNL     1       2.418   7.388  18.543  0.00  0.00    +0.000 A 
ATOM      4  C   UNL     1       2.325   8.439  17.632  0.00  0.00    +0.000 A 
ATOM      5  C   UNL     1       1.771   9.665  18.016  0.00  0.00    +0.000 A 
ATOM      6  C   UNL     1       1.290   9.881  19.316  0.00  0.00    +0.000 A 
ENDROOT
BRANCH   1   8
ATOM      7  C   UNL     1      -0.341   8.348  21.818  0.00  0.00    +0.000 C 
ATOM      8  O   UNL     1       0.970   8.821  21.544  0.00  0.00    +0.000 OA
ENDBRANCH   1   8
BRANCH   3   9
ATOM      9  C   UNL     1       3.013   6.059  18.155  0.00  0.00    +0.000 C 
ATOM     10  S   UNL     1       2.044   4.679  17.984  0.00  0.00    +0.000 S 
BRANCH   9  11
ATOM     11  N   UNL     1       4.395   6.004  17.929  0.00  0.00    +0.000 N 
ATOM     12  C   UNL     1       5.072   6.633  16.782  0.00  0.00    +0.000 C 
ATOM     13  C   UNL     1       6.193   5.735  16.242  0.00  0.00    +0.000 C 
ATOM     14  O   UNL     1       7.111   5.362  17.281  0.00  0.00    +0.000 OA
ATOM     15  C   UNL     1       6.429   4.643  18.321  0.00  0.00    +0.000 C 
ATOM     16  C   UNL     1       5.331   5.501  18.948  0.00  0.00    +0.000 C 
ENDBRANCH   9  11
ENDBRANCH   3   9
BRANCH   6  17
ATOM     17  O   UNL     1       0.714  11.077  19.700  0.00  0.00    +0.000 OA
BRANCH  17  18
ATOM     18  S   UNL     1      -0.803  11.470  19.230  0.00  0.00    +0.000 S 
ATOM     19  O   UNL     1      -0.724  12.611  18.340  0.00  0.00    +0.000 OA
ATOM     20  O   UNL     1      -1.490  10.255  18.821  0.00  0.00    +0.000 OA
BRANCH  18  21
ATOM     21  C   UNL     1      -1.651  12.014  20.697  0.00  0.00    +0.000 A 
ATOM     22  C   UNL     1      -2.944  12.540  20.595  0.00  0.00    +0.000 A 
ATOM     23  C   UNL     1      -3.689  12.765  21.754  0.00  0.00    +0.000 A 
ATOM     24  C   UNL     1      -3.146  12.472  23.011  0.00  0.00    +0.000 A 
ATOM     25  C   UNL     1      -3.959  12.623  24.264  0.00  0.00    +0.000 C 
ATOM     26  C   UNL     1      -1.834  11.973  23.096  0.00  0.00    +0.000 A 
ATOM     27  C   UNL     1      -1.086  11.743  21.942  0.00  0.00    +0.000 A 
ENDBRANCH  18  21
ENDBRANCH  17  18
ENDBRANCH   6  17
TORSDOF 6
ENDMDL
MODEL 4
REMARK VINA RESULT:      -7.4      3.263      9.210
REMARK  Name = 
REMARK  8 active torsions:
REMARK  status: ('A' for Active; 'I' for Inactive)
REMARK    1  A    between atoms: C_1  and  O_2
REMARK    2  A    between atoms: O_2  and  C_3
REMARK    3  A    between atoms: C_5  and  C_6
REMARK    4  A    between atoms: C_6  and  N_8
REMARK    5  A    between atoms: C_16  and  O_17
REMARK    6  A    between atoms: O_17  and  S_18
REMARK    7  A    between atoms: S_18  and  C_21
REMARK    8  A    between atoms: C_24  and  C_25
REMARK                            x       y       z     vdW  Elec       q    Type
REMARK                         _______ _______ _______ _____ _____    ______ ____
ROOT
ATOM      1  C   UNL     1       1.440   8.700  20.282  0.00  0.00    +0.000 A 
ATOM      2  C   UNL     1       2.044   7.515  19.821  0.00  0.00    +0.000 A 
ATOM      3  C   UNL     1       2.587   7.415  18.534  0.00  0.00    +0.000 A 
ATOM      4  C   UNL     1       2.425   8.497  17.670  0.00  0.00    +0.000 A 
ATOM      5  C   UNL     1       1.783   9.662  18.105  0.00  0.00    +0.000 A 
ATOM      6  C   UNL     1       1.281   9.784  19.410  0.00  0.00    +0.000 A 
ENDROOT
BRANCH   1   8
ATOM      7  C   UNL     1      -0.341   8.298  21.817  0.00  0.00    +0.000 C 
ATOM      8  O   UNL     1       1.026   8.603  21.585  0.00  0.00    +0.000 OA
ENDBRANCH   1   8
BRANCH   3   9
ATOM      9  C   UNL     1       3.277   6.150  18.091  0.00  0.00    +0.000 C 
ATOM     10  S   UNL     1       4.562   6.190  16.987  0.00  0.00    +0.000 S 
BRANCH   9  11
ATOM     11  N   UNL     1       2.829   4.938  18.635  0.00  0.00    +0.000 N 
ATOM     12  C   UNL     1       3.354   4.343  19.875  0.00  0.00    +0.000 C 
ATOM     13  C   UNL     1       3.478   2.818  19.746  0.00  0.00    +0.000 C 
ATOM     14  O   UNL     1       2.235   2.226  19.338  0.00  0.00    +0.000 OA
ATOM     15  C   UNL     1       1.824   2.746  18.064  0.00  0.00    +0.000 C 
ATOM     16  C   UNL     1       1.623   4.259  18.132  0.00  0.00    +0.000 C 
ENDBRANCH   9  11
ENDBRANCH   3   9
BRANCH   6  17
ATOM     17  O   UNL     1       0.620  10.917  19.843  0.00  0.00    +0.000 OA
BRANCH  17  18
ATOM     18  S   UNL     1      -0.845  11.320  19.236  0.00  0.00    +0.000 S 
ATOM     19  O   UNL     1      -0.664  12.395  18.282  0.00  0.00    +0.000 OA
ATOM     20  O   UNL     1      -1.541  10.100  18.858  0.00  0.00    +0.000 OA
BRANCH  18  21
ATOM     21  C   UNL     1      -1.778  11.986  20.597  0.00  0.00    +0.000 A 
ATOM     22  C   UNL     1      -3.048  12.529  20.366  0.00  0.00    +0.000 A 
ATOM     23  C   UNL     1      -3.865  12.853  21.452  0.00  0.00    +0.000 A 
ATOM     24  C   UNL     1      -3.418  12.642  22.761  0.00  0.00    +0.000 A 
ATOM     25  C   UNL     1      -4.312  12.899  23.939  0.00  0.00    +0.000 C 
ATOM     26  C   UNL     1      -2.128  12.123  22.974  0.00  0.00    +0.000 A 
ATOM     27  C   UNL     1      -1.308  11.795  21.895  0.00  0.00    +0.000 A 
ENDBRANCH  18  21
ENDBRANCH  17  18
ENDBRANCH   6  17
TORSDOF 6
ENDMDL
MODEL 5
REMARK VINA RESULT:      -7.4      1.076      1.544
REMARK  Name = 
REMARK  8 active torsions:
REMARK  status: ('A' for Active; 'I' for Inactive)
REMARK    1  A    between atoms: C_1  and  O_2
REMARK    2  A    between atoms: O_2  and  C_3
REMARK    3  A    between atoms: C_5  and  C_6
REMARK    4  A    between atoms: C_6  and  N_8
REMARK    5  A    between atoms: C_16  and  O_17
REMARK    6  A    between atoms: O_17  and  S_18
REMARK    7  A    between atoms: S_18  and  C_21
REMARK    8  A    between atoms: C_24  and  C_25
REMARK                            x       y       z     vdW  Elec       q    Type
REMARK                         _______ _______ _______ _____ _____    ______ ____
ROOT
ATOM      1  C   UNL     1       2.381   6.617  19.742  0.00  0.00    +0.000 A 
ATOM      2  C   UNL     1       1.701   7.604  20.479  0.00  0.00    +0.000 A 
ATOM      3  C   UNL     1       1.299   8.814  19.897  0.00  0.00    +0.000 A 
ATOM      4  C   UNL     1       1.680   9.064  18.581  0.00  0.00    +0.000 A 
ATOM      5  C   UNL     1       2.398   8.107  17.855  0.00  0.00    +0.000 A 
ATOM      6  C   UNL     1       2.760   6.874  18.419  0.00  0.00    +0.000 A 
ENDROOT
BRANCH   1   8
ATOM      7  C   UNL     1       1.651   4.462  20.460  0.00  0.00    +0.000 C 
ATOM      8  O   UNL     1       2.630   5.491  20.483  0.00  0.00    +0.000 OA
ENDBRANCH   1   8
BRANCH   3   9
ATOM      9  C   UNL     1       0.523   9.827  20.700  0.00  0.00    +0.000 C 
ATOM     10  S   UNL     1       0.188   9.576  22.342  0.00  0.00    +0.000 S 
BRANCH   9  11
ATOM     11  N   UNL     1       0.097  10.991  20.044  0.00  0.00    +0.000 N 
ATOM     12  C   UNL     1      -1.273  11.209  19.551  0.00  0.00    +0.000 C 
ATOM     13  C   UNL     1      -1.262  11.929  18.195  0.00  0.00    +0.000 C 
ATOM     14  O   UNL     1      -0.503  13.145  18.255  0.00  0.00    +0.000 OA
ATOM     15  C   UNL     1       0.859  12.871  18.620  0.00  0.00    +0.000 C 
ATOM     16  C   UNL     1       0.932  12.203  19.993  0.00  0.00    +0.000 C 
ENDBRANCH   9  11
ENDBRANCH   3   9
BRANCH   6  17
ATOM     17  O   UNL     1       3.493   5.932  17.723  0.00  0.00    +0.000 OA
BRANCH  17  18
ATOM     18  S   UNL     1       5.127   5.910  17.804  0.00  0.00    +0.000 S 
ATOM     19  O   UNL     1       5.606   7.276  17.728  0.00  0.00    +0.000 OA
ATOM     20  O   UNL     1       5.524   5.043  18.902  0.00  0.00    +0.000 OA
BRANCH  18  21
ATOM     21  C   UNL     1       5.685   5.082  16.331  0.00  0.00    +0.000 A 
ATOM     22  C   UNL     1       4.847   4.155  15.698  0.00  0.00    +0.000 A 
ATOM     23  C   UNL     1       5.191   3.668  14.435  0.00  0.00    +0.000 A 
ATOM     24  C   UNL     1       6.366   4.098  13.807  0.00  0.00    +0.000 A 
ATOM     25  C   UNL     1       6.709   3.657  12.414  0.00  0.00    +0.000 C 
ATOM     26  C   UNL     1       7.210   5.006  14.470  0.00  0.00    +0.000 A 
ATOM     27  C   UNL     1       6.871   5.499  15.730  0.00  0.00    +0.000 A 
ENDBRANCH  18  21
ENDBRANCH  17  18
ENDBRANCH   6  17
TORSDOF 6
ENDMDL
MODEL 6
REMARK VINA RESULT:      -7.3      3.219      9.201
REMARK  Name = 
REMARK  8 active torsions:
REMARK  status: ('A' for Active; 'I' for Inactive)
REMARK    1  A    between atoms: C_1  and  O_2
REMARK    2  A    between atoms: O_2  and  C_3
REMARK    3  A    between atoms: C_5  and  C_6
REMARK    4  A    between atoms: C_6  and  N_8
REMARK    5  A    between atoms: C_16  and  O_17
REMARK    6  A    between atoms: O_17  and  S_18
REMARK    7  A    between atoms: S_18  and  C_21
REMARK    8  A    between atoms: C_24  and  C_25
REMARK                            x       y       z     vdW  Elec       q    Type
REMARK                         _______ _______ _______ _____ _____    ______ ____
ROOT
ATOM      1  C   UNL     1       1.398   8.665  20.287  0.00  0.00    +0.000 A 
ATOM      2  C   UNL     1       2.053   7.517  19.803  0.00  0.00    +0.000 A 
ATOM      3  C   UNL     1       2.591   7.463  18.511  0.00  0.00    +0.000 A 
ATOM      4  C   UNL     1       2.373   8.550  17.667  0.00  0.00    +0.000 A 
ATOM      5  C   UNL     1       1.682   9.678  18.124  0.00  0.00    +0.000 A 
ATOM      6  C   UNL     1       1.185   9.755  19.434  0.00  0.00    +0.000 A 
ENDROOT
BRANCH   1   8
ATOM      7  C   UNL     1      -0.392   8.390  21.839  0.00  0.00    +0.000 C 
ATOM      8  O   UNL     1       1.000   8.529  21.591  0.00  0.00    +0.000 OA
ENDBRANCH   1   8
BRANCH   3   9
ATOM      9  C   UNL     1       3.334   6.238  18.044  0.00  0.00    +0.000 C 
ATOM     10  S   UNL     1       4.661   6.362  16.997  0.00  0.00    +0.000 S 
BRANCH   9  11
ATOM     11  N   UNL     1       2.898   4.991  18.514  0.00  0.00    +0.000 N 
ATOM     12  C   UNL     1       1.714   4.281  18.003  0.00  0.00    +0.000 C 
ATOM     13  C   UNL     1       0.945   3.599  19.143  0.00  0.00    +0.000 C 
ATOM     14  O   UNL     1       1.803   2.746  19.915  0.00  0.00    +0.000 OA
ATOM     15  C   UNL     1       2.875   3.504  20.497  0.00  0.00    +0.000 C 
ATOM     16  C   UNL     1       3.724   4.168  19.414  0.00  0.00    +0.000 C 
ENDBRANCH   9  11
ENDBRANCH   3   9
BRANCH   6  17
ATOM     17  O   UNL     1       0.476  10.850  19.890  0.00  0.00    +0.000 OA
BRANCH  17  18
ATOM     18  S   UNL     1      -0.918  11.311  19.166  0.00  0.00    +0.000 S 
ATOM     19  O   UNL     1      -0.616  12.378  18.234  0.00  0.00    +0.000 OA
ATOM     20  O   UNL     1      -1.627  10.120  18.728  0.00  0.00    +0.000 OA
BRANCH  18  21
ATOM     21  C   UNL     1      -1.932  12.013  20.448  0.00  0.00    +0.000 A 
ATOM     22  C   UNL     1      -3.182  12.556  20.123  0.00  0.00    +0.000 A 
ATOM     23  C   UNL     1      -4.065  12.909  21.146  0.00  0.00    +0.000 A 
ATOM     24  C   UNL     1      -3.704  12.728  22.486  0.00  0.00    +0.000 A 
ATOM     25  C   UNL     1      -4.670  13.017  23.598  0.00  0.00    +0.000 C 
ATOM     26  C   UNL     1      -2.433  12.209  22.794  0.00  0.00    +0.000 A 
ATOM     27  C   UNL     1      -1.548  11.852  21.778  0.00  0.00    +0.000 A 
ENDBRANCH  18  21
ENDBRANCH  17  18
ENDBRANCH   6  17
TORSDOF 6
ENDMDL
MODEL 7
REMARK VINA RESULT:      -7.3      3.218      9.181
REMARK  Name = 
REMARK  8 active torsions:
REMARK  status: ('A' for Active; 'I' for Inactive)
REMARK    1  A    between atoms: C_1  and  O_2
REMARK    2  A    between atoms: O_2  and  C_3
REMARK    3  A    between atoms: C_5  and  C_6
REMARK    4  A    between atoms: C_6  and  N_8
REMARK    5  A    between atoms: C_16  and  O_17
REMARK    6  A    between atoms: O_17  and  S_18
REMARK    7  A    between atoms: S_18  and  C_21
REMARK    8  A    between atoms: C_24  and  C_25
REMARK                            x       y       z     vdW  Elec       q    Type
REMARK                         _______ _______ _______ _____ _____    ______ ____
ROOT
ATOM      1  C   UNL     1       2.027   8.911  18.257  0.00  0.00    +0.000 A 
ATOM      2  C   UNL     1       2.835   7.924  17.661  0.00  0.00    +0.000 A 
ATOM      3  C   UNL     1       3.100   6.704  18.295  0.00  0.00    +0.000 A 
ATOM      4  C   UNL     1       2.621   6.524  19.592  0.00  0.00    +0.000 A 
ATOM      5  C   UNL     1       1.856   7.519  20.211  0.00  0.00    +0.000 A 
ATOM      6  C   UNL     1       1.548   8.723  19.559  0.00  0.00    +0.000 A 
ENDROOT
BRANCH   1   8
ATOM      7  C   UNL     1       2.445  11.224  17.853  0.00  0.00    +0.000 C 
ATOM      8  O   UNL     1       1.849  10.001  17.446  0.00  0.00    +0.000 OA
ENDBRANCH   1   8
BRANCH   3   9
ATOM      9  C   UNL     1       3.923   5.646  17.605  0.00  0.00    +0.000 C 
ATOM     10  S   UNL     1       5.132   6.062  16.493  0.00  0.00    +0.000 S 
BRANCH   9  11
ATOM     11  N   UNL     1       3.664   4.306  17.924  0.00  0.00    +0.000 N 
ATOM     12  C   UNL     1       2.602   3.497  17.302  0.00  0.00    +0.000 C 
ATOM     13  C   UNL     1       1.920   2.591  18.336  0.00  0.00    +0.000 C 
ATOM     14  O   UNL     1       2.880   1.786  19.039  0.00  0.00    +0.000 OA
ATOM     15  C   UNL     1       3.823   2.619  19.733  0.00  0.00    +0.000 C 
ATOM     16  C   UNL     1       4.585   3.512  18.755  0.00  0.00    +0.000 C 
ENDBRANCH   9  11
ENDBRANCH   3   9
BRANCH   6  17
ATOM     17  O   UNL     1       0.818   9.726  20.169  0.00  0.00    +0.000 OA
BRANCH  17  18
ATOM     18  S   UNL     1       0.228   9.535  21.683  0.00  0.00    +0.000 S 
ATOM     19  O   UNL     1      -0.592   8.341  21.706  0.00  0.00    +0.000 OA
ATOM     20  O   UNL     1       1.320   9.704  22.629  0.00  0.00    +0.000 OA
BRANCH  18  21
ATOM     21  C   UNL     1      -0.856  10.916  21.970  0.00  0.00    +0.000 A 
ATOM     22  C   UNL     1      -1.215  11.748  20.903  0.00  0.00    +0.000 A 
ATOM     23  C   UNL     1      -2.226  12.695  21.079  0.00  0.00    +0.000 A 
ATOM     24  C   UNL     1      -2.874  12.816  22.314  0.00  0.00    +0.000 A 
ATOM     25  C   UNL     1      -4.022  13.765  22.500  0.00  0.00    +0.000 C 
ATOM     26  C   UNL     1      -2.479  11.993  23.383  0.00  0.00    +0.000 A 
ATOM     27  C   UNL     1      -1.472  11.043  23.213  0.00  0.00    +0.000 A 
ENDBRANCH  18  21
ENDBRANCH  17  18
ENDBRANCH   6  17
TORSDOF 6
ENDMDL
MODEL 8
REMARK VINA RESULT:      -7.3      3.091      9.056
REMARK  Name = 
REMARK  8 active torsions:
REMARK  status: ('A' for Active; 'I' for Inactive)
REMARK    1  A    between atoms: C_1  and  O_2
REMARK    2  A    between atoms: O_2  and  C_3
REMARK    3  A    between atoms: C_5  and  C_6
REMARK    4  A    between atoms: C_6  and  N_8
REMARK    5  A    between atoms: C_16  and  O_17
REMARK    6  A    between atoms: O_17  and  S_18
REMARK    7  A    between atoms: S_18  and  C_21
REMARK    8  A    between atoms: C_24  and  C_25
REMARK                            x       y       z     vdW  Elec       q    Type
REMARK                         _______ _______ _______ _____ _____    ______ ____
ROOT
ATOM      1  C   UNL     1       2.113   8.512  18.278  0.00  0.00    +0.000 A 
ATOM      2  C   UNL     1       2.792   7.433  17.681  0.00  0.00    +0.000 A 
ATOM      3  C   UNL     1       2.999   6.224  18.358  0.00  0.00    +0.000 A 
ATOM      4  C   UNL     1       2.601   6.146  19.691  0.00  0.00    +0.000 A 
ATOM      5  C   UNL     1       1.967   7.231  20.308  0.00  0.00    +0.000 A 
ATOM      6  C   UNL     1       1.714   8.425  19.617  0.00  0.00    +0.000 A 
ENDROOT
BRANCH   1   8
ATOM      7  C   UNL     1       2.256  10.869  17.938  0.00  0.00    +0.000 C 
ATOM      8  O   UNL     1       1.968   9.575  17.426  0.00  0.00    +0.000 OA
ENDBRANCH   1   8
BRANCH   3   9
ATOM      9  C   UNL     1       3.682   5.070  17.670  0.00  0.00    +0.000 C 
ATOM     10  S   UNL     1       2.881   3.597  17.424  0.00  0.00    +0.000 S 
BRANCH   9  11
ATOM     11  N   UNL     1       4.999   5.260  17.228  0.00  0.00    +0.000 N 
ATOM     12  C   UNL     1       5.378   5.470  15.821  0.00  0.00    +0.000 C 
ATOM     13  C   UNL     1       6.678   4.729  15.483  0.00  0.00    +0.000 C 
ATOM     14  O   UNL     1       7.732   5.082  16.392  0.00  0.00    +0.000 OA
ATOM     15  C   UNL     1       7.368   4.745  17.740  0.00  0.00    +0.000 C 
ATOM     16  C   UNL     1       6.108   5.495  18.168  0.00  0.00    +0.000 C 
ENDBRANCH   9  11
ENDBRANCH   3   9
BRANCH   6  17
ATOM     17  O   UNL     1       1.114   9.514  20.222  0.00  0.00    +0.000 OA
BRANCH  17  18
ATOM     18  S   UNL     1       0.512   9.407  21.740  0.00  0.00    +0.000 S 
ATOM     19  O   UNL     1      -0.465   8.337  21.768  0.00  0.00    +0.000 OA
ATOM     20  O   UNL     1       1.621   9.425  22.680  0.00  0.00    +0.000 OA
BRANCH  18  21
ATOM     21  C   UNL     1      -0.371  10.924  22.031  0.00  0.00    +0.000 A 
ATOM     22  C   UNL     1      -0.273  11.970  21.105  0.00  0.00    +0.000 A 
ATOM     23  C   UNL     1      -1.126  13.071  21.219  0.00  0.00    +0.000 A 
ATOM     24  C   UNL     1      -2.069  13.131  22.252  0.00  0.00    +0.000 A 
ATOM     25  C   UNL     1      -3.054  14.260  22.341  0.00  0.00    +0.000 C 
ATOM     26  C   UNL     1      -2.133  12.084  23.189  0.00  0.00    +0.000 A 
ATOM     27  C   UNL     1      -1.286  10.982  23.080  0.00  0.00    +0.000 A 
ENDBRANCH  18  21
ENDBRANCH  17  18
ENDBRANCH   6  17
TORSDOF 6
ENDMDL
MODEL 9
REMARK VINA RESULT:      -7.3      3.158      9.073
REMARK  Name = 
REMARK  8 active torsions:
REMARK  status: ('A' for Active; 'I' for Inactive)
REMARK    1  A    between atoms: C_1  and  O_2
REMARK    2  A    between atoms: O_2  and  C_3
REMARK    3  A    between atoms: C_5  and  C_6
REMARK    4  A    between atoms: C_6  and  N_8
REMARK    5  A    between atoms: C_16  and  O_17
REMARK    6  A    between atoms: O_17  and  S_18
REMARK    7  A    between atoms: S_18  and  C_21
REMARK    8  A    between atoms: C_24  and  C_25
REMARK                            x       y       z     vdW  Elec       q    Type
REMARK                         _______ _______ _______ _____ _____    ______ ____
ROOT
ATOM      1  C   UNL     1       2.061   8.536  18.299  0.00  0.00    +0.000 A 
ATOM      2  C   UNL     1       2.734   7.454  17.701  0.00  0.00    +0.000 A 
ATOM      3  C   UNL     1       2.940   6.246  18.380  0.00  0.00    +0.000 A 
ATOM      4  C   UNL     1       2.547   6.172  19.715  0.00  0.00    +0.000 A 
ATOM      5  C   UNL     1       1.919   7.260  20.332  0.00  0.00    +0.000 A 
ATOM      6  C   UNL     1       1.667   8.454  19.640  0.00  0.00    +0.000 A 
ENDROOT
BRANCH   1   8
ATOM      7  C   UNL     1       2.378  10.866  17.892  0.00  0.00    +0.000 C 
ATOM      8  O   UNL     1       1.917   9.599  17.445  0.00  0.00    +0.000 OA
ENDBRANCH   1   8
BRANCH   3   9
ATOM      9  C   UNL     1       3.616   5.088  17.691  0.00  0.00    +0.000 C 
ATOM     10  S   UNL     1       2.803   3.624  17.434  0.00  0.00    +0.000 S 
BRANCH   9  11
ATOM     11  N   UNL     1       4.937   5.267  17.259  0.00  0.00    +0.000 N 
ATOM     12  C   UNL     1       5.321   5.541  15.863  0.00  0.00    +0.000 C 
ATOM     13  C   UNL     1       6.603   4.785  15.486  0.00  0.00    +0.000 C 
ATOM     14  O   UNL     1       7.666   5.064  16.411  0.00  0.00    +0.000 OA
ATOM     15  C   UNL     1       7.293   4.667  17.740  0.00  0.00    +0.000 C 
ATOM     16  C   UNL     1       6.052   5.425  18.208  0.00  0.00    +0.000 C 
ENDBRANCH   9  11
ENDBRANCH   3   9
BRANCH   6  17
ATOM     17  O   UNL     1       1.073   9.546  20.245  0.00  0.00    +0.000 OA
BRANCH  17  18
ATOM     18  S   UNL     1       0.460   9.439  21.758  0.00  0.00    +0.000 S 
ATOM     19  O   UNL     1      -0.553   8.402  21.767  0.00  0.00    +0.000 OA
ATOM     20  O   UNL     1       1.564   9.406  22.704  0.00  0.00    +0.000 OA
BRANCH  18  21
ATOM     21  C   UNL     1      -0.372  10.981  22.066  0.00  0.00    +0.000 A 
ATOM     22  C   UNL     1      -1.395  11.038  23.020  0.00  0.00    +0.000 A 
ATOM     23  C   UNL     1      -1.898  12.279  23.415  0.00  0.00    +0.000 A 
ATOM     24  C   UNL     1      -1.389  13.459  22.859  0.00  0.00    +0.000 A 
ATOM     25  C   UNL     1      -1.853  14.805  23.333  0.00  0.00    +0.000 C 
ATOM     26  C   UNL     1      -0.383  13.380  21.879  0.00  0.00    +0.000 A 
ATOM     27  C   UNL     1       0.126  12.144  21.482  0.00  0.00    +0.000 A 
ENDBRANCH  18  21
ENDBRANCH  17  18
ENDBRANCH   6  17
TORSDOF 6
ENDMDL
