MODEL 1
REMARK VINA RESULT:      -8.1      0.000      0.000
REMARK  Name = 
REMARK  8 active torsions:
REMARK  status: ('A' for Active; 'I' for Inactive)
REMARK    1  A    between atoms: C_1  and  N_2
REMARK    2  A    between atoms: C_3  and  C_4
REMARK    3  A    between atoms: C_4  and  O_5
REMARK    4  A    between atoms: O_5  and  C_6
REMARK    5  A    between atoms: C_10  and  C_11
REMARK    6  A    between atoms: C_11  and  O_13
REMARK    7  A    between atoms: C_19  and  O_20
REMARK    8  A    between atoms: O_20  and  C_21
REMARK                            x       y       z     vdW  Elec       q    Type
REMARK                         _______ _______ _______ _____ _____    ______ ____
ROOT
ATOM      1  C   UNL     1       8.247   5.986  19.847  0.00  0.00    +0.000 C 
ATOM      2  N   UNL     1       7.650   6.542  18.655  0.00  0.00    +0.000 N 
ATOM      3  C   UNL     1       7.891   7.753  18.054  0.00  0.00    +0.000 A 
ATOM      4  N   UNL     1       7.067   7.935  17.035  0.00  0.00    +0.000 NA
ATOM      5  C   UNL     1       6.285   6.807  16.966  0.00  0.00    +0.000 A 
ATOM      6  C   UNL     1       5.243   6.476  16.085  0.00  0.00    +0.000 A 
ATOM      7  C   UNL     1       4.567   5.257  16.263  0.00  0.00    +0.000 A 
ATOM      8  C   UNL     1       4.928   4.379  17.288  0.00  0.00    +0.000 A 
ATOM      9  C   UNL     1       6.015   4.668  18.125  0.00  0.00    +0.000 A 
ATOM     10  C   UNL     1       6.643   5.907  17.958  0.00  0.00    +0.000 A 
ENDROOT
BRANCH   3  11
ATOM     11  C   UNL     1       8.915   8.746  18.515  0.00  0.00    +0.000 C 
BRANCH  11  12
ATOM     12  O   UNL     1       8.668   9.962  17.810  0.00  0.00    +0.000 OA
BRANCH  12  13
ATOM     13  C   UNL     1       9.307  11.092  18.247  0.00  0.00    +0.000 A 
ATOM     14  C   UNL     1      10.225  10.872  19.280  0.00  0.00    +0.000 A 
ATOM     15  C   UNL     1      10.919  11.934  19.861  0.00  0.00    +0.000 A 
ATOM     16  C   UNL     1      10.703  13.232  19.406  0.00  0.00    +0.000 A 
ATOM     17  C   UNL     1       9.798  13.467  18.362  0.00  0.00    +0.000 A 
ATOM     18  C   UNL     1       9.094  12.395  17.785  0.00  0.00    +0.000 A 
BRANCH  17  19
ATOM     19  C   UNL     1       9.568  14.881  17.963  0.00  0.00    +0.000 C 
ATOM     20  O   UNL     1      10.380  15.765  18.180  0.00  0.00    +0.000 OA
BRANCH  19  21
ATOM     21  O   UNL     1       8.402  15.100  17.325  0.00  0.00    +0.000 OA
ATOM     22  H   UNL     1       8.093  14.374  16.753  0.00  0.00    +0.000 HD
ENDBRANCH  19  21
ENDBRANCH  17  19
ENDBRANCH  12  13
ENDBRANCH  11  12
ENDBRANCH   3  11
BRANCH   8  23
ATOM     23  O   UNL     1       4.205   3.203  17.385  0.00  0.00    +0.000 OA
BRANCH  23  24
ATOM     24  C   UNL     1       3.460   2.996  18.543  0.00  0.00    +0.000 A 
ATOM     25  N   UNL     1       4.059   2.488  19.652  0.00  0.00    +0.000 NA
ATOM     26  C   UNL     1       3.268   2.281  20.731  0.00  0.00    +0.000 A 
ATOM     27  C   UNL     1       1.914   2.582  20.763  0.00  0.00    +0.000 A 
ATOM     28 CL   UNL     1       0.984   2.276  22.172  0.00  0.00    +0.000 Cl
ATOM     29  C   UNL     1       1.326   3.133  19.630  0.00  0.00    +0.000 A 
ATOM     30  C   UNL     1       2.114   3.345  18.505  0.00  0.00    +0.000 A 
ATOM     31  F   UNL     1       1.557   3.860  17.399  0.00  0.00    +0.000 F 
ENDBRANCH  23  24
ENDBRANCH   8  23
TORSDOF 7
ENDMDL
MODEL 2
REMARK VINA RESULT:      -8.0      5.691      8.239
REMARK  Name = 
REMARK  8 active torsions:
REMARK  status: ('A' for Active; 'I' for Inactive)
REMARK    1  A    between atoms: C_1  and  N_2
REMARK    2  A    between atoms: C_3  and  C_4
REMARK    3  A    between atoms: C_4  and  O_5
REMARK    4  A    between atoms: O_5  and  C_6
REMARK    5  A    between atoms: C_10  and  C_11
REMARK    6  A    between atoms: C_11  and  O_13
REMARK    7  A    between atoms: C_19  and  O_20
REMARK    8  A    between atoms: O_20  and  C_21
REMARK                            x       y       z     vdW  Elec       q    Type
REMARK                         _______ _______ _______ _____ _____    ______ ____
ROOT
ATOM      1  C   UNL     1       3.545   6.131  17.213  0.00  0.00    +0.000 C 
ATOM      2  N   UNL     1       3.044   6.129  18.568  0.00  0.00    +0.000 N 
ATOM      3  C   UNL     1       3.080   5.120  19.499  0.00  0.00    +0.000 A 
ATOM      4  N   UNL     1       2.425   5.477  20.592  0.00  0.00    +0.000 NA
ATOM      5  C   UNL     1       1.969   6.753  20.367  0.00  0.00    +0.000 A 
ATOM      6  C   UNL     1       1.208   7.604  21.186  0.00  0.00    +0.000 A 
ATOM      7  C   UNL     1       0.833   8.865  20.691  0.00  0.00    +0.000 A 
ATOM      8  C   UNL     1       1.216   9.276  19.412  0.00  0.00    +0.000 A 
ATOM      9  C   UNL     1       2.037   8.463  18.618  0.00  0.00    +0.000 A 
ATOM     10  C   UNL     1       2.360   7.195  19.114  0.00  0.00    +0.000 A 
ENDROOT
BRANCH   3  11
ATOM     11  C   UNL     1       3.732   3.787  19.289  0.00  0.00    +0.000 C 
BRANCH  11  12
ATOM     12  O   UNL     1       5.111   3.935  19.627  0.00  0.00    +0.000 OA
BRANCH  12  13
ATOM     13  C   UNL     1       5.932   4.527  18.705  0.00  0.00    +0.000 A 
ATOM     14  C   UNL     1       6.695   5.586  19.209  0.00  0.00    +0.000 A 
ATOM     15  C   UNL     1       7.545   6.317  18.376  0.00  0.00    +0.000 A 
ATOM     16  C   UNL     1       7.641   5.988  17.027  0.00  0.00    +0.000 A 
ATOM     17  C   UNL     1       6.894   4.921  16.511  0.00  0.00    +0.000 A 
ATOM     18  C   UNL     1       6.033   4.192  17.350  0.00  0.00    +0.000 A 
BRANCH  17  19
ATOM     19  C   UNL     1       6.998   4.658  15.051  0.00  0.00    +0.000 C 
ATOM     20  O   UNL     1       7.663   5.356  14.303  0.00  0.00    +0.000 OA
BRANCH  19  21
ATOM     21  O   UNL     1       6.314   3.577  14.626  0.00  0.00    +0.000 OA
ATOM     22  H   UNL     1       5.679   3.204  15.264  0.00  0.00    +0.000 HD
ENDBRANCH  19  21
ENDBRANCH  17  19
ENDBRANCH  12  13
ENDBRANCH  11  12
ENDBRANCH   3  11
BRANCH   8  23
ATOM     23  O   UNL     1       0.799  10.533  19.011  0.00  0.00    +0.000 OA
BRANCH  23  24
ATOM     24  C   UNL     1      -0.515  10.667  18.569  0.00  0.00    +0.000 A 
ATOM     25  N   UNL     1      -0.946   9.951  17.498  0.00  0.00    +0.000 NA
ATOM     26  C   UNL     1      -2.225  10.156  17.103  0.00  0.00    +0.000 A 
ATOM     27  C   UNL     1      -3.100  11.022  17.742  0.00  0.00    +0.000 A 
ATOM     28 CL   UNL     1      -4.702  11.230  17.165  0.00  0.00    +0.000 Cl
ATOM     29  C   UNL     1      -2.651  11.721  18.857  0.00  0.00    +0.000 A 
ATOM     30  C   UNL     1      -1.338  11.537  19.277  0.00  0.00    +0.000 A 
ATOM     31  F   UNL     1      -0.885  12.217  20.340  0.00  0.00    +0.000 F 
ENDBRANCH  23  24
ENDBRANCH   8  23
TORSDOF 7
ENDMDL
MODEL 3
REMARK VINA RESULT:      -7.9      8.074     10.118
REMARK  Name = 
REMARK  8 active torsions:
REMARK  status: ('A' for Active; 'I' for Inactive)
REMARK    1  A    between atoms: C_1  and  N_2
REMARK    2  A    between atoms: C_3  and  C_4
REMARK    3  A    between atoms: C_4  and  O_5
REMARK    4  A    between atoms: O_5  and  C_6
REMARK    5  A    between atoms: C_10  and  C_11
REMARK    6  A    between atoms: C_11  and  O_13
REMARK    7  A    between atoms: C_19  and  O_20
REMARK    8  A    between atoms: O_20  and  C_21
REMARK                            x       y       z     vdW  Elec       q    Type
REMARK                         _______ _______ _______ _____ _____    ______ ____
ROOT
ATOM      1  C   UNL     1      -0.334   9.618  22.409  0.00  0.00    +0.000 C 
ATOM      2  N   UNL     1       0.132   9.885  21.069  0.00  0.00    +0.000 N 
ATOM      3  C   UNL     1      -0.171  10.942  20.244  0.00  0.00    +0.000 A 
ATOM      4  N   UNL     1       0.381  10.772  19.054  0.00  0.00    +0.000 NA
ATOM      5  C   UNL     1       1.070   9.585  19.115  0.00  0.00    +0.000 A 
ATOM      6  C   UNL     1       1.825   8.920  18.135  0.00  0.00    +0.000 A 
ATOM      7  C   UNL     1       2.401   7.677  18.450  0.00  0.00    +0.000 A 
ATOM      8  C   UNL     1       2.241   7.113  19.718  0.00  0.00    +0.000 A 
ATOM      9  C   UNL     1       1.551   7.804  20.724  0.00  0.00    +0.000 A 
ATOM     10  C   UNL     1       0.949   9.018  20.374  0.00  0.00    +0.000 A 
ENDROOT
BRANCH   3  11
ATOM     11  C   UNL     1      -1.041  12.101  20.627  0.00  0.00    +0.000 C 
BRANCH  11  12
ATOM     12  O   UNL     1      -1.913  12.353  19.527  0.00  0.00    +0.000 OA
BRANCH  12  13
ATOM     13  C   UNL     1      -3.261  12.337  19.767  0.00  0.00    +0.000 A 
ATOM     14  C   UNL     1      -3.621  12.741  21.058  0.00  0.00    +0.000 A 
ATOM     15  C   UNL     1      -4.956  12.732  21.466  0.00  0.00    +0.000 A 
ATOM     16  C   UNL     1      -5.947  12.322  20.579  0.00  0.00    +0.000 A 
ATOM     17  C   UNL     1      -5.604  11.930  19.278  0.00  0.00    +0.000 A 
ATOM     18  C   UNL     1      -4.258  11.932  18.873  0.00  0.00    +0.000 A 
BRANCH  17  19
ATOM     19  C   UNL     1      -6.702  11.449  18.399  0.00  0.00    +0.000 C 
ATOM     20  O   UNL     1      -7.165  12.125  17.495  0.00  0.00    +0.000 OA
BRANCH  19  21
ATOM     21  O   UNL     1      -7.129  10.199  18.669  0.00  0.00    +0.000 OA
ATOM     22  H   UNL     1      -7.555   9.732  17.928  0.00  0.00    +0.000 HD
ENDBRANCH  19  21
ENDBRANCH  17  19
ENDBRANCH  12  13
ENDBRANCH  11  12
ENDBRANCH   3  11
BRANCH   8  23
ATOM     23  O   UNL     1       2.843   5.886  19.934  0.00  0.00    +0.000 OA
BRANCH  23  24
ATOM     24  C   UNL     1       3.609   5.351  18.903  0.00  0.00    +0.000 A 
ATOM     25  N   UNL     1       4.945   5.597  18.852  0.00  0.00    +0.000 NA
ATOM     26  C   UNL     1       5.622   5.073  17.804  0.00  0.00    +0.000 A 
ATOM     27  C   UNL     1       5.034   4.293  16.818  0.00  0.00    +0.000 A 
ATOM     28 CL   UNL     1       5.968   3.679  15.517  0.00  0.00    +0.000 Cl
ATOM     29  C   UNL     1       3.673   4.024  16.905  0.00  0.00    +0.000 A 
ATOM     30  C   UNL     1       2.952   4.560  17.966  0.00  0.00    +0.000 A 
ATOM     31  F   UNL     1       1.636   4.323  18.054  0.00  0.00    +0.000 F 
ENDBRANCH  23  24
ENDBRANCH   8  23
TORSDOF 7
ENDMDL
MODEL 4
REMARK VINA RESULT:      -7.9      5.819      8.496
REMARK  Name = 
REMARK  8 active torsions:
REMARK  status: ('A' for Active; 'I' for Inactive)
REMARK    1  A    between atoms: C_1  and  N_2
REMARK    2  A    between atoms: C_3  and  C_4
REMARK    3  A    between atoms: C_4  and  O_5
REMARK    4  A    between atoms: O_5  and  C_6
REMARK    5  A    between atoms: C_10  and  C_11
REMARK    6  A    between atoms: C_11  and  O_13
REMARK    7  A    between atoms: C_19  and  O_20
REMARK    8  A    between atoms: O_20  and  C_21
REMARK                            x       y       z     vdW  Elec       q    Type
REMARK                         _______ _______ _______ _____ _____    ______ ____
ROOT
ATOM      1  C   UNL     1       2.183   4.908  21.221  0.00  0.00    +0.000 C 
ATOM      2  N   UNL     1       2.271   5.606  19.961  0.00  0.00    +0.000 N 
ATOM      3  C   UNL     1       2.772   5.161  18.761  0.00  0.00    +0.000 A 
ATOM      4  N   UNL     1       2.766   6.138  17.868  0.00  0.00    +0.000 NA
ATOM      5  C   UNL     1       2.234   7.235  18.501  0.00  0.00    +0.000 A 
ATOM      6  C   UNL     1       2.009   8.538  18.026  0.00  0.00    +0.000 A 
ATOM      7  C   UNL     1       1.484   9.498  18.907  0.00  0.00    +0.000 A 
ATOM      8  C   UNL     1       1.177   9.168  20.229  0.00  0.00    +0.000 A 
ATOM      9  C   UNL     1       1.329   7.853  20.689  0.00  0.00    +0.000 A 
ATOM     10  C   UNL     1       1.895   6.924  19.808  0.00  0.00    +0.000 A 
ENDROOT
BRANCH   3  11
ATOM     11  C   UNL     1       3.292   3.777  18.514  0.00  0.00    +0.000 C 
BRANCH  11  12
ATOM     12  O   UNL     1       4.649   3.753  18.955  0.00  0.00    +0.000 OA
BRANCH  12  13
ATOM     13  C   UNL     1       5.582   4.381  18.175  0.00  0.00    +0.000 A 
ATOM     14  C   UNL     1       6.317   5.370  18.840  0.00  0.00    +0.000 A 
ATOM     15  C   UNL     1       7.273   6.130  18.163  0.00  0.00    +0.000 A 
ATOM     16  C   UNL     1       7.507   5.901  16.810  0.00  0.00    +0.000 A 
ATOM     17  C   UNL     1       6.790   4.904  16.135  0.00  0.00    +0.000 A 
ATOM     18  C   UNL     1       5.822   4.147  16.817  0.00  0.00    +0.000 A 
BRANCH  17  19
ATOM     19  C   UNL     1       7.045   4.749  14.678  0.00  0.00    +0.000 C 
ATOM     20  O   UNL     1       7.744   5.524  14.047  0.00  0.00    +0.000 OA
BRANCH  19  21
ATOM     21  O   UNL     1       6.456   3.674  14.118  0.00  0.00    +0.000 OA
ATOM     22  H   UNL     1       5.671   3.861  13.572  0.00  0.00    +0.000 HD
ENDBRANCH  19  21
ENDBRANCH  17  19
ENDBRANCH  12  13
ENDBRANCH  11  12
ENDBRANCH   3  11
BRANCH   8  23
ATOM     23  O   UNL     1       0.665  10.180  21.021  0.00  0.00    +0.000 OA
BRANCH  23  24
ATOM     24  C   UNL     1       0.502  11.436  20.441  0.00  0.00    +0.000 A 
ATOM     25  N   UNL     1       1.475  12.376  20.575  0.00  0.00    +0.000 NA
ATOM     26  C   UNL     1       1.235  13.584  20.014  0.00  0.00    +0.000 A 
ATOM     27  C   UNL     1       0.083  13.890  19.304  0.00  0.00    +0.000 A 
ATOM     28 CL   UNL     1      -0.142  15.454  18.636  0.00  0.00    +0.000 Cl
ATOM     29  C   UNL     1      -0.886  12.906  19.149  0.00  0.00    +0.000 A 
ATOM     30  C   UNL     1      -0.669  11.658  19.725  0.00  0.00    +0.000 A 
ATOM     31  F   UNL     1      -1.602  10.704  19.598  0.00  0.00    +0.000 F 
ENDBRANCH  23  24
ENDBRANCH   8  23
TORSDOF 7
ENDMDL
MODEL 5
REMARK VINA RESULT:      -7.9      6.559      8.953
REMARK  Name = 
REMARK  8 active torsions:
REMARK  status: ('A' for Active; 'I' for Inactive)
REMARK    1  A    between atoms: C_1  and  N_2
REMARK    2  A    between atoms: C_3  and  C_4
REMARK    3  A    between atoms: C_4  and  O_5
REMARK    4  A    between atoms: O_5  and  C_6
REMARK    5  A    between atoms: C_10  and  C_11
REMARK    6  A    between atoms: C_11  and  O_13
REMARK    7  A    between atoms: C_19  and  O_20
REMARK    8  A    between atoms: O_20  and  C_21
REMARK                            x       y       z     vdW  Elec       q    Type
REMARK                         _______ _______ _______ _____ _____    ______ ____
ROOT
ATOM      1  C   UNL     1       3.067   7.861  17.562  0.00  0.00    +0.000 C 
ATOM      2  N   UNL     1       2.411   7.794  18.846  0.00  0.00    +0.000 N 
ATOM      3  C   UNL     1       2.536   6.844  19.830  0.00  0.00    +0.000 A 
ATOM      4  N   UNL     1       1.689   7.087  20.818  0.00  0.00    +0.000 NA
ATOM      5  C   UNL     1       1.012   8.230  20.470  0.00  0.00    +0.000 A 
ATOM      6  C   UNL     1      -0.005   8.926  21.146  0.00  0.00    +0.000 A 
ATOM      7  C   UNL     1      -0.566  10.063  20.540  0.00  0.00    +0.000 A 
ATOM      8  C   UNL     1      -0.118  10.507  19.294  0.00  0.00    +0.000 A 
ATOM      9  C   UNL     1       0.946   9.863  18.648  0.00  0.00    +0.000 A 
ATOM     10  C   UNL     1       1.459   8.707  19.248  0.00  0.00    +0.000 A 
ENDROOT
BRANCH   3  11
ATOM     11  C   UNL     1       3.470   5.673  19.772  0.00  0.00    +0.000 C 
BRANCH  11  12
ATOM     12  O   UNL     1       3.561   5.275  18.405  0.00  0.00    +0.000 OA
BRANCH  12  13
ATOM     13  C   UNL     1       4.810   5.060  17.886  0.00  0.00    +0.000 A 
ATOM     14  C   UNL     1       5.839   5.086  18.834  0.00  0.00    +0.000 A 
ATOM     15  C   UNL     1       7.172   4.929  18.449  0.00  0.00    +0.000 A 
ATOM     16  C   UNL     1       7.486   4.738  17.106  0.00  0.00    +0.000 A 
ATOM     17  C   UNL     1       6.465   4.694  16.148  0.00  0.00    +0.000 A 
ATOM     18  C   UNL     1       5.124   4.861  16.537  0.00  0.00    +0.000 A 
BRANCH  17  19
ATOM     19  C   UNL     1       6.870   4.546  14.725  0.00  0.00    +0.000 C 
ATOM     20  O   UNL     1       7.649   5.310  14.180  0.00  0.00    +0.000 OA
BRANCH  19  21
ATOM     21  O   UNL     1       6.323   3.488  14.094  0.00  0.00    +0.000 OA
ATOM     22  H   UNL     1       6.025   3.651  13.181  0.00  0.00    +0.000 HD
ENDBRANCH  19  21
ENDBRANCH  17  19
ENDBRANCH  12  13
ENDBRANCH  11  12
ENDBRANCH   3  11
BRANCH   8  23
ATOM     23  O   UNL     1      -0.731  11.635  18.778  0.00  0.00    +0.000 OA
BRANCH  23  24
ATOM     24  C   UNL     1      -2.110  11.591  18.587  0.00  0.00    +0.000 A 
ATOM     25  N   UNL     1      -2.934  12.243  19.449  0.00  0.00    +0.000 NA
ATOM     26  C   UNL     1      -4.264  12.131  19.223  0.00  0.00    +0.000 A 
ATOM     27  C   UNL     1      -4.808  11.421  18.163  0.00  0.00    +0.000 A 
ATOM     28 CL   UNL     1      -6.509  11.321  17.959  0.00  0.00    +0.000 Cl
ATOM     29  C   UNL     1      -3.949  10.788  17.272  0.00  0.00    +0.000 A 
ATOM     30  C   UNL     1      -2.578  10.879  17.488  0.00  0.00    +0.000 A 
ATOM     31  F   UNL     1      -1.737  10.261  16.647  0.00  0.00    +0.000 F 
ENDBRANCH  23  24
ENDBRANCH   8  23
TORSDOF 7
ENDMDL
MODEL 6
REMARK VINA RESULT:      -7.9      5.958      8.502
REMARK  Name = 
REMARK  8 active torsions:
REMARK  status: ('A' for Active; 'I' for Inactive)
REMARK    1  A    between atoms: C_1  and  N_2
REMARK    2  A    between atoms: C_3  and  C_4
REMARK    3  A    between atoms: C_4  and  O_5
REMARK    4  A    between atoms: O_5  and  C_6
REMARK    5  A    between atoms: C_10  and  C_11
REMARK    6  A    between atoms: C_11  and  O_13
REMARK    7  A    between atoms: C_19  and  O_20
REMARK    8  A    between atoms: O_20  and  C_21
REMARK                            x       y       z     vdW  Elec       q    Type
REMARK                         _______ _______ _______ _____ _____    ______ ____
ROOT
ATOM      1  C   UNL     1       3.194   6.701  17.338  0.00  0.00    +0.000 C 
ATOM      2  N   UNL     1       2.674   6.646  18.684  0.00  0.00    +0.000 N 
ATOM      3  C   UNL     1       2.651   5.585  19.557  0.00  0.00    +0.000 A 
ATOM      4  N   UNL     1       1.996   5.910  20.661  0.00  0.00    +0.000 NA
ATOM      5  C   UNL     1       1.600   7.216  20.503  0.00  0.00    +0.000 A 
ATOM      6  C   UNL     1       0.866   8.053  21.359  0.00  0.00    +0.000 A 
ATOM      7  C   UNL     1       0.554   9.355  20.931  0.00  0.00    +0.000 A 
ATOM      8  C   UNL     1       0.974   9.819  19.682  0.00  0.00    +0.000 A 
ATOM      9  C   UNL     1       1.770   9.016  18.853  0.00  0.00    +0.000 A 
ATOM     10  C   UNL     1       2.030   7.709  19.281  0.00  0.00    +0.000 A 
ENDROOT
BRANCH   3  11
ATOM     11  C   UNL     1       3.247   4.238  19.280  0.00  0.00    +0.000 C 
BRANCH  11  12
ATOM     12  O   UNL     1       4.594   4.270  19.748  0.00  0.00    +0.000 OA
BRANCH  12  13
ATOM     13  C   UNL     1       5.564   4.665  18.866  0.00  0.00    +0.000 A 
ATOM     14  C   UNL     1       6.511   5.543  19.406  0.00  0.00    +0.000 A 
ATOM     15  C   UNL     1       7.534   6.069  18.615  0.00  0.00    +0.000 A 
ATOM     16  C   UNL     1       7.622   5.714  17.272  0.00  0.00    +0.000 A 
ATOM     17  C   UNL     1       6.690   4.824  16.721  0.00  0.00    +0.000 A 
ATOM     18  C   UNL     1       5.656   4.303  17.517  0.00  0.00    +0.000 A 
BRANCH  17  19
ATOM     19  C   UNL     1       6.804   4.531  15.267  0.00  0.00    +0.000 C 
ATOM     20  O   UNL     1       6.163   3.648  14.723  0.00  0.00    +0.000 OA
BRANCH  19  21
ATOM     21  O   UNL     1       7.657   5.333  14.599  0.00  0.00    +0.000 OA
ATOM     22  H   UNL     1       8.403   4.883  14.164  0.00  0.00    +0.000 HD
ENDBRANCH  19  21
ENDBRANCH  17  19
ENDBRANCH  12  13
ENDBRANCH  11  12
ENDBRANCH   3  11
BRANCH   8  23
ATOM     23  O   UNL     1       0.619  11.114  19.347  0.00  0.00    +0.000 OA
BRANCH  23  24
ATOM     24  C   UNL     1      -0.739  11.414  19.276  0.00  0.00    +0.000 A 
ATOM     25  N   UNL     1      -1.297  12.249  20.193  0.00  0.00    +0.000 NA
ATOM     26  C   UNL     1      -2.628  12.471  20.083  0.00  0.00    +0.000 A 
ATOM     27  C   UNL     1      -3.422  11.920  19.088  0.00  0.00    +0.000 A 
ATOM     28 CL   UNL     1      -5.106  12.246  19.033  0.00  0.00    +0.000 Cl
ATOM     29  C   UNL     1      -2.828  11.095  18.140  0.00  0.00    +0.000 A 
ATOM     30  C   UNL     1      -1.463  10.843  18.236  0.00  0.00    +0.000 A 
ATOM     31  F   UNL     1      -0.879  10.037  17.338  0.00  0.00    +0.000 F 
ENDBRANCH  23  24
ENDBRANCH   8  23
TORSDOF 7
ENDMDL
MODEL 7
REMARK VINA RESULT:      -7.9      8.136     10.380
REMARK  Name = 
REMARK  8 active torsions:
REMARK  status: ('A' for Active; 'I' for Inactive)
REMARK    1  A    between atoms: C_1  and  N_2
REMARK    2  A    between atoms: C_3  and  C_4
REMARK    3  A    between atoms: C_4  and  O_5
REMARK    4  A    between atoms: O_5  and  C_6
REMARK    5  A    between atoms: C_10  and  C_11
REMARK    6  A    between atoms: C_11  and  O_13
REMARK    7  A    between atoms: C_19  and  O_20
REMARK    8  A    between atoms: O_20  and  C_21
REMARK                            x       y       z     vdW  Elec       q    Type
REMARK                         _______ _______ _______ _____ _____    ______ ____
ROOT
ATOM      1  C   UNL     1       1.119  11.152  18.584  0.00  0.00    +0.000 C 
ATOM      2  N   UNL     1       1.001  10.198  19.661  0.00  0.00    +0.000 N 
ATOM      3  C   UNL     1       1.452   8.901  19.718  0.00  0.00    +0.000 A 
ATOM      4  N   UNL     1       1.057   8.324  20.842  0.00  0.00    +0.000 NA
ATOM      5  C   UNL     1       0.349   9.275  21.534  0.00  0.00    +0.000 A 
ATOM      6  C   UNL     1      -0.302   9.198  22.777  0.00  0.00    +0.000 A 
ATOM      7  C   UNL     1      -1.002  10.322  23.246  0.00  0.00    +0.000 A 
ATOM      8  C   UNL     1      -1.045  11.503  22.501  0.00  0.00    +0.000 A 
ATOM      9  C   UNL     1      -0.337  11.612  21.296  0.00  0.00    +0.000 A 
ATOM     10  C   UNL     1       0.315  10.466  20.827  0.00  0.00    +0.000 A 
ENDROOT
BRANCH   3  11
ATOM     11  C   UNL     1       2.241   8.224  18.638  0.00  0.00    +0.000 C 
BRANCH  11  12
ATOM     12  O   UNL     1       2.255   6.829  18.940  0.00  0.00    +0.000 OA
BRANCH  12  13
ATOM     13  C   UNL     1       3.019   6.014  18.148  0.00  0.00    +0.000 A 
ATOM     14  C   UNL     1       2.532   4.707  18.027  0.00  0.00    +0.000 A 
ATOM     15  C   UNL     1       3.229   3.748  17.290  0.00  0.00    +0.000 A 
ATOM     16  C   UNL     1       4.422   4.093  16.660  0.00  0.00    +0.000 A 
ATOM     17  C   UNL     1       4.914   5.401  16.759  0.00  0.00    +0.000 A 
ATOM     18  C   UNL     1       4.214   6.362  17.510  0.00  0.00    +0.000 A 
BRANCH  17  19
ATOM     19  C   UNL     1       6.221   5.689  16.113  0.00  0.00    +0.000 C 
ATOM     20  O   UNL     1       6.402   5.568  14.913  0.00  0.00    +0.000 OA
BRANCH  19  21
ATOM     21  O   UNL     1       7.182   6.113  16.957  0.00  0.00    +0.000 OA
ATOM     22  H   UNL     1       7.982   6.477  16.536  0.00  0.00    +0.000 HD
ENDBRANCH  19  21
ENDBRANCH  17  19
ENDBRANCH  12  13
ENDBRANCH  11  12
ENDBRANCH   3  11
BRANCH   8  23
ATOM     23  O   UNL     1      -1.760  12.556  23.044  0.00  0.00    +0.000 OA
BRANCH  23  24
ATOM     24  C   UNL     1      -3.103  12.674  22.695  0.00  0.00    +0.000 A 
ATOM     25  N   UNL     1      -3.464  12.684  21.384  0.00  0.00    +0.000 NA
ATOM     26  C   UNL     1      -4.783  12.834  21.117  0.00  0.00    +0.000 A 
ATOM     27  C   UNL     1      -5.759  12.950  22.095  0.00  0.00    +0.000 A 
ATOM     28 CL   UNL     1      -7.408  13.150  21.665  0.00  0.00    +0.000 Cl
ATOM     29  C   UNL     1      -5.375  12.904  23.430  0.00  0.00    +0.000 A 
ATOM     30  C   UNL     1      -4.025  12.761  23.732  0.00  0.00    +0.000 A 
ATOM     31  F   UNL     1      -3.637  12.732  25.015  0.00  0.00    +0.000 F 
ENDBRANCH  23  24
ENDBRANCH   8  23
TORSDOF 7
ENDMDL
MODEL 8
REMARK VINA RESULT:      -7.8      6.222      8.702
REMARK  Name = 
REMARK  8 active torsions:
REMARK  status: ('A' for Active; 'I' for Inactive)
REMARK    1  A    between atoms: C_1  and  N_2
REMARK    2  A    between atoms: C_3  and  C_4
REMARK    3  A    between atoms: C_4  and  O_5
REMARK    4  A    between atoms: O_5  and  C_6
REMARK    5  A    between atoms: C_10  and  C_11
REMARK    6  A    between atoms: C_11  and  O_13
REMARK    7  A    between atoms: C_19  and  O_20
REMARK    8  A    between atoms: O_20  and  C_21
REMARK                            x       y       z     vdW  Elec       q    Type
REMARK                         _______ _______ _______ _____ _____    ______ ____
ROOT
ATOM      1  C   UNL     1       3.908   3.755  19.455  0.00  0.00    +0.000 C 
ATOM      2  N   UNL     1       3.793   4.922  18.615  0.00  0.00    +0.000 N 
ATOM      3  C   UNL     1       4.403   5.183  17.411  0.00  0.00    +0.000 A 
ATOM      4  N   UNL     1       4.117   6.409  17.004  0.00  0.00    +0.000 NA
ATOM      5  C   UNL     1       3.290   6.948  17.960  0.00  0.00    +0.000 A 
ATOM      6  C   UNL     1       2.698   8.220  18.038  0.00  0.00    +0.000 A 
ATOM      7  C   UNL     1       1.916   8.536  19.161  0.00  0.00    +0.000 A 
ATOM      8  C   UNL     1       1.716   7.603  20.182  0.00  0.00    +0.000 A 
ATOM      9  C   UNL     1       2.240   6.308  20.076  0.00  0.00    +0.000 A 
ATOM     10  C   UNL     1       3.052   6.030  18.970  0.00  0.00    +0.000 A 
ENDROOT
BRANCH   3  11
ATOM     11  C   UNL     1       5.301   4.227  16.685  0.00  0.00    +0.000 C 
BRANCH  11  12
ATOM     12  O   UNL     1       6.231   5.010  15.938  0.00  0.00    +0.000 OA
BRANCH  12  13
ATOM     13  C   UNL     1       6.461   4.655  14.636  0.00  0.00    +0.000 A 
ATOM     14  C   UNL     1       7.520   5.340  14.030  0.00  0.00    +0.000 A 
ATOM     15  C   UNL     1       7.844   5.119  12.690  0.00  0.00    +0.000 A 
ATOM     16  C   UNL     1       7.110   4.202  11.944  0.00  0.00    +0.000 A 
ATOM     17  C   UNL     1       6.056   3.497  12.541  0.00  0.00    +0.000 A 
ATOM     18  C   UNL     1       5.727   3.728  13.888  0.00  0.00    +0.000 A 
BRANCH  17  19
ATOM     19  C   UNL     1       5.274   2.575  11.674  0.00  0.00    +0.000 C 
ATOM     20  O   UNL     1       4.198   2.883  11.189  0.00  0.00    +0.000 OA
BRANCH  19  21
ATOM     21  O   UNL     1       5.860   1.382  11.454  0.00  0.00    +0.000 OA
ATOM     22  H   UNL     1       6.752   1.276  11.831  0.00  0.00    +0.000 HD
ENDBRANCH  19  21
ENDBRANCH  17  19
ENDBRANCH  12  13
ENDBRANCH  11  12
ENDBRANCH   3  11
BRANCH   8  23
ATOM     23  O   UNL     1       0.932   8.006  21.248  0.00  0.00    +0.000 OA
BRANCH  23  24
ATOM     24  C   UNL     1       0.256   9.218  21.134  0.00  0.00    +0.000 A 
ATOM     25  N   UNL     1      -0.235   9.608  19.928  0.00  0.00    +0.000 NA
ATOM     26  C   UNL     1      -0.851  10.813  19.882  0.00  0.00    +0.000 A 
ATOM     27  C   UNL     1      -1.024  11.633  20.988  0.00  0.00    +0.000 A 
ATOM     28 CL   UNL     1      -1.808  13.151  20.836  0.00  0.00    +0.000 Cl
ATOM     29  C   UNL     1      -0.545  11.201  22.220  0.00  0.00    +0.000 A 
ATOM     30  C   UNL     1       0.102   9.972  22.292  0.00  0.00    +0.000 A 
ATOM     31  F   UNL     1       0.585   9.551  23.469  0.00  0.00    +0.000 F 
ENDBRANCH  23  24
ENDBRANCH   8  23
TORSDOF 7
ENDMDL
MODEL 9
REMARK VINA RESULT:      -7.8      5.583      8.093
REMARK  Name = 
REMARK  8 active torsions:
REMARK  status: ('A' for Active; 'I' for Inactive)
REMARK    1  A    between atoms: C_1  and  N_2
REMARK    2  A    between atoms: C_3  and  C_4
REMARK    3  A    between atoms: C_4  and  O_5
REMARK    4  A    between atoms: O_5  and  C_6
REMARK    5  A    between atoms: C_10  and  C_11
REMARK    6  A    between atoms: C_11  and  O_13
REMARK    7  A    between atoms: C_19  and  O_20
REMARK    8  A    between atoms: O_20  and  C_21
REMARK                            x       y       z     vdW  Elec       q    Type
REMARK                         _______ _______ _______ _____ _____    ______ ____
ROOT
ATOM      1  C   UNL     1       2.141   4.605  21.201  0.00  0.00    +0.000 C 
ATOM      2  N   UNL     1       2.245   5.340  19.963  0.00  0.00    +0.000 N 
ATOM      3  C   UNL     1       2.726   4.918  18.747  0.00  0.00    +0.000 A 
ATOM      4  N   UNL     1       2.747   5.921  17.885  0.00  0.00    +0.000 NA
ATOM      5  C   UNL     1       2.253   7.014  18.555  0.00  0.00    +0.000 A 
ATOM      6  C   UNL     1       2.066   8.338  18.123  0.00  0.00    +0.000 A 
ATOM      7  C   UNL     1       1.575   9.286  19.036  0.00  0.00    +0.000 A 
ATOM      8  C   UNL     1       1.264   8.924  20.349  0.00  0.00    +0.000 A 
ATOM      9  C   UNL     1       1.377   7.591  20.766  0.00  0.00    +0.000 A 
ATOM     10  C   UNL     1       1.910   6.673  19.854  0.00  0.00    +0.000 A 
ENDROOT
BRANCH   3  11
ATOM     11  C   UNL     1       3.202   3.527  18.454  0.00  0.00    +0.000 C 
BRANCH  11  12
ATOM     12  O   UNL     1       4.602   3.495  18.724  0.00  0.00    +0.000 OA
BRANCH  12  13
ATOM     13  C   UNL     1       5.417   4.280  17.952  0.00  0.00    +0.000 A 
ATOM     14  C   UNL     1       5.538   3.853  16.625  0.00  0.00    +0.000 A 
ATOM     15  C   UNL     1       6.372   4.525  15.729  0.00  0.00    +0.000 A 
ATOM     16  C   UNL     1       7.090   5.639  16.156  0.00  0.00    +0.000 A 
ATOM     17  C   UNL     1       6.967   6.087  17.478  0.00  0.00    +0.000 A 
ATOM     18  C   UNL     1       6.133   5.403  18.380  0.00  0.00    +0.000 A 
BRANCH  17  19
ATOM     19  C   UNL     1       7.805   7.246  17.886  0.00  0.00    +0.000 C 
ATOM     20  O   UNL     1       7.858   8.279  17.239  0.00  0.00    +0.000 OA
BRANCH  19  21
ATOM     21  O   UNL     1       8.483   7.069  19.037  0.00  0.00    +0.000 OA
ATOM     22  H   UNL     1       8.858   6.180  19.171  0.00  0.00    +0.000 HD
ENDBRANCH  19  21
ENDBRANCH  17  19
ENDBRANCH  12  13
ENDBRANCH  11  12
ENDBRANCH   3  11
BRANCH   8  23
ATOM     23  O   UNL     1       0.788   9.926  21.175  0.00  0.00    +0.000 OA
BRANCH  23  24
ATOM     24  C   UNL     1       0.588  11.185  20.615  0.00  0.00    +0.000 A 
ATOM     25  N   UNL     1       1.488  12.179  20.842  0.00  0.00    +0.000 NA
ATOM     26  C   UNL     1       1.214  13.386  20.294  0.00  0.00    +0.000 A 
ATOM     27  C   UNL     1       0.098  13.641  19.511  0.00  0.00    +0.000 A 
ATOM     28 CL   UNL     1      -0.178  15.207  18.866  0.00  0.00    +0.000 Cl
ATOM     29  C   UNL     1      -0.795  12.605  19.262  0.00  0.00    +0.000 A 
ATOM     30  C   UNL     1      -0.541  11.357  19.822  0.00  0.00    +0.000 A 
ATOM     31  F   UNL     1      -1.401  10.352  19.605  0.00  0.00    +0.000 F 
ENDBRANCH  23  24
ENDBRANCH   8  23
TORSDOF 7
ENDMDL
