MODEL 1
REMARK VINA RESULT:      -7.6      0.000      0.000
REMARK  Name = 
REMARK  16 active torsions:
REMARK  status: ('A' for Active; 'I' for Inactive)
REMARK    1  A    between atoms: C_1  and  C_2
REMARK    2  A    between atoms: C_2  and  C_3
REMARK    3  A    between atoms: C_2  and  C_4
REMARK    4  A    between atoms: C_2  and  C_5
REMARK    5  A    between atoms: C_7  and  C_8
REMARK    6  A    between atoms: C_8  and  C_9
REMARK    7  A    between atoms: C_8  and  C_10
REMARK    8  A    between atoms: C_8  and  C_11
REMARK    9  A    between atoms: C_13  and  S_14
REMARK   10  A    between atoms: S_14  and  N_17
REMARK   11  A    between atoms: N_17  and  C_18
REMARK   12  A    between atoms: C_18  and  C_19
REMARK   13  A    between atoms: C_22  and  C_23
REMARK   14  A    between atoms: N_25  and  C_26
REMARK   15  A    between atoms: C_26  and  C_27
REMARK   16  A    between atoms: C_27  and  N_28
REMARK                            x       y       z     vdW  Elec       q    Type
REMARK                         _______ _______ _______ _____ _____    ______ ____
ROOT
ATOM      1  N   UNL     1      -0.966  10.472  18.887  0.00  0.00    +0.000 NA
ATOM      2  H   UNL     1      -1.236   9.586  18.463  0.00  0.00    +0.000 HD
ENDROOT
BRANCH   1   3
ATOM      3  S   UNL     1      -1.709  11.756  18.097  0.00  0.00    +0.000 S 
ATOM      4  O   UNL     1      -2.322  11.258  16.884  0.00  0.00    +0.000 OA
ATOM      5  O   UNL     1      -0.755  12.840  18.084  0.00  0.00    +0.000 OA
BRANCH   3  10
ATOM      6  C   UNL     1      -3.690  12.816  21.480  0.00  0.00    +0.000 A 
ATOM      7  C   UNL     1      -5.026  12.595  21.072  0.00  0.00    +0.000 A 
ATOM      8  C   UNL     1      -5.372  12.129  19.785  0.00  0.00    +0.000 A 
ATOM      9  C   UNL     1      -4.332  11.957  18.865  0.00  0.00    +0.000 A 
ATOM     10  C   UNL     1      -3.005  12.198  19.236  0.00  0.00    +0.000 A 
ATOM     11  C   UNL     1      -2.682  12.625  20.526  0.00  0.00    +0.000 A 
BRANCH   6  13
ATOM     12  C   UNL     1      -4.699  12.920  23.754  0.00  0.00    +0.000 C 
ATOM     13  C   UNL     1      -3.380  13.082  22.966  0.00  0.00    +0.000 C 
ATOM     14  C   UNL     1      -2.829  14.506  23.185  0.00  0.00    +0.000 C 
ATOM     15  C   UNL     1      -2.356  12.098  23.572  0.00  0.00    +0.000 C 
ENDBRANCH   6  13
BRANCH   8  16
ATOM     16  C   UNL     1      -6.821  11.707  19.477  0.00  0.00    +0.000 C 
ATOM     17  C   UNL     1      -7.540  12.789  18.649  0.00  0.00    +0.000 C 
ATOM     18  C   UNL     1      -6.920  10.377  18.694  0.00  0.00    +0.000 C 
ATOM     19  C   UNL     1      -7.579  11.503  20.809  0.00  0.00    +0.000 C 
ENDBRANCH   8  16
ENDBRANCH   3  10
ENDBRANCH   1   3
BRANCH   1  20
ATOM     20  C   UNL     1       0.456  10.624  19.212  0.00  0.00    +0.000 C 
BRANCH  20  21
ATOM     21  C   UNL     1       1.264   9.362  18.996  0.00  0.00    +0.000 A 
ATOM     22  C   UNL     1       1.944   9.103  17.800  0.00  0.00    +0.000 A 
ATOM     23  C   UNL     1       2.699   7.939  17.650  0.00  0.00    +0.000 A 
ATOM     24  C   UNL     1       2.813   7.015  18.694  0.00  0.00    +0.000 A 
ATOM     25  C   UNL     1       2.149   7.276  19.898  0.00  0.00    +0.000 A 
ATOM     26  C   UNL     1       1.389   8.440  20.047  0.00  0.00    +0.000 A 
BRANCH  24  27
ATOM     27  C   UNL     1       3.639   5.793  18.443  0.00  0.00    +0.000 C 
ATOM     28  O   UNL     1       4.813   5.769  18.800  0.00  0.00    +0.000 OA
ATOM     29  N   UNL     1       3.041   4.725  17.812  0.00  0.00    +0.000 N 
ATOM     30  H   UNL     1       2.053   4.702  17.619  0.00  0.00    +0.000 HD
BRANCH  29  31
ATOM     31  C   UNL     1       3.778   3.499  17.554  0.00  0.00    +0.000 C 
BRANCH  31  32
ATOM     32  C   UNL     1       3.756   2.549  18.758  0.00  0.00    +0.000 C 
BRANCH  32  33
ATOM     33  N   UNL     1       4.982   2.664  19.562  0.00  0.00    +0.000 NA
ATOM     34  H   UNL     1       5.114   1.787  20.063  0.00  0.00    +0.000 HD
ATOM     35  H   UNL     1       4.832   3.373  20.279  0.00  0.00    +0.000 HD
ENDBRANCH  32  33
ENDBRANCH  31  32
ENDBRANCH  29  31
ENDBRANCH  24  27
ENDBRANCH  20  21
ENDBRANCH   1  20
TORSDOF 10
ENDMDL
MODEL 2
REMARK VINA RESULT:      -7.5      3.736      4.696
REMARK  Name = 
REMARK  16 active torsions:
REMARK  status: ('A' for Active; 'I' for Inactive)
REMARK    1  A    between atoms: C_1  and  C_2
REMARK    2  A    between atoms: C_2  and  C_3
REMARK    3  A    between atoms: C_2  and  C_4
REMARK    4  A    between atoms: C_2  and  C_5
REMARK    5  A    between atoms: C_7  and  C_8
REMARK    6  A    between atoms: C_8  and  C_9
REMARK    7  A    between atoms: C_8  and  C_10
REMARK    8  A    between atoms: C_8  and  C_11
REMARK    9  A    between atoms: C_13  and  S_14
REMARK   10  A    between atoms: S_14  and  N_17
REMARK   11  A    between atoms: N_17  and  C_18
REMARK   12  A    between atoms: C_18  and  C_19
REMARK   13  A    between atoms: C_22  and  C_23
REMARK   14  A    between atoms: N_25  and  C_26
REMARK   15  A    between atoms: C_26  and  C_27
REMARK   16  A    between atoms: C_27  and  N_28
REMARK                            x       y       z     vdW  Elec       q    Type
REMARK                         _______ _______ _______ _____ _____    ______ ____
ROOT
ATOM      1  N   UNL     1       1.639   8.214  21.538  0.00  0.00    +0.000 NA
ATOM      2  H   UNL     1       2.279   8.149  22.327  0.00  0.00    +0.000 HD
ENDROOT
BRANCH   1   3
ATOM      3  S   UNL     1       0.263   9.081  21.961  0.00  0.00    +0.000 S 
ATOM      4  O   UNL     1       0.586   9.941  23.080  0.00  0.00    +0.000 OA
ATOM      5  O   UNL     1      -0.823   8.130  22.016  0.00  0.00    +0.000 OA
BRANCH   3  10
ATOM      6  C   UNL     1       0.400  12.192  19.354  0.00  0.00    +0.000 A 
ATOM      7  C   UNL     1      -0.617  11.810  18.449  0.00  0.00    +0.000 A 
ATOM      8  C   UNL     1      -1.367  10.621  18.589  0.00  0.00    +0.000 A 
ATOM      9  C   UNL     1      -1.017   9.761  19.636  0.00  0.00    +0.000 A 
ATOM     10  C   UNL     1       0.006  10.103  20.526  0.00  0.00    +0.000 A 
ATOM     11  C   UNL     1       0.712  11.302  20.390  0.00  0.00    +0.000 A 
BRANCH   6  13
ATOM     12  C   UNL     1       1.474  13.993  20.697  0.00  0.00    +0.000 C 
ATOM     13  C   UNL     1       0.996  13.610  19.278  0.00  0.00    +0.000 C 
ATOM     14  C   UNL     1      -0.048  14.640  18.799  0.00  0.00    +0.000 C 
ATOM     15  C   UNL     1       2.214  13.722  18.335  0.00  0.00    +0.000 C 
ENDBRANCH   6  13
BRANCH   8  16
ATOM     16  C   UNL     1      -2.598  10.372  17.697  0.00  0.00    +0.000 C 
ATOM     17  C   UNL     1      -2.169   9.877  16.301  0.00  0.00    +0.000 C 
ATOM     18  C   UNL     1      -3.579   9.329  18.281  0.00  0.00    +0.000 C 
ATOM     19  C   UNL     1      -3.384  11.695  17.544  0.00  0.00    +0.000 C 
ENDBRANCH   8  16
ENDBRANCH   3  10
ENDBRANCH   1   3
BRANCH   1  20
ATOM     20  C   UNL     1       1.438   6.980  20.769  0.00  0.00    +0.000 C 
BRANCH  20  21
ATOM     21  C   UNL     1       2.429   6.805  19.638  0.00  0.00    +0.000 A 
ATOM     22  C   UNL     1       2.550   7.734  18.598  0.00  0.00    +0.000 A 
ATOM     23  C   UNL     1       3.494   7.550  17.587  0.00  0.00    +0.000 A 
ATOM     24  C   UNL     1       4.356   6.448  17.598  0.00  0.00    +0.000 A 
ATOM     25  C   UNL     1       4.251   5.525  18.645  0.00  0.00    +0.000 A 
ATOM     26  C   UNL     1       3.303   5.707  19.655  0.00  0.00    +0.000 A 
BRANCH  24  27
ATOM     27  C   UNL     1       5.333   6.329  16.473  0.00  0.00    +0.000 C 
ATOM     28  O   UNL     1       6.273   7.115  16.396  0.00  0.00    +0.000 OA
ATOM     29  N   UNL     1       5.139   5.325  15.550  0.00  0.00    +0.000 N 
ATOM     30  H   UNL     1       4.437   4.614  15.672  0.00  0.00    +0.000 HD
BRANCH  29  31
ATOM     31  C   UNL     1       6.061   5.137  14.442  0.00  0.00    +0.000 C 
BRANCH  31  32
ATOM     32  C   UNL     1       6.393   3.657  14.211  0.00  0.00    +0.000 C 
BRANCH  32  33
ATOM     33  N   UNL     1       6.186   3.268  12.809  0.00  0.00    +0.000 NA
ATOM     34  H   UNL     1       6.295   4.099  12.231  0.00  0.00    +0.000 HD
ATOM     35  H   UNL     1       5.216   2.976  12.694  0.00  0.00    +0.000 HD
ENDBRANCH  32  33
ENDBRANCH  31  32
ENDBRANCH  29  31
ENDBRANCH  24  27
ENDBRANCH  20  21
ENDBRANCH   1  20
TORSDOF 10
ENDMDL
MODEL 3
REMARK VINA RESULT:      -7.4      1.134      1.672
REMARK  Name = 
REMARK  16 active torsions:
REMARK  status: ('A' for Active; 'I' for Inactive)
REMARK    1  A    between atoms: C_1  and  C_2
REMARK    2  A    between atoms: C_2  and  C_3
REMARK    3  A    between atoms: C_2  and  C_4
REMARK    4  A    between atoms: C_2  and  C_5
REMARK    5  A    between atoms: C_7  and  C_8
REMARK    6  A    between atoms: C_8  and  C_9
REMARK    7  A    between atoms: C_8  and  C_10
REMARK    8  A    between atoms: C_8  and  C_11
REMARK    9  A    between atoms: C_13  and  S_14
REMARK   10  A    between atoms: S_14  and  N_17
REMARK   11  A    between atoms: N_17  and  C_18
REMARK   12  A    between atoms: C_18  and  C_19
REMARK   13  A    between atoms: C_22  and  C_23
REMARK   14  A    between atoms: N_25  and  C_26
REMARK   15  A    between atoms: C_26  and  C_27
REMARK   16  A    between atoms: C_27  and  N_28
REMARK                            x       y       z     vdW  Elec       q    Type
REMARK                         _______ _______ _______ _____ _____    ______ ____
ROOT
ATOM      1  N   UNL     1      -1.016  10.505  18.607  0.00  0.00    +0.000 NA
ATOM      2  H   UNL     1      -1.296   9.631  18.165  0.00  0.00    +0.000 HD
ENDROOT
BRANCH   1   3
ATOM      3  S   UNL     1      -1.823  11.805  17.910  0.00  0.00    +0.000 S 
ATOM      4  O   UNL     1      -2.534  11.332  16.741  0.00  0.00    +0.000 OA
ATOM      5  O   UNL     1      -0.874  12.891  17.842  0.00  0.00    +0.000 OA
BRANCH   3  10
ATOM      6  C   UNL     1      -3.514  12.817  21.461  0.00  0.00    +0.000 A 
ATOM      7  C   UNL     1      -4.877  12.570  21.173  0.00  0.00    +0.000 A 
ATOM      8  C   UNL     1      -5.327  12.100  19.920  0.00  0.00    +0.000 A 
ATOM      9  C   UNL     1      -4.370  11.951  18.909  0.00  0.00    +0.000 A 
ATOM     10  C   UNL     1      -3.021  12.218  19.162  0.00  0.00    +0.000 A 
ATOM     11  C   UNL     1      -2.592  12.648  20.420  0.00  0.00    +0.000 A 
BRANCH   6  13
ATOM     12  C   UNL     1      -4.206  12.580  23.841  0.00  0.00    +0.000 C 
ATOM     13  C   UNL     1      -3.078  13.086  22.914  0.00  0.00    +0.000 C 
ATOM     14  C   UNL     1      -2.847  14.589  23.169  0.00  0.00    +0.000 C 
ATOM     15  C   UNL     1      -1.783  12.349  23.319  0.00  0.00    +0.000 C 
ENDBRANCH   6  13
BRANCH   8  16
ATOM     16  C   UNL     1      -6.789  11.650  19.741  0.00  0.00    +0.000 C 
ATOM     17  C   UNL     1      -6.853  10.221  19.164  0.00  0.00    +0.000 C 
ATOM     18  C   UNL     1      -7.600  11.658  21.057  0.00  0.00    +0.000 C 
ATOM     19  C   UNL     1      -7.499  12.619  18.767  0.00  0.00    +0.000 C 
ENDBRANCH   8  16
ENDBRANCH   3  10
ENDBRANCH   1   3
BRANCH   1  20
ATOM     20  C   UNL     1       0.420  10.670  18.857  0.00  0.00    +0.000 C 
BRANCH  20  21
ATOM     21  C   UNL     1       1.153   9.361  19.057  0.00  0.00    +0.000 A 
ATOM     22  C   UNL     1       1.185   8.702  20.292  0.00  0.00    +0.000 A 
ATOM     23  C   UNL     1       1.850   7.483  20.430  0.00  0.00    +0.000 A 
ATOM     24  C   UNL     1       2.481   6.879  19.337  0.00  0.00    +0.000 A 
ATOM     25  C   UNL     1       2.438   7.525  18.096  0.00  0.00    +0.000 A 
ATOM     26  C   UNL     1       1.775   8.747  17.959  0.00  0.00    +0.000 A 
BRANCH  24  27
ATOM     27  C   UNL     1       3.172   5.575  19.578  0.00  0.00    +0.000 C 
ATOM     28  O   UNL     1       4.399   5.527  19.576  0.00  0.00    +0.000 OA
ATOM     29  N   UNL     1       2.395   4.459  19.795  0.00  0.00    +0.000 N 
ATOM     30  H   UNL     1       1.396   4.517  19.907  0.00  0.00    +0.000 HD
BRANCH  29  31
ATOM     31  C   UNL     1       3.000   3.164  20.056  0.00  0.00    +0.000 C 
BRANCH  31  32
ATOM     32  C   UNL     1       2.804   2.717  21.511  0.00  0.00    +0.000 C 
BRANCH  32  33
ATOM     33  N   UNL     1       1.380   2.583  21.850  0.00  0.00    +0.000 NA
ATOM     34  H   UNL     1       0.842   2.659  20.989  0.00  0.00    +0.000 HD
ATOM     35  H   UNL     1       1.107   3.384  22.418  0.00  0.00    +0.000 HD
ENDBRANCH  32  33
ENDBRANCH  31  32
ENDBRANCH  29  31
ENDBRANCH  24  27
ENDBRANCH  20  21
ENDBRANCH   1  20
TORSDOF 10
ENDMDL
MODEL 4
REMARK VINA RESULT:      -7.4      3.431     10.818
REMARK  Name = 
REMARK  16 active torsions:
REMARK  status: ('A' for Active; 'I' for Inactive)
REMARK    1  A    between atoms: C_1  and  C_2
REMARK    2  A    between atoms: C_2  and  C_3
REMARK    3  A    between atoms: C_2  and  C_4
REMARK    4  A    between atoms: C_2  and  C_5
REMARK    5  A    between atoms: C_7  and  C_8
REMARK    6  A    between atoms: C_8  and  C_9
REMARK    7  A    between atoms: C_8  and  C_10
REMARK    8  A    between atoms: C_8  and  C_11
REMARK    9  A    between atoms: C_13  and  S_14
REMARK   10  A    between atoms: S_14  and  N_17
REMARK   11  A    between atoms: N_17  and  C_18
REMARK   12  A    between atoms: C_18  and  C_19
REMARK   13  A    between atoms: C_22  and  C_23
REMARK   14  A    between atoms: N_25  and  C_26
REMARK   15  A    between atoms: C_26  and  C_27
REMARK   16  A    between atoms: C_27  and  N_28
REMARK                            x       y       z     vdW  Elec       q    Type
REMARK                         _______ _______ _______ _____ _____    ______ ____
ROOT
ATOM      1  N   UNL     1       2.155   8.617  19.806  0.00  0.00    +0.000 NA
ATOM      2  H   UNL     1       2.480   9.545  20.071  0.00  0.00    +0.000 HD
ENDROOT
BRANCH   1   3
ATOM      3  S   UNL     1       2.102   8.464  18.133  0.00  0.00    +0.000 S 
ATOM      4  O   UNL     1       2.899   9.521  17.548  0.00  0.00    +0.000 OA
ATOM      5  O   UNL     1       0.715   8.266  17.782  0.00  0.00    +0.000 OA
BRANCH   3  10
ATOM      6  C   UNL     1       3.057   4.517  18.206  0.00  0.00    +0.000 A 
ATOM      7  C   UNL     1       4.386   4.569  17.725  0.00  0.00    +0.000 A 
ATOM      8  C   UNL     1       5.030   5.773  17.366  0.00  0.00    +0.000 A 
ATOM      9  C   UNL     1       4.272   6.948  17.427  0.00  0.00    +0.000 A 
ATOM     10  C   UNL     1       2.946   6.918  17.870  0.00  0.00    +0.000 A 
ATOM     11  C   UNL     1       2.340   5.720  18.254  0.00  0.00    +0.000 A 
BRANCH   6  13
ATOM     12  C   UNL     1       3.398   2.851  20.025  0.00  0.00    +0.000 C 
ATOM     13  C   UNL     1       2.514   3.208  18.809  0.00  0.00    +0.000 C 
ATOM     14  C   UNL     1       2.561   2.051  17.790  0.00  0.00    +0.000 C 
ATOM     15  C   UNL     1       1.058   3.314  19.312  0.00  0.00    +0.000 C 
ENDBRANCH   6  13
BRANCH   8  16
ATOM     16  C   UNL     1       6.539   5.783  17.057  0.00  0.00    +0.000 C 
ATOM     17  C   UNL     1       7.289   4.792  17.969  0.00  0.00    +0.000 C 
ATOM     18  C   UNL     1       6.868   5.410  15.593  0.00  0.00    +0.000 C 
ATOM     19  C   UNL     1       7.093   7.207  17.295  0.00  0.00    +0.000 C 
ENDBRANCH   8  16
ENDBRANCH   3  10
ENDBRANCH   1   3
BRANCH   1  20
ATOM     20  C   UNL     1       1.009   8.096  20.559  0.00  0.00    +0.000 C 
BRANCH  20  21
ATOM     21  C   UNL     1       0.205   9.173  21.256  0.00  0.00    +0.000 A 
ATOM     22  C   UNL     1      -0.146   9.087  22.609  0.00  0.00    +0.000 A 
ATOM     23  C   UNL     1      -0.866  10.113  23.223  0.00  0.00    +0.000 A 
ATOM     24  C   UNL     1      -1.236  11.259  22.510  0.00  0.00    +0.000 A 
ATOM     25  C   UNL     1      -0.874  11.358  21.161  0.00  0.00    +0.000 A 
ATOM     26  C   UNL     1      -0.156  10.329  20.546  0.00  0.00    +0.000 A 
BRANCH  24  27
ATOM     27  C   UNL     1      -2.010  12.306  23.247  0.00  0.00    +0.000 C 
ATOM     28  O   UNL     1      -1.514  13.413  23.431  0.00  0.00    +0.000 OA
ATOM     29  N   UNL     1      -3.271  11.982  23.697  0.00  0.00    +0.000 N 
ATOM     30  H   UNL     1      -3.721  11.116  23.452  0.00  0.00    +0.000 HD
BRANCH  29  31
ATOM     31  C   UNL     1      -4.087  12.956  24.403  0.00  0.00    +0.000 C 
BRANCH  31  32
ATOM     32  C   UNL     1      -5.054  13.688  23.463  0.00  0.00    +0.000 C 
BRANCH  32  33
ATOM     33  N   UNL     1      -6.113  14.383  24.208  0.00  0.00    +0.000 NA
ATOM     34  H   UNL     1      -6.816  14.696  23.541  0.00  0.00    +0.000 HD
ATOM     35  H   UNL     1      -5.720  15.231  24.614  0.00  0.00    +0.000 HD
ENDBRANCH  32  33
ENDBRANCH  31  32
ENDBRANCH  29  31
ENDBRANCH  24  27
ENDBRANCH  20  21
ENDBRANCH   1  20
TORSDOF 10
ENDMDL
MODEL 5
REMARK VINA RESULT:      -7.4      3.388     10.814
REMARK  Name = 
REMARK  16 active torsions:
REMARK  status: ('A' for Active; 'I' for Inactive)
REMARK    1  A    between atoms: C_1  and  C_2
REMARK    2  A    between atoms: C_2  and  C_3
REMARK    3  A    between atoms: C_2  and  C_4
REMARK    4  A    between atoms: C_2  and  C_5
REMARK    5  A    between atoms: C_7  and  C_8
REMARK    6  A    between atoms: C_8  and  C_9
REMARK    7  A    between atoms: C_8  and  C_10
REMARK    8  A    between atoms: C_8  and  C_11
REMARK    9  A    between atoms: C_13  and  S_14
REMARK   10  A    between atoms: S_14  and  N_17
REMARK   11  A    between atoms: N_17  and  C_18
REMARK   12  A    between atoms: C_18  and  C_19
REMARK   13  A    between atoms: C_22  and  C_23
REMARK   14  A    between atoms: N_25  and  C_26
REMARK   15  A    between atoms: C_26  and  C_27
REMARK   16  A    between atoms: C_27  and  N_28
REMARK                            x       y       z     vdW  Elec       q    Type
REMARK                         _______ _______ _______ _____ _____    ______ ____
ROOT
ATOM      1  N   UNL     1       2.169   8.527  19.768  0.00  0.00    +0.000 NA
ATOM      2  H   UNL     1       2.535   9.430  20.064  0.00  0.00    +0.000 HD
ENDROOT
BRANCH   1   3
ATOM      3  S   UNL     1       2.189   8.401  18.092  0.00  0.00    +0.000 S 
ATOM      4  O   UNL     1       3.008   9.470  17.559  0.00  0.00    +0.000 OA
ATOM      5  O   UNL     1       0.820   8.206  17.677  0.00  0.00    +0.000 OA
BRANCH   3  10
ATOM      6  C   UNL     1       3.180   4.464  18.188  0.00  0.00    +0.000 A 
ATOM      7  C   UNL     1       4.511   4.526  17.715  0.00  0.00    +0.000 A 
ATOM      8  C   UNL     1       5.147   5.734  17.356  0.00  0.00    +0.000 A 
ATOM      9  C   UNL     1       4.378   6.902  17.406  0.00  0.00    +0.000 A 
ATOM     10  C   UNL     1       3.049   6.862  17.841  0.00  0.00    +0.000 A 
ATOM     11  C   UNL     1       2.451   5.660  18.226  0.00  0.00    +0.000 A 
BRANCH   6  13
ATOM     12  C   UNL     1       1.102   3.241  18.811  0.00  0.00    +0.000 C 
ATOM     13  C   UNL     1       2.645   3.152  18.792  0.00  0.00    +0.000 C 
ATOM     14  C   UNL     1       3.159   2.937  20.230  0.00  0.00    +0.000 C 
ATOM     15  C   UNL     1       3.024   1.894  17.979  0.00  0.00    +0.000 C 
ENDBRANCH   6  13
BRANCH   8  16
ATOM     16  C   UNL     1       6.658   5.757  17.056  0.00  0.00    +0.000 C 
ATOM     17  C   UNL     1       6.927   5.394  15.582  0.00  0.00    +0.000 C 
ATOM     18  C   UNL     1       7.317   7.128  17.327  0.00  0.00    +0.000 C 
ATOM     19  C   UNL     1       7.366   4.728  17.967  0.00  0.00    +0.000 C 
ENDBRANCH   8  16
ENDBRANCH   3  10
ENDBRANCH   1   3
BRANCH   1  20
ATOM     20  C   UNL     1       0.958   8.065  20.455  0.00  0.00    +0.000 C 
BRANCH  20  21
ATOM     21  C   UNL     1       0.217   9.169  21.180  0.00  0.00    +0.000 A 
ATOM     22  C   UNL     1      -0.317  10.277  20.510  0.00  0.00    +0.000 A 
ATOM     23  C   UNL     1      -1.017  11.261  21.210  0.00  0.00    +0.000 A 
ATOM     24  C   UNL     1      -1.221  11.155  22.590  0.00  0.00    +0.000 A 
ATOM     25  C   UNL     1      -0.704  10.041  23.262  0.00  0.00    +0.000 A 
ATOM     26  C   UNL     1      -0.000   9.058  22.562  0.00  0.00    +0.000 A 
BRANCH  24  27
ATOM     27  C   UNL     1      -1.979  12.258  23.259  0.00  0.00    +0.000 C 
ATOM     28  O   UNL     1      -1.453  13.357  23.403  0.00  0.00    +0.000 OA
ATOM     29  N   UNL     1      -3.258  11.993  23.694  0.00  0.00    +0.000 N 
ATOM     30  H   UNL     1      -3.729  11.130  23.479  0.00  0.00    +0.000 HD
BRANCH  29  31
ATOM     31  C   UNL     1      -4.059  13.023  24.334  0.00  0.00    +0.000 C 
BRANCH  31  32
ATOM     32  C   UNL     1      -5.241  13.463  23.460  0.00  0.00    +0.000 C 
BRANCH  32  33
ATOM     33  N   UNL     1      -6.399  13.859  24.273  0.00  0.00    +0.000 NA
ATOM     34  H   UNL     1      -7.021  13.056  24.349  0.00  0.00    +0.000 HD
ATOM     35  H   UNL     1      -6.924  14.568  23.764  0.00  0.00    +0.000 HD
ENDBRANCH  32  33
ENDBRANCH  31  32
ENDBRANCH  29  31
ENDBRANCH  24  27
ENDBRANCH  20  21
ENDBRANCH   1  20
TORSDOF 10
ENDMDL
MODEL 6
REMARK VINA RESULT:      -7.3      3.146     10.371
REMARK  Name = 
REMARK  16 active torsions:
REMARK  status: ('A' for Active; 'I' for Inactive)
REMARK    1  A    between atoms: C_1  and  C_2
REMARK    2  A    between atoms: C_2  and  C_3
REMARK    3  A    between atoms: C_2  and  C_4
REMARK    4  A    between atoms: C_2  and  C_5
REMARK    5  A    between atoms: C_7  and  C_8
REMARK    6  A    between atoms: C_8  and  C_9
REMARK    7  A    between atoms: C_8  and  C_10
REMARK    8  A    between atoms: C_8  and  C_11
REMARK    9  A    between atoms: C_13  and  S_14
REMARK   10  A    between atoms: S_14  and  N_17
REMARK   11  A    between atoms: N_17  and  C_18
REMARK   12  A    between atoms: C_18  and  C_19
REMARK   13  A    between atoms: C_22  and  C_23
REMARK   14  A    between atoms: N_25  and  C_26
REMARK   15  A    between atoms: C_26  and  C_27
REMARK   16  A    between atoms: C_27  and  N_28
REMARK                            x       y       z     vdW  Elec       q    Type
REMARK                         _______ _______ _______ _____ _____    ______ ____
ROOT
ATOM      1  N   UNL     1       1.155   9.536  19.727  0.00  0.00    +0.000 NA
ATOM      2  H   UNL     1       1.646   8.919  20.372  0.00  0.00    +0.000 HD
ENDROOT
BRANCH   1   3
ATOM      3  S   UNL     1       1.584   9.193  18.138  0.00  0.00    +0.000 S 
ATOM      4  O   UNL     1       2.451  10.248  17.657  0.00  0.00    +0.000 OA
ATOM      5  O   UNL     1       0.366   8.830  17.452  0.00  0.00    +0.000 OA
BRANCH   3  10
ATOM      6  C   UNL     1       4.520   6.417  17.726  0.00  0.00    +0.000 A 
ATOM      7  C   UNL     1       3.917   5.313  18.371  0.00  0.00    +0.000 A 
ATOM      8  C   UNL     1       2.628   5.365  18.946  0.00  0.00    +0.000 A 
ATOM      9  C   UNL     1       1.967   6.598  18.928  0.00  0.00    +0.000 A 
ATOM     10  C   UNL     1       2.556   7.712  18.322  0.00  0.00    +0.000 A 
ATOM     11  C   UNL     1       3.818   7.630  17.729  0.00  0.00    +0.000 A 
BRANCH   6  13
ATOM     12  C   UNL     1       5.431   6.249  15.415  0.00  0.00    +0.000 C 
ATOM     13  C   UNL     1       5.811   6.214  16.912  0.00  0.00    +0.000 C 
ATOM     14  C   UNL     1       6.479   4.861  17.234  0.00  0.00    +0.000 C 
ATOM     15  C   UNL     1       6.871   7.313  17.145  0.00  0.00    +0.000 C 
ENDBRANCH   6  13
BRANCH   8  16
ATOM     16  C   UNL     1       1.947   4.074  19.440  0.00  0.00    +0.000 C 
ATOM     17  C   UNL     1       0.950   4.383  20.574  0.00  0.00    +0.000 C 
ATOM     18  C   UNL     1       1.174   3.324  18.331  0.00  0.00    +0.000 C 
ATOM     19  C   UNL     1       3.030   3.105  19.969  0.00  0.00    +0.000 C 
ENDBRANCH   8  16
ENDBRANCH   3  10
ENDBRANCH   1   3
BRANCH   1  20
ATOM     20  C   UNL     1       1.094  10.951  20.109  0.00  0.00    +0.000 C 
BRANCH  20  21
ATOM     21  C   UNL     1      -0.150  11.311  20.893  0.00  0.00    +0.000 A 
ATOM     22  C   UNL     1      -0.344  10.902  22.218  0.00  0.00    +0.000 A 
ATOM     23  C   UNL     1      -1.493  11.277  22.917  0.00  0.00    +0.000 A 
ATOM     24  C   UNL     1      -2.466  12.086  22.320  0.00  0.00    +0.000 A 
ATOM     25  C   UNL     1      -2.269  12.512  21.001  0.00  0.00    +0.000 A 
ATOM     26  C   UNL     1      -1.121  12.133  20.301  0.00  0.00    +0.000 A 
BRANCH  24  27
ATOM     27  C   UNL     1      -3.667  12.435  23.141  0.00  0.00    +0.000 C 
ATOM     28  O   UNL     1      -3.848  11.881  24.221  0.00  0.00    +0.000 OA
ATOM     29  N   UNL     1      -4.537  13.380  22.646  0.00  0.00    +0.000 N 
ATOM     30  H   UNL     1      -4.334  13.914  21.817  0.00  0.00    +0.000 HD
BRANCH  29  31
ATOM     31  C   UNL     1      -5.714  13.783  23.399  0.00  0.00    +0.000 C 
BRANCH  31  32
ATOM     32  C   UNL     1      -6.946  12.943  23.038  0.00  0.00    +0.000 C 
BRANCH  32  33
ATOM     33  N   UNL     1      -7.163  11.856  24.004  0.00  0.00    +0.000 NA
ATOM     34  H   UNL     1      -7.469  12.271  24.882  0.00  0.00    +0.000 HD
ATOM     35  H   UNL     1      -6.265  11.417  24.204  0.00  0.00    +0.000 HD
ENDBRANCH  32  33
ENDBRANCH  31  32
ENDBRANCH  29  31
ENDBRANCH  24  27
ENDBRANCH  20  21
ENDBRANCH   1  20
TORSDOF 10
ENDMDL
MODEL 7
REMARK VINA RESULT:      -7.3      0.919      1.536
REMARK  Name = 
REMARK  16 active torsions:
REMARK  status: ('A' for Active; 'I' for Inactive)
REMARK    1  A    between atoms: C_1  and  C_2
REMARK    2  A    between atoms: C_2  and  C_3
REMARK    3  A    between atoms: C_2  and  C_4
REMARK    4  A    between atoms: C_2  and  C_5
REMARK    5  A    between atoms: C_7  and  C_8
REMARK    6  A    between atoms: C_8  and  C_9
REMARK    7  A    between atoms: C_8  and  C_10
REMARK    8  A    between atoms: C_8  and  C_11
REMARK    9  A    between atoms: C_13  and  S_14
REMARK   10  A    between atoms: S_14  and  N_17
REMARK   11  A    between atoms: N_17  and  C_18
REMARK   12  A    between atoms: C_18  and  C_19
REMARK   13  A    between atoms: C_22  and  C_23
REMARK   14  A    between atoms: N_25  and  C_26
REMARK   15  A    between atoms: C_26  and  C_27
REMARK   16  A    between atoms: C_27  and  N_28
REMARK                            x       y       z     vdW  Elec       q    Type
REMARK                         _______ _______ _______ _____ _____    ______ ____
ROOT
ATOM      1  N   UNL     1      -0.519  10.910  19.158  0.00  0.00    +0.000 NA
ATOM      2  H   UNL     1      -1.000  10.076  19.490  0.00  0.00    +0.000 HD
ENDROOT
BRANCH   1   3
ATOM      3  S   UNL     1      -1.531  11.829  18.181  0.00  0.00    +0.000 S 
ATOM      4  O   UNL     1      -2.051  10.981  17.129  0.00  0.00    +0.000 OA
ATOM      5  O   UNL     1      -0.827  13.057  17.897  0.00  0.00    +0.000 OA
BRANCH   3  10
ATOM      6  C   UNL     1      -3.630  12.759  21.532  0.00  0.00    +0.000 A 
ATOM      7  C   UNL     1      -4.950  12.544  21.072  0.00  0.00    +0.000 A 
ATOM      8  C   UNL     1      -5.250  12.121  19.758  0.00  0.00    +0.000 A 
ATOM      9  C   UNL     1      -4.179  11.987  18.868  0.00  0.00    +0.000 A 
ATOM     10  C   UNL     1      -2.868  12.224  19.291  0.00  0.00    +0.000 A 
ATOM     11  C   UNL     1      -2.590  12.607  20.605  0.00  0.00    +0.000 A 
BRANCH   6  13
ATOM     12  C   UNL     1      -2.342  11.916  23.488  0.00  0.00    +0.000 C 
ATOM     13  C   UNL     1      -3.372  12.975  23.035  0.00  0.00    +0.000 C 
ATOM     14  C   UNL     1      -4.663  12.814  23.862  0.00  0.00    +0.000 C 
ATOM     15  C   UNL     1      -2.784  14.364  23.370  0.00  0.00    +0.000 C 
ENDBRANCH   6  13
BRANCH   8  16
ATOM     16  C   UNL     1      -6.685  11.701  19.388  0.00  0.00    +0.000 C 
ATOM     17  C   UNL     1      -7.269  12.641  18.314  0.00  0.00    +0.000 C 
ATOM     18  C   UNL     1      -6.782  10.256  18.846  0.00  0.00    +0.000 C 
ATOM     19  C   UNL     1      -7.572  11.768  20.653  0.00  0.00    +0.000 C 
ENDBRANCH   8  16
ENDBRANCH   3  10
ENDBRANCH   1   3
BRANCH   1  20
ATOM     20  C   UNL     1       0.859  10.716  18.692  0.00  0.00    +0.000 C 
BRANCH  20  21
ATOM     21  C   UNL     1       1.402   9.331  18.973  0.00  0.00    +0.000 A 
ATOM     22  C   UNL     1       1.282   8.720  20.227  0.00  0.00    +0.000 A 
ATOM     23  C   UNL     1       1.773   7.431  20.439  0.00  0.00    +0.000 A 
ATOM     24  C   UNL     1       2.377   6.711  19.403  0.00  0.00    +0.000 A 
ATOM     25  C   UNL     1       2.485   7.310  18.142  0.00  0.00    +0.000 A 
ATOM     26  C   UNL     1       1.997   8.603  17.931  0.00  0.00    +0.000 A 
BRANCH  24  27
ATOM     27  C   UNL     1       2.878   5.338  19.721  0.00  0.00    +0.000 C 
ATOM     28  O   UNL     1       2.702   4.870  20.842  0.00  0.00    +0.000 OA
ATOM     29  N   UNL     1       3.530   4.640  18.728  0.00  0.00    +0.000 N 
ATOM     30  H   UNL     1       3.577   4.976  17.781  0.00  0.00    +0.000 HD
BRANCH  29  31
ATOM     31  C   UNL     1       4.026   3.294  18.961  0.00  0.00    +0.000 C 
BRANCH  31  32
ATOM     32  C   UNL     1       3.360   2.265  18.038  0.00  0.00    +0.000 C 
BRANCH  32  33
ATOM     33  N   UNL     1       2.251   2.858  17.276  0.00  0.00    +0.000 NA
ATOM     34  H   UNL     1       1.491   2.181  17.246  0.00  0.00    +0.000 HD
ATOM     35  H   UNL     1       2.551   2.980  16.310  0.00  0.00    +0.000 HD
ENDBRANCH  32  33
ENDBRANCH  31  32
ENDBRANCH  29  31
ENDBRANCH  24  27
ENDBRANCH  20  21
ENDBRANCH   1  20
TORSDOF 10
ENDMDL
MODEL 8
REMARK VINA RESULT:      -7.3      3.408     10.757
REMARK  Name = 
REMARK  16 active torsions:
REMARK  status: ('A' for Active; 'I' for Inactive)
REMARK    1  A    between atoms: C_1  and  C_2
REMARK    2  A    between atoms: C_2  and  C_3
REMARK    3  A    between atoms: C_2  and  C_4
REMARK    4  A    between atoms: C_2  and  C_5
REMARK    5  A    between atoms: C_7  and  C_8
REMARK    6  A    between atoms: C_8  and  C_9
REMARK    7  A    between atoms: C_8  and  C_10
REMARK    8  A    between atoms: C_8  and  C_11
REMARK    9  A    between atoms: C_13  and  S_14
REMARK   10  A    between atoms: S_14  and  N_17
REMARK   11  A    between atoms: N_17  and  C_18
REMARK   12  A    between atoms: C_18  and  C_19
REMARK   13  A    between atoms: C_22  and  C_23
REMARK   14  A    between atoms: N_25  and  C_26
REMARK   15  A    between atoms: C_26  and  C_27
REMARK   16  A    between atoms: C_27  and  N_28
REMARK                            x       y       z     vdW  Elec       q    Type
REMARK                         _______ _______ _______ _____ _____    ______ ____
ROOT
ATOM      1  N   UNL     1       2.129   8.818  19.731  0.00  0.00    +0.000 NA
ATOM      2  H   UNL     1       2.375   9.794  19.881  0.00  0.00    +0.000 HD
ENDROOT
BRANCH   1   3
ATOM      3  S   UNL     1       2.099   8.460  18.089  0.00  0.00    +0.000 S 
ATOM      4  O   UNL     1       2.867   9.465  17.385  0.00  0.00    +0.000 OA
ATOM      5  O   UNL     1       0.724   8.174  17.755  0.00  0.00    +0.000 OA
BRANCH   3  10
ATOM      6  C   UNL     1       3.082   4.536  18.447  0.00  0.00    +0.000 A 
ATOM      7  C   UNL     1       4.472   4.599  18.199  0.00  0.00    +0.000 A 
ATOM      8  C   UNL     1       5.152   5.805  17.918  0.00  0.00    +0.000 A 
ATOM      9  C   UNL     1       4.379   6.966  17.812  0.00  0.00    +0.000 A 
ATOM     10  C   UNL     1       2.997   6.924  18.023  0.00  0.00    +0.000 A 
ATOM     11  C   UNL     1       2.350   5.725  18.334  0.00  0.00    +0.000 A 
BRANCH   6  13
ATOM     12  C   UNL     1       2.431   2.214  17.828  0.00  0.00    +0.000 C 
ATOM     13  C   UNL     1       2.461   3.234  18.988  0.00  0.00    +0.000 C 
ATOM     14  C   UNL     1       1.025   3.460  19.503  0.00  0.00    +0.000 C 
ATOM     15  C   UNL     1       3.266   2.596  20.142  0.00  0.00    +0.000 C 
ENDBRANCH   6  13
BRANCH   8  16
ATOM     16  C   UNL     1       6.691   5.834  17.872  0.00  0.00    +0.000 C 
ATOM     17  C   UNL     1       7.283   5.683  19.287  0.00  0.00    +0.000 C 
ATOM     18  C   UNL     1       7.300   4.719  16.991  0.00  0.00    +0.000 C 
ATOM     19  C   UNL     1       7.151   7.183  17.273  0.00  0.00    +0.000 C 
ENDBRANCH   8  16
ENDBRANCH   3  10
ENDBRANCH   1   3
BRANCH   1  20
ATOM     20  C   UNL     1       1.024   8.300  20.545  0.00  0.00    +0.000 C 
BRANCH  20  21
ATOM     21  C   UNL     1       0.209   9.384  21.218  0.00  0.00    +0.000 A 
ATOM     22  C   UNL     1      -0.274  10.498  20.521  0.00  0.00    +0.000 A 
ATOM     23  C   UNL     1      -1.044  11.464  21.172  0.00  0.00    +0.000 A 
ATOM     24  C   UNL     1      -1.370  11.333  22.526  0.00  0.00    +0.000 A 
ATOM     25  C   UNL     1      -0.904  10.212  23.223  0.00  0.00    +0.000 A 
ATOM     26  C   UNL     1      -0.129   9.247  22.573  0.00  0.00    +0.000 A 
BRANCH  24  27
ATOM     27  C   UNL     1      -2.196  12.417  23.142  0.00  0.00    +0.000 C 
ATOM     28  O   UNL     1      -1.876  13.591  22.983  0.00  0.00    +0.000 OA
ATOM     29  N   UNL     1      -3.302  12.050  23.876  0.00  0.00    +0.000 N 
ATOM     30  H   UNL     1      -3.628  11.099  23.915  0.00  0.00    +0.000 HD
BRANCH  29  31
ATOM     31  C   UNL     1      -4.161  13.052  24.486  0.00  0.00    +0.000 C 
BRANCH  31  32
ATOM     32  C   UNL     1      -5.417  13.324  23.648  0.00  0.00    +0.000 C 
BRANCH  32  33
ATOM     33  N   UNL     1      -6.644  13.004  24.391  0.00  0.00    +0.000 NA
ATOM     34  H   UNL     1      -7.298  12.564  23.746  0.00  0.00    +0.000 HD
ATOM     35  H   UNL     1      -7.085  13.877  24.678  0.00  0.00    +0.000 HD
ENDBRANCH  32  33
ENDBRANCH  31  32
ENDBRANCH  29  31
ENDBRANCH  24  27
ENDBRANCH  20  21
ENDBRANCH   1  20
TORSDOF 10
ENDMDL
MODEL 9
REMARK VINA RESULT:      -7.3      0.692      1.638
REMARK  Name = 
REMARK  16 active torsions:
REMARK  status: ('A' for Active; 'I' for Inactive)
REMARK    1  A    between atoms: C_1  and  C_2
REMARK    2  A    between atoms: C_2  and  C_3
REMARK    3  A    between atoms: C_2  and  C_4
REMARK    4  A    between atoms: C_2  and  C_5
REMARK    5  A    between atoms: C_7  and  C_8
REMARK    6  A    between atoms: C_8  and  C_9
REMARK    7  A    between atoms: C_8  and  C_10
REMARK    8  A    between atoms: C_8  and  C_11
REMARK    9  A    between atoms: C_13  and  S_14
REMARK   10  A    between atoms: S_14  and  N_17
REMARK   11  A    between atoms: N_17  and  C_18
REMARK   12  A    between atoms: C_18  and  C_19
REMARK   13  A    between atoms: C_22  and  C_23
REMARK   14  A    between atoms: N_25  and  C_26
REMARK   15  A    between atoms: C_26  and  C_27
REMARK   16  A    between atoms: C_27  and  N_28
REMARK                            x       y       z     vdW  Elec       q    Type
REMARK                         _______ _______ _______ _____ _____    ______ ____
ROOT
ATOM      1  N   UNL     1      -1.003  10.536  19.169  0.00  0.00    +0.000 NA
ATOM      2  H   UNL     1      -1.294   9.625  18.820  0.00  0.00    +0.000 HD
ENDROOT
BRANCH   1   3
ATOM      3  S   UNL     1      -1.736  11.768  18.293  0.00  0.00    +0.000 S 
ATOM      4  O   UNL     1      -2.303  11.201  17.087  0.00  0.00    +0.000 OA
ATOM      5  O   UNL     1      -0.796  12.864  18.255  0.00  0.00    +0.000 OA
BRANCH   3  10
ATOM      6  C   UNL     1      -3.850  12.900  21.571  0.00  0.00    +0.000 A 
ATOM      7  C   UNL     1      -5.169  12.704  21.102  0.00  0.00    +0.000 A 
ATOM      8  C   UNL     1      -5.465  12.233  19.804  0.00  0.00    +0.000 A 
ATOM      9  C   UNL     1      -4.387  12.031  18.935  0.00  0.00    +0.000 A 
ATOM     10  C   UNL     1      -3.075  12.248  19.366  0.00  0.00    +0.000 A 
ATOM     11  C   UNL     1      -2.803  12.679  20.667  0.00  0.00    +0.000 A 
BRANCH   6  13
ATOM     12  C   UNL     1      -2.498  12.204  23.543  0.00  0.00    +0.000 C 
ATOM     13  C   UNL     1      -3.604  13.173  23.067  0.00  0.00    +0.000 C 
ATOM     14  C   UNL     1      -4.878  12.940  23.904  0.00  0.00    +0.000 C 
ATOM     15  C   UNL     1      -3.118  14.609  23.364  0.00  0.00    +0.000 C 
ENDBRANCH   6  13
BRANCH   8  16
ATOM     16  C   UNL     1      -6.907  11.839  19.432  0.00  0.00    +0.000 C 
ATOM     17  C   UNL     1      -7.710  11.458  20.692  0.00  0.00    +0.000 C 
ATOM     18  C   UNL     1      -7.683  12.961  18.706  0.00  0.00    +0.000 C 
ATOM     19  C   UNL     1      -6.866  10.625  18.475  0.00  0.00    +0.000 C 
ENDBRANCH   8  16
ENDBRANCH   3  10
ENDBRANCH   1   3
BRANCH   1  20
ATOM     20  C   UNL     1       0.427  10.688  19.461  0.00  0.00    +0.000 C 
BRANCH  20  21
ATOM     21  C   UNL     1       1.216   9.406  19.297  0.00  0.00    +0.000 A 
ATOM     22  C   UNL     1       1.306   8.447  20.312  0.00  0.00    +0.000 A 
ATOM     23  C   UNL     1       2.022   7.265  20.113  0.00  0.00    +0.000 A 
ATOM     24  C   UNL     1       2.648   7.001  18.890  0.00  0.00    +0.000 A 
ATOM     25  C   UNL     1       2.548   7.949  17.865  0.00  0.00    +0.000 A 
ATOM     26  C   UNL     1       1.834   9.133  18.066  0.00  0.00    +0.000 A 
BRANCH  24  27
ATOM     27  C   UNL     1       3.397   5.713  18.767  0.00  0.00    +0.000 C 
ATOM     28  O   UNL     1       4.504   5.600  19.284  0.00  0.00    +0.000 OA
ATOM     29  N   UNL     1       2.807   4.685  18.065  0.00  0.00    +0.000 N 
ATOM     30  H   UNL     1       1.857   4.737  17.736  0.00  0.00    +0.000 HD
BRANCH  29  31
ATOM     31  C   UNL     1       3.469   3.399  17.922  0.00  0.00    +0.000 C 
BRANCH  31  32
ATOM     32  C   UNL     1       2.466   2.246  17.781  0.00  0.00    +0.000 C 
BRANCH  32  33
ATOM     33  N   UNL     1       1.166   2.582  18.378  0.00  0.00    +0.000 NA
ATOM     34  H   UNL     1       1.297   2.686  19.382  0.00  0.00    +0.000 HD
ATOM     35  H   UNL     1       0.541   1.786  18.262  0.00  0.00    +0.000 HD
ENDBRANCH  32  33
ENDBRANCH  31  32
ENDBRANCH  29  31
ENDBRANCH  24  27
ENDBRANCH  20  21
ENDBRANCH   1  20
TORSDOF 10
ENDMDL
