MODEL 1
REMARK VINA RESULT:      -7.1      0.000      0.000
REMARK  Name = 
REMARK  1 active torsions:
REMARK  status: ('A' for Active; 'I' for Inactive)
REMARK    1  A    between atoms: C_5  and  C_6
REMARK                            x       y       z     vdW  Elec       q    Type
REMARK                         _______ _______ _______ _____ _____    ______ ____
ROOT
ATOM      1  N   UNL     1       1.462   2.452  22.236  0.00  0.00    +0.000 N 
ATOM      2  C   UNL     1       2.199   3.164  21.293  0.00  0.00    +0.000 A 
ATOM      3  C   UNL     1       2.020   4.526  21.076  0.00  0.00    +0.000 A 
ATOM      4  N   UNL     1       2.750   5.248  20.185  0.00  0.00    +0.000 NA
ATOM      5  C   UNL     1       3.696   4.558  19.494  0.00  0.00    +0.000 A 
ATOM      6  C   UNL     1       3.877   3.195  19.737  0.00  0.00    +0.000 A 
ATOM      7  N   UNL     1       3.142   2.479  20.632  0.00  0.00    +0.000 NA
ATOM      8  H   UNL     1       0.464   2.564  22.106  0.00  0.00    +0.000 HD
ATOM      9  H   UNL     1       1.748   1.478  22.156  0.00  0.00    +0.000 HD
ENDROOT
BRANCH   5  10
ATOM     10  C   UNL     1       4.511   5.323  18.525  0.00  0.00    +0.000 A 
ATOM     11  C   UNL     1       3.949   5.779  17.380  0.00  0.00    +0.000 A 
ATOM     12  C   UNL     1       4.743   6.544  16.432  0.00  0.00    +0.000 A 
ATOM     13  C   UNL     1       6.040   6.814  16.654  0.00  0.00    +0.000 A 
ATOM     14  C   UNL     1       6.657   6.335  17.842  0.00  0.00    +0.000 A 
ATOM     15  C   UNL     1       7.926   6.420  18.360  0.00  0.00    +0.000 A 
ATOM     16  C   UNL     1       7.859   5.719  19.570  0.00  0.00    +0.000 A 
ATOM     17  N   UNL     1       6.648   5.223  19.814  0.00  0.00    +0.000 NA
ATOM     18  N   UNL     1       5.878   5.599  18.749  0.00  0.00    +0.000 N 
ENDBRANCH   5  10
TORSDOF 1
ENDMDL
MODEL 2
REMARK VINA RESULT:      -7.1      1.731      5.577
REMARK  Name = 
REMARK  1 active torsions:
REMARK  status: ('A' for Active; 'I' for Inactive)
REMARK    1  A    between atoms: C_5  and  C_6
REMARK                            x       y       z     vdW  Elec       q    Type
REMARK                         _______ _______ _______ _____ _____    ______ ____
ROOT
ATOM      1  N   UNL     1       7.843   7.896  17.213  0.00  0.00    +0.000 N 
ATOM      2  C   UNL     1       6.855   6.943  17.445  0.00  0.00    +0.000 A 
ATOM      3  C   UNL     1       6.961   5.982  18.445  0.00  0.00    +0.000 A 
ATOM      4  N   UNL     1       5.995   5.063  18.711  0.00  0.00    +0.000 NA
ATOM      5  C   UNL     1       4.883   5.127  17.932  0.00  0.00    +0.000 A 
ATOM      6  C   UNL     1       4.783   6.109  16.945  0.00  0.00    +0.000 A 
ATOM      7  N   UNL     1       5.755   7.027  16.685  0.00  0.00    +0.000 NA
ATOM      8  H   UNL     1       8.754   7.476  17.073  0.00  0.00    +0.000 HD
ATOM      9  H   UNL     1       7.545   8.435  16.402  0.00  0.00    +0.000 HD
ENDROOT
BRANCH   5  10
ATOM     10  C   UNL     1       3.813   4.144  18.209  0.00  0.00    +0.000 A 
ATOM     11  C   UNL     1       3.770   2.979  17.520  0.00  0.00    +0.000 A 
ATOM     12  C   UNL     1       2.729   2.003  17.798  0.00  0.00    +0.000 A 
ATOM     13  C   UNL     1       1.785   2.226  18.729  0.00  0.00    +0.000 A 
ATOM     14  C   UNL     1       1.800   3.447  19.456  0.00  0.00    +0.000 A 
ATOM     15  C   UNL     1       1.004   3.982  20.440  0.00  0.00    +0.000 A 
ATOM     16  C   UNL     1       1.575   5.231  20.712  0.00  0.00    +0.000 A 
ATOM     17  N   UNL     1       2.649   5.483  19.968  0.00  0.00    +0.000 NA
ATOM     18  N   UNL     1       2.812   4.379  19.178  0.00  0.00    +0.000 N 
ENDBRANCH   5  10
TORSDOF 1
ENDMDL
MODEL 3
REMARK VINA RESULT:      -7.0      1.725      5.532
REMARK  Name = 
REMARK  1 active torsions:
REMARK  status: ('A' for Active; 'I' for Inactive)
REMARK    1  A    between atoms: C_5  and  C_6
REMARK                            x       y       z     vdW  Elec       q    Type
REMARK                         _______ _______ _______ _____ _____    ______ ____
ROOT
ATOM      1  N   UNL     1       7.806   7.837  17.141  0.00  0.00    +0.000 N 
ATOM      2  C   UNL     1       6.802   6.920  17.441  0.00  0.00    +0.000 A 
ATOM      3  C   UNL     1       5.630   6.823  16.697  0.00  0.00    +0.000 A 
ATOM      4  N   UNL     1       4.652   5.914  16.951  0.00  0.00    +0.000 NA
ATOM      5  C   UNL     1       4.876   5.075  17.997  0.00  0.00    +0.000 A 
ATOM      6  C   UNL     1       6.065   5.172  18.722  0.00  0.00    +0.000 A 
ATOM      7  N   UNL     1       7.042   6.085  18.460  0.00  0.00    +0.000 NA
ATOM      8  H   UNL     1       7.455   8.786  17.088  0.00  0.00    +0.000 HD
ATOM      9  H   UNL     1       8.518   7.737  17.862  0.00  0.00    +0.000 HD
ENDROOT
BRANCH   5  10
ATOM     10  C   UNL     1       3.831   4.070  18.287  0.00  0.00    +0.000 A 
ATOM     11  C   UNL     1       3.824   2.888  17.624  0.00  0.00    +0.000 A 
ATOM     12  C   UNL     1       2.807   1.892  17.916  0.00  0.00    +0.000 A 
ATOM     13  C   UNL     1       1.850   2.110  18.834  0.00  0.00    +0.000 A 
ATOM     14  C   UNL     1       1.826   3.347  19.534  0.00  0.00    +0.000 A 
ATOM     15  C   UNL     1       1.008   3.882  20.499  0.00  0.00    +0.000 A 
ATOM     16  C   UNL     1       1.544   5.152  20.747  0.00  0.00    +0.000 A 
ATOM     17  N   UNL     1       2.617   5.415  20.006  0.00  0.00    +0.000 NA
ATOM     18  N   UNL     1       2.816   4.299  19.242  0.00  0.00    +0.000 N 
ENDBRANCH   5  10
TORSDOF 1
ENDMDL
MODEL 4
REMARK VINA RESULT:      -7.0      2.185      5.576
REMARK  Name = 
REMARK  1 active torsions:
REMARK  status: ('A' for Active; 'I' for Inactive)
REMARK    1  A    between atoms: C_5  and  C_6
REMARK                            x       y       z     vdW  Elec       q    Type
REMARK                         _______ _______ _______ _____ _____    ______ ____
ROOT
ATOM      1  N   UNL     1       7.711   5.269  14.507  0.00  0.00    +0.000 N 
ATOM      2  C   UNL     1       6.849   5.004  15.568  0.00  0.00    +0.000 A 
ATOM      3  C   UNL     1       5.503   4.704  15.382  0.00  0.00    +0.000 A 
ATOM      4  N   UNL     1       4.651   4.410  16.399  0.00  0.00    +0.000 NA
ATOM      5  C   UNL     1       5.189   4.418  17.647  0.00  0.00    +0.000 A 
ATOM      6  C   UNL     1       6.546   4.701  17.816  0.00  0.00    +0.000 A 
ATOM      7  N   UNL     1       7.394   4.995  16.791  0.00  0.00    +0.000 NA
ATOM      8  H   UNL     1       7.362   6.007  13.906  0.00  0.00    +0.000 HD
ATOM      9  H   UNL     1       8.612   5.507  14.916  0.00  0.00    +0.000 HD
ENDROOT
BRANCH   5  10
ATOM     10  C   UNL     1       4.285   4.090  18.771  0.00  0.00    +0.000 A 
ATOM     11  C   UNL     1       4.291   2.845  19.304  0.00  0.00    +0.000 A 
ATOM     12  C   UNL     1       3.414   2.523  20.417  0.00  0.00    +0.000 A 
ATOM     13  C   UNL     1       2.576   3.434  20.941  0.00  0.00    +0.000 A 
ATOM     14  C   UNL     1       2.540   4.743  20.390  0.00  0.00    +0.000 A 
ATOM     15  C   UNL     1       1.817   5.877  20.671  0.00  0.00    +0.000 A 
ATOM     16  C   UNL     1       2.269   6.820  19.740  0.00  0.00    +0.000 A 
ATOM     17  N   UNL     1       3.204   6.337  18.926  0.00  0.00    +0.000 NA
ATOM     18  N   UNL     1       3.393   5.041  19.316  0.00  0.00    +0.000 N 
ENDBRANCH   5  10
TORSDOF 1
ENDMDL
MODEL 5
REMARK VINA RESULT:      -7.0      1.006      1.006
REMARK  Name = 
REMARK  1 active torsions:
REMARK  status: ('A' for Active; 'I' for Inactive)
REMARK    1  A    between atoms: C_5  and  C_6
REMARK                            x       y       z     vdW  Elec       q    Type
REMARK                         _______ _______ _______ _____ _____    ______ ____
ROOT
ATOM      1  N   UNL     1       1.282   2.573  22.311  0.00  0.00    +0.000 N 
ATOM      2  C   UNL     1       2.091   2.993  21.259  0.00  0.00    +0.000 A 
ATOM      3  C   UNL     1       1.876   4.188  20.579  0.00  0.00    +0.000 A 
ATOM      4  N   UNL     1       2.672   4.634  19.571  0.00  0.00    +0.000 NA
ATOM      5  C   UNL     1       3.724   3.836  19.248  0.00  0.00    +0.000 A 
ATOM      6  C   UNL     1       3.938   2.650  19.952  0.00  0.00    +0.000 A 
ATOM      7  N   UNL     1       3.137   2.210  20.961  0.00  0.00    +0.000 NA
ATOM      8  H   UNL     1       0.302   2.552  22.055  0.00  0.00    +0.000 HD
ATOM      9  H   UNL     1       1.621   1.655  22.592  0.00  0.00    +0.000 HD
ENDROOT
BRANCH   5  10
ATOM     10  C   UNL     1       4.611   4.305  18.161  0.00  0.00    +0.000 A 
ATOM     11  C   UNL     1       4.255   4.116  16.868  0.00  0.00    +0.000 A 
ATOM     12  C   UNL     1       5.117   4.588  15.796  0.00  0.00    +0.000 A 
ATOM     13  C   UNL     1       6.281   5.210  16.050  0.00  0.00    +0.000 A 
ATOM     14  C   UNL     1       6.684   5.408  17.399  0.00  0.00    +0.000 A 
ATOM     15  C   UNL     1       7.782   5.982  17.992  0.00  0.00    +0.000 A 
ATOM     16  C   UNL     1       7.553   5.838  19.366  0.00  0.00    +0.000 A 
ATOM     17  N   UNL     1       6.405   5.223  19.638  0.00  0.00    +0.000 NA
ATOM     18  N   UNL     1       5.841   4.949  18.423  0.00  0.00    +0.000 N 
ENDBRANCH   5  10
TORSDOF 1
ENDMDL
MODEL 6
REMARK VINA RESULT:      -6.9      1.008      1.431
REMARK  Name = 
REMARK  1 active torsions:
REMARK  status: ('A' for Active; 'I' for Inactive)
REMARK    1  A    between atoms: C_5  and  C_6
REMARK                            x       y       z     vdW  Elec       q    Type
REMARK                         _______ _______ _______ _____ _____    ______ ____
ROOT
ATOM      1  N   UNL     1       1.307   2.652  22.377  0.00  0.00    +0.000 N 
ATOM      2  C   UNL     1       2.151   3.123  21.375  0.00  0.00    +0.000 A 
ATOM      3  C   UNL     1       3.156   2.341  20.813  0.00  0.00    +0.000 A 
ATOM      4  N   UNL     1       3.970   2.769  19.812  0.00  0.00    +0.000 NA
ATOM      5  C   UNL     1       3.750   4.034  19.366  0.00  0.00    +0.000 A 
ATOM      6  C   UNL     1       2.726   4.799  19.926  0.00  0.00    +0.000 A 
ATOM      7  N   UNL     1       1.913   4.364  20.929  0.00  0.00    +0.000 NA
ATOM      8  H   UNL     1       1.821   2.283  23.169  0.00  0.00    +0.000 HD
ATOM      9  H   UNL     1       0.707   3.430  22.643  0.00  0.00    +0.000 HD
ENDROOT
BRANCH   5  10
ATOM     10  C   UNL     1       4.616   4.519  18.270  0.00  0.00    +0.000 A 
ATOM     11  C   UNL     1       4.203   4.414  16.984  0.00  0.00    +0.000 A 
ATOM     12  C   UNL     1       5.045   4.903  15.904  0.00  0.00    +0.000 A 
ATOM     13  C   UNL     1       6.245   5.459  16.142  0.00  0.00    +0.000 A 
ATOM     14  C   UNL     1       6.708   5.567  17.482  0.00  0.00    +0.000 A 
ATOM     15  C   UNL     1       7.853   6.060  18.059  0.00  0.00    +0.000 A 
ATOM     16  C   UNL     1       7.670   5.854  19.431  0.00  0.00    +0.000 A 
ATOM     17  N   UNL     1       6.505   5.278  19.718  0.00  0.00    +0.000 NA
ATOM     18  N   UNL     1       5.884   5.093  18.514  0.00  0.00    +0.000 N 
ENDBRANCH   5  10
TORSDOF 1
ENDMDL
MODEL 7
REMARK VINA RESULT:      -6.9      2.192      5.801
REMARK  Name = 
REMARK  1 active torsions:
REMARK  status: ('A' for Active; 'I' for Inactive)
REMARK    1  A    between atoms: C_5  and  C_6
REMARK                            x       y       z     vdW  Elec       q    Type
REMARK                         _______ _______ _______ _____ _____    ______ ____
ROOT
ATOM      1  N   UNL     1       7.685   5.476  14.808  0.00  0.00    +0.000 N 
ATOM      2  C   UNL     1       6.638   5.361  15.719  0.00  0.00    +0.000 A 
ATOM      3  C   UNL     1       6.686   4.499  16.810  0.00  0.00    +0.000 A 
ATOM      4  N   UNL     1       5.691   4.394  17.730  0.00  0.00    +0.000 NA
ATOM      5  C   UNL     1       4.612   5.197  17.532  0.00  0.00    +0.000 A 
ATOM      6  C   UNL     1       4.587   6.070  16.444  0.00  0.00    +0.000 A 
ATOM      7  N   UNL     1       5.589   6.170  15.527  0.00  0.00    +0.000 NA
ATOM      8  H   UNL     1       7.954   4.580  14.418  0.00  0.00    +0.000 HD
ATOM      9  H   UNL     1       7.376   6.126  14.088  0.00  0.00    +0.000 HD
ENDROOT
BRANCH   5  10
ATOM     10  C   UNL     1       3.519   5.108  18.526  0.00  0.00    +0.000 A 
ATOM     11  C   UNL     1       3.310   6.126  19.394  0.00  0.00    +0.000 A 
ATOM     12  C   UNL     1       2.229   6.050  20.363  0.00  0.00    +0.000 A 
ATOM     13  C   UNL     1       1.418   4.980  20.431  0.00  0.00    +0.000 A 
ATOM     14  C   UNL     1       1.625   3.893  19.539  0.00  0.00    +0.000 A 
ATOM     15  C   UNL     1       1.005   2.682  19.351  0.00  0.00    +0.000 A 
ATOM     16  C   UNL     1       1.717   2.082  18.305  0.00  0.00    +0.000 A 
ATOM     17  N   UNL     1       2.713   2.841  17.855  0.00  0.00    +0.000 NA
ATOM     18  N   UNL     1       2.672   3.981  18.609  0.00  0.00    +0.000 N 
ENDBRANCH   5  10
TORSDOF 1
ENDMDL
MODEL 8
REMARK VINA RESULT:      -6.9      1.894      5.582
REMARK  Name = 
REMARK  1 active torsions:
REMARK  status: ('A' for Active; 'I' for Inactive)
REMARK    1  A    between atoms: C_5  and  C_6
REMARK                            x       y       z     vdW  Elec       q    Type
REMARK                         _______ _______ _______ _____ _____    ______ ____
ROOT
ATOM      1  N   UNL     1       7.890   7.250  16.827  0.00  0.00    +0.000 N 
ATOM      2  C   UNL     1       6.743   6.733  17.423  0.00  0.00    +0.000 A 
ATOM      3  C   UNL     1       5.465   6.991  16.937  0.00  0.00    +0.000 A 
ATOM      4  N   UNL     1       4.334   6.471  17.482  0.00  0.00    +0.000 NA
ATOM      5  C   UNL     1       4.511   5.658  18.557  0.00  0.00    +0.000 A 
ATOM      6  C   UNL     1       5.801   5.393  19.021  0.00  0.00    +0.000 A 
ATOM      7  N   UNL     1       6.930   5.917  18.468  0.00  0.00    +0.000 NA
ATOM      8  H   UNL     1       7.850   8.258  16.729  0.00  0.00    +0.000 HD
ATOM      9  H   UNL     1       8.677   6.956  17.403  0.00  0.00    +0.000 HD
ENDROOT
BRANCH   5  10
ATOM     10  C   UNL     1       3.296   5.071  19.162  0.00  0.00    +0.000 A 
ATOM     11  C   UNL     1       2.627   5.747  20.127  0.00  0.00    +0.000 A 
ATOM     12  C   UNL     1       1.424   5.180  20.714  0.00  0.00    +0.000 A 
ATOM     13  C   UNL     1       0.948   3.984  20.329  0.00  0.00    +0.000 A 
ATOM     14  C   UNL     1       1.639   3.249  19.328  0.00  0.00    +0.000 A 
ATOM     15  C   UNL     1       1.437   2.030  18.728  0.00  0.00    +0.000 A 
ATOM     16  C   UNL     1       2.499   1.904  17.825  0.00  0.00    +0.000 A 
ATOM     17  N   UNL     1       3.319   2.952  17.840  0.00  0.00    +0.000 NA
ATOM     18  N   UNL     1       2.798   3.809  18.769  0.00  0.00    +0.000 N 
ENDBRANCH   5  10
TORSDOF 1
ENDMDL
MODEL 9
REMARK VINA RESULT:      -6.8      1.897      5.679
REMARK  Name = 
REMARK  1 active torsions:
REMARK  status: ('A' for Active; 'I' for Inactive)
REMARK    1  A    between atoms: C_5  and  C_6
REMARK                            x       y       z     vdW  Elec       q    Type
REMARK                         _______ _______ _______ _____ _____    ______ ____
ROOT
ATOM      1  N   UNL     1       7.867   7.267  16.732  0.00  0.00    +0.000 N 
ATOM      2  C   UNL     1       6.735   6.701  17.313  0.00  0.00    +0.000 A 
ATOM      3  C   UNL     1       6.808   5.792  18.364  0.00  0.00    +0.000 A 
ATOM      4  N   UNL     1       5.716   5.252  18.968  0.00  0.00    +0.000 NA
ATOM      5  C   UNL     1       4.510   5.654  18.485  0.00  0.00    +0.000 A 
ATOM      6  C   UNL     1       4.453   6.581  17.443  0.00  0.00    +0.000 A 
ATOM      7  N   UNL     1       5.552   7.118  16.844  0.00  0.00    +0.000 NA
ATOM      8  H   UNL     1       8.530   6.566  16.423  0.00  0.00    +0.000 HD
ATOM      9  H   UNL     1       7.541   7.847  15.962  0.00  0.00    +0.000 HD
ENDROOT
BRANCH   5  10
ATOM     10  C   UNL     1       3.306   5.088  19.133  0.00  0.00    +0.000 A 
ATOM     11  C   UNL     1       2.691   5.768  20.130  0.00  0.00    +0.000 A 
ATOM     12  C   UNL     1       1.500   5.222  20.759  0.00  0.00    +0.000 A 
ATOM     13  C   UNL     1       0.982   4.040  20.382  0.00  0.00    +0.000 A 
ATOM     14  C   UNL     1       1.617   3.301  19.347  0.00  0.00    +0.000 A 
ATOM     15  C   UNL     1       1.363   2.094  18.744  0.00  0.00    +0.000 A 
ATOM     16  C   UNL     1       2.386   1.953  17.798  0.00  0.00    +0.000 A 
ATOM     17  N   UNL     1       3.229   2.983  17.790  0.00  0.00    +0.000 NA
ATOM     18  N   UNL     1       2.765   3.841  18.748  0.00  0.00    +0.000 N 
ENDBRANCH   5  10
TORSDOF 1
ENDMDL
