MODEL 1
REMARK VINA RESULT:      -8.3      0.000      0.000
REMARK  Name = 
REMARK  13 active torsions:
REMARK  status: ('A' for Active; 'I' for Inactive)
REMARK    1  A    between atoms: C_1  and  C_2
REMARK    2  A    between atoms: C_2  and  N_3
REMARK    3  A    between atoms: C_2  and  C_16
REMARK    4  A    between atoms: C_4  and  C_6
REMARK    5  A    between atoms: C_6  and  N_7
REMARK    6  A    between atoms: C_6  and  C_8
REMARK    7  A    between atoms: C_8  and  C_9
REMARK    8  A    between atoms: C_12  and  O_13
REMARK    9  A    between atoms: N_18  and  C_19
REMARK   10  A    between atoms: C_19  and  C_20
REMARK   11  A    between atoms: N_22  and  C_23
REMARK   12  A    between atoms: C_23  and  C_24
REMARK   13  A    between atoms: C_24  and  C_25
REMARK                            x       y       z     vdW  Elec       q    Type
REMARK                         _______ _______ _______ _____ _____    ______ ____
ROOT
ATOM      1  C   UNL     1       4.980   4.324  15.610  0.00  0.00    +0.000 C 
ATOM      2  C   UNL     1       5.367   3.995  17.053  0.00  0.00    +0.000 C 
ENDROOT
BRANCH   2   3
ATOM      3  N   UNL     1       4.335   4.500  17.965  0.00  0.00    +0.000 N 
ATOM      4  C   UNL     1       3.131   3.845  18.132  0.00  0.00    +0.000 C 
ATOM      5  O   UNL     1       2.853   2.825  17.513  0.00  0.00    +0.000 OA
ATOM      6  H   UNL     1       4.604   5.207  18.635  0.00  0.00    +0.000 HD
BRANCH   4   7
ATOM      7  C   UNL     1       2.152   4.491  19.148  0.00  0.00    +0.000 C 
BRANCH   7   8
ATOM      8  N   UNL     1       1.683   3.479  20.117  0.00  0.00    +0.000 NA
ATOM      9  H   UNL     1       0.773   3.113  19.858  0.00  0.00    +0.000 HD
ATOM     10  H   UNL     1       1.613   3.890  21.045  0.00  0.00    +0.000 HD
ENDBRANCH   7   8
BRANCH   7  11
ATOM     11  C   UNL     1       2.818   5.690  19.854  0.00  0.00    +0.000 C 
BRANCH  11  12
ATOM     12  C   UNL     1       2.291   7.049  19.437  0.00  0.00    +0.000 A 
ATOM     13  C   UNL     1       1.638   7.873  20.370  0.00  0.00    +0.000 A 
ATOM     14  C   UNL     1       1.140   9.122  19.992  0.00  0.00    +0.000 A 
ATOM     15  C   UNL     1       1.292   9.552  18.680  0.00  0.00    +0.000 A 
ATOM     16  C   UNL     1       1.945   8.759  17.745  0.00  0.00    +0.000 A 
ATOM     17  C   UNL     1       2.448   7.512  18.124  0.00  0.00    +0.000 A 
BRANCH  15  18
ATOM     18  O   UNL     1       0.806  10.758  18.266  0.00  0.00    +0.000 OA
ATOM     19  H   UNL     1       0.129  10.598  17.589  0.00  0.00    +0.000 HD
ENDBRANCH  15  18
ENDBRANCH  11  12
ENDBRANCH   7  11
ENDBRANCH   4   7
ENDBRANCH   2   3
BRANCH   2  20
ATOM     20  C   UNL     1       6.740   4.631  17.387  0.00  0.00    +0.000 C 
ATOM     21  O   UNL     1       7.758   4.385  16.740  0.00  0.00    +0.000 OA
ATOM     22  N   UNL     1       6.729   5.564  18.399  0.00  0.00    +0.000 N 
ATOM     23  H   UNL     1       5.867   5.765  18.903  0.00  0.00    +0.000 HD
BRANCH  22  24
ATOM     24  C   UNL     1       7.927   6.277  18.820  0.00  0.00    +0.000 C 
BRANCH  24  25
ATOM     25  C   UNL     1       8.011   7.654  18.141  0.00  0.00    +0.000 C 
ATOM     26  O   UNL     1       7.486   7.876  17.054  0.00  0.00    +0.000 OA
ATOM     27  N   UNL     1       8.711   8.620  18.846  0.00  0.00    +0.000 N 
ATOM     28  H   UNL     1       9.137   8.383  19.733  0.00  0.00    +0.000 HD
BRANCH  27  29
ATOM     29  C   UNL     1       8.862   9.970  18.312  0.00  0.00    +0.000 C 
BRANCH  29  30
ATOM     30  C   UNL     1       9.654  10.900  19.240  0.00  0.00    +0.000 C 
BRANCH  30  31
ATOM     31  C   UNL     1      10.241  12.097  18.526  0.00  0.00    +0.000 A 
ATOM     32  C   UNL     1      11.419  11.978  17.776  0.00  0.00    +0.000 A 
ATOM     33  C   UNL     1      11.971  13.090  17.133  0.00  0.00    +0.000 A 
ATOM     34  C   UNL     1      11.354  14.336  17.231  0.00  0.00    +0.000 A 
ATOM     35  C   UNL     1      10.180  14.466  17.970  0.00  0.00    +0.000 A 
ATOM     36  C   UNL     1       9.626  13.355  18.615  0.00  0.00    +0.000 A 
ENDBRANCH  30  31
ENDBRANCH  29  30
ENDBRANCH  27  29
ENDBRANCH  24  25
ENDBRANCH  22  24
ENDBRANCH   2  20
TORSDOF 12
ENDMDL
MODEL 2
REMARK VINA RESULT:      -7.3      1.886      2.535
REMARK  Name = 
REMARK  13 active torsions:
REMARK  status: ('A' for Active; 'I' for Inactive)
REMARK    1  A    between atoms: C_1  and  C_2
REMARK    2  A    between atoms: C_2  and  N_3
REMARK    3  A    between atoms: C_2  and  C_16
REMARK    4  A    between atoms: C_4  and  C_6
REMARK    5  A    between atoms: C_6  and  N_7
REMARK    6  A    between atoms: C_6  and  C_8
REMARK    7  A    between atoms: C_8  and  C_9
REMARK    8  A    between atoms: C_12  and  O_13
REMARK    9  A    between atoms: N_18  and  C_19
REMARK   10  A    between atoms: C_19  and  C_20
REMARK   11  A    between atoms: N_22  and  C_23
REMARK   12  A    between atoms: C_23  and  C_24
REMARK   13  A    between atoms: C_24  and  C_25
REMARK                            x       y       z     vdW  Elec       q    Type
REMARK                         _______ _______ _______ _____ _____    ______ ____
ROOT
ATOM      1  C   UNL     1       2.719   3.778  17.553  0.00  0.00    +0.000 C 
ATOM      2  C   UNL     1       3.605   4.652  18.441  0.00  0.00    +0.000 C 
ENDROOT
BRANCH   2   3
ATOM      3  N   UNL     1       2.921   5.918  18.724  0.00  0.00    +0.000 N 
ATOM      4  C   UNL     1       2.248   6.131  19.911  0.00  0.00    +0.000 C 
ATOM      5  O   UNL     1       2.169   5.269  20.777  0.00  0.00    +0.000 OA
ATOM      6  H   UNL     1       3.135   6.711  18.135  0.00  0.00    +0.000 HD
BRANCH   4   7
ATOM      7  C   UNL     1       1.594   7.529  20.070  0.00  0.00    +0.000 C 
BRANCH   7   8
ATOM      8  N   UNL     1       1.916   8.095  21.396  0.00  0.00    +0.000 NA
ATOM      9  H   UNL     1       2.781   7.712  21.761  0.00  0.00    +0.000 HD
ATOM     10  H   UNL     1       1.169   7.887  22.055  0.00  0.00    +0.000 HD
ENDBRANCH   7   8
BRANCH   7  11
ATOM     11  C   UNL     1       2.036   8.466  18.927  0.00  0.00    +0.000 C 
BRANCH  11  12
ATOM     12  C   UNL     1       1.258   9.764  18.828  0.00  0.00    +0.000 A 
ATOM     13  C   UNL     1       1.901  10.947  18.424  0.00  0.00    +0.000 A 
ATOM     14  C   UNL     1       1.195  12.149  18.341  0.00  0.00    +0.000 A 
ATOM     15  C   UNL     1      -0.157  12.173  18.661  0.00  0.00    +0.000 A 
ATOM     16  C   UNL     1      -0.814  11.013  19.051  0.00  0.00    +0.000 A 
ATOM     17  C   UNL     1      -0.109   9.810  19.129  0.00  0.00    +0.000 A 
BRANCH  15  18
ATOM     18  O   UNL     1      -0.879  13.329  18.608  0.00  0.00    +0.000 OA
ATOM     19  H   UNL     1      -0.800  13.697  17.713  0.00  0.00    +0.000 HD
ENDBRANCH  15  18
ENDBRANCH  11  12
ENDBRANCH   7  11
ENDBRANCH   4   7
ENDBRANCH   2   3
BRANCH   2  20
ATOM     20  C   UNL     1       4.959   4.917  17.736  0.00  0.00    +0.000 C 
ATOM     21  O   UNL     1       5.082   4.896  16.511  0.00  0.00    +0.000 OA
ATOM     22  N   UNL     1       5.999   5.270  18.566  0.00  0.00    +0.000 N 
ATOM     23  H   UNL     1       5.864   5.302  19.575  0.00  0.00    +0.000 HD
BRANCH  22  24
ATOM     24  C   UNL     1       7.331   5.580  18.064  0.00  0.00    +0.000 C 
BRANCH  24  25
ATOM     25  C   UNL     1       7.421   7.051  17.625  0.00  0.00    +0.000 C 
ATOM     26  O   UNL     1       6.820   7.474  16.642  0.00  0.00    +0.000 OA
ATOM     27  N   UNL     1       8.217   7.858  18.421  0.00  0.00    +0.000 N 
ATOM     28  H   UNL     1       8.703   7.458  19.213  0.00  0.00    +0.000 HD
BRANCH  27  29
ATOM     29  C   UNL     1       8.384   9.276  18.113  0.00  0.00    +0.000 C 
BRANCH  29  30
ATOM     30  C   UNL     1       9.240  10.019  19.147  0.00  0.00    +0.000 C 
BRANCH  30  31
ATOM     31  C   UNL     1       9.930  11.242  18.583  0.00  0.00    +0.000 A 
ATOM     32  C   UNL     1      11.320  11.392  18.686  0.00  0.00    +0.000 A 
ATOM     33  C   UNL     1      11.954  12.532  18.182  0.00  0.00    +0.000 A 
ATOM     34  C   UNL     1      11.208  13.536  17.568  0.00  0.00    +0.000 A 
ATOM     35  C   UNL     1       9.826  13.396  17.455  0.00  0.00    +0.000 A 
ATOM     36  C   UNL     1       9.189  12.257  17.960  0.00  0.00    +0.000 A 
ENDBRANCH  30  31
ENDBRANCH  29  30
ENDBRANCH  27  29
ENDBRANCH  24  25
ENDBRANCH  22  24
ENDBRANCH   2  20
TORSDOF 12
ENDMDL
MODEL 3
REMARK VINA RESULT:      -7.2      1.460      1.951
REMARK  Name = 
REMARK  13 active torsions:
REMARK  status: ('A' for Active; 'I' for Inactive)
REMARK    1  A    between atoms: C_1  and  C_2
REMARK    2  A    between atoms: C_2  and  N_3
REMARK    3  A    between atoms: C_2  and  C_16
REMARK    4  A    between atoms: C_4  and  C_6
REMARK    5  A    between atoms: C_6  and  N_7
REMARK    6  A    between atoms: C_6  and  C_8
REMARK    7  A    between atoms: C_8  and  C_9
REMARK    8  A    between atoms: C_12  and  O_13
REMARK    9  A    between atoms: N_18  and  C_19
REMARK   10  A    between atoms: C_19  and  C_20
REMARK   11  A    between atoms: N_22  and  C_23
REMARK   12  A    between atoms: C_23  and  C_24
REMARK   13  A    between atoms: C_24  and  C_25
REMARK                            x       y       z     vdW  Elec       q    Type
REMARK                         _______ _______ _______ _____ _____    ______ ____
ROOT
ATOM      1  C   UNL     1       4.810   4.875  16.706  0.00  0.00    +0.000 C 
ATOM      2  C   UNL     1       5.752   3.905  17.420  0.00  0.00    +0.000 C 
ENDROOT
BRANCH   2   3
ATOM      3  N   UNL     1       5.118   3.422  18.651  0.00  0.00    +0.000 N 
ATOM      4  C   UNL     1       4.157   2.431  18.632  0.00  0.00    +0.000 C 
ATOM      5  O   UNL     1       3.768   1.921  17.588  0.00  0.00    +0.000 OA
ATOM      6  H   UNL     1       5.552   3.664  19.531  0.00  0.00    +0.000 HD
BRANCH   4   7
ATOM      7  C   UNL     1       3.597   2.012  20.017  0.00  0.00    +0.000 C 
BRANCH   7   8
ATOM      8  N   UNL     1       4.647   2.131  21.049  0.00  0.00    +0.000 NA
ATOM      9  H   UNL     1       5.365   2.792  20.772  0.00  0.00    +0.000 HD
ATOM     10  H   UNL     1       5.086   1.227  21.207  0.00  0.00    +0.000 HD
ENDBRANCH   7   8
BRANCH   7  11
ATOM     11  C   UNL     1       2.350   2.849  20.372  0.00  0.00    +0.000 C 
BRANCH  11  12
ATOM     12  C   UNL     1       2.275   4.202  19.692  0.00  0.00    +0.000 A 
ATOM     13  C   UNL     1       2.860   5.331  20.292  0.00  0.00    +0.000 A 
ATOM     14  C   UNL     1       2.785   6.583  19.678  0.00  0.00    +0.000 A 
ATOM     15  C   UNL     1       2.126   6.712  18.461  0.00  0.00    +0.000 A 
ATOM     16  C   UNL     1       1.552   5.607  17.845  0.00  0.00    +0.000 A 
ATOM     17  C   UNL     1       1.631   4.354  18.457  0.00  0.00    +0.000 A 
BRANCH  15  18
ATOM     18  O   UNL     1       2.018   7.920  17.836  0.00  0.00    +0.000 OA
ATOM     19  H   UNL     1       2.908   8.294  17.740  0.00  0.00    +0.000 HD
ENDBRANCH  15  18
ENDBRANCH  11  12
ENDBRANCH   7  11
ENDBRANCH   4   7
ENDBRANCH   2   3
BRANCH   2  20
ATOM     20  C   UNL     1       7.090   4.615  17.746  0.00  0.00    +0.000 C 
ATOM     21  O   UNL     1       8.171   4.220  17.309  0.00  0.00    +0.000 OA
ATOM     22  N   UNL     1       6.981   5.774  18.480  0.00  0.00    +0.000 N 
ATOM     23  H   UNL     1       6.071   6.090  18.810  0.00  0.00    +0.000 HD
BRANCH  22  24
ATOM     24  C   UNL     1       8.138   6.579  18.849  0.00  0.00    +0.000 C 
BRANCH  24  25
ATOM     25  C   UNL     1       8.112   7.935  18.125  0.00  0.00    +0.000 C 
ATOM     26  O   UNL     1       7.597   8.073  17.020  0.00  0.00    +0.000 OA
ATOM     27  N   UNL     1       8.702   8.984  18.812  0.00  0.00    +0.000 N 
ATOM     28  H   UNL     1       9.126   8.816  19.716  0.00  0.00    +0.000 HD
BRANCH  27  29
ATOM     29  C   UNL     1       8.743  10.325  18.235  0.00  0.00    +0.000 C 
BRANCH  29  30
ATOM     30  C   UNL     1      10.138  10.961  18.288  0.00  0.00    +0.000 C 
BRANCH  30  31
ATOM     31  C   UNL     1      10.119  12.458  18.069  0.00  0.00    +0.000 A 
ATOM     32  C   UNL     1      11.155  13.092  17.369  0.00  0.00    +0.000 A 
ATOM     33  C   UNL     1      11.146  14.479  17.185  0.00  0.00    +0.000 A 
ATOM     34  C   UNL     1      10.104  15.249  17.698  0.00  0.00    +0.000 A 
ATOM     35  C   UNL     1       9.067  14.629  18.391  0.00  0.00    +0.000 A 
ATOM     36  C   UNL     1       9.074  13.242  18.578  0.00  0.00    +0.000 A 
ENDBRANCH  30  31
ENDBRANCH  29  30
ENDBRANCH  27  29
ENDBRANCH  24  25
ENDBRANCH  22  24
ENDBRANCH   2  20
TORSDOF 12
ENDMDL
MODEL 4
REMARK VINA RESULT:      -7.2      1.683      2.094
REMARK  Name = 
REMARK  13 active torsions:
REMARK  status: ('A' for Active; 'I' for Inactive)
REMARK    1  A    between atoms: C_1  and  C_2
REMARK    2  A    between atoms: C_2  and  N_3
REMARK    3  A    between atoms: C_2  and  C_16
REMARK    4  A    between atoms: C_4  and  C_6
REMARK    5  A    between atoms: C_6  and  N_7
REMARK    6  A    between atoms: C_6  and  C_8
REMARK    7  A    between atoms: C_8  and  C_9
REMARK    8  A    between atoms: C_12  and  O_13
REMARK    9  A    between atoms: N_18  and  C_19
REMARK   10  A    between atoms: C_19  and  C_20
REMARK   11  A    between atoms: N_22  and  C_23
REMARK   12  A    between atoms: C_23  and  C_24
REMARK   13  A    between atoms: C_24  and  C_25
REMARK                            x       y       z     vdW  Elec       q    Type
REMARK                         _______ _______ _______ _____ _____    ______ ____
ROOT
ATOM      1  C   UNL     1       5.604   5.499  14.711  0.00  0.00    +0.000 C 
ATOM      2  C   UNL     1       5.820   4.764  16.033  0.00  0.00    +0.000 C 
ENDROOT
BRANCH   2   3
ATOM      3  N   UNL     1       4.617   3.995  16.370  0.00  0.00    +0.000 N 
ATOM      4  C   UNL     1       4.457   3.400  17.605  0.00  0.00    +0.000 C 
ATOM      5  O   UNL     1       5.318   3.464  18.475  0.00  0.00    +0.000 OA
ATOM      6  H   UNL     1       3.812   4.093  15.766  0.00  0.00    +0.000 HD
BRANCH   4   7
ATOM      7  C   UNL     1       3.121   2.640  17.816  0.00  0.00    +0.000 C 
BRANCH   7   8
ATOM      8  N   UNL     1       3.122   1.963  19.130  0.00  0.00    +0.000 NA
ATOM      9  H   UNL     1       2.178   1.775  19.449  0.00  0.00    +0.000 HD
ATOM     10  H   UNL     1       3.586   2.546  19.823  0.00  0.00    +0.000 HD
ENDBRANCH   7   8
BRANCH   7  11
ATOM     11  C   UNL     1       1.923   3.602  17.671  0.00  0.00    +0.000 C 
BRANCH  11  12
ATOM     12  C   UNL     1       1.932   4.781  18.624  0.00  0.00    +0.000 A 
ATOM     13  C   UNL     1       1.570   4.606  19.971  0.00  0.00    +0.000 A 
ATOM     14  C   UNL     1       1.563   5.689  20.853  0.00  0.00    +0.000 A 
ATOM     15  C   UNL     1       1.919   6.951  20.392  0.00  0.00    +0.000 A 
ATOM     16  C   UNL     1       2.291   7.143  19.068  0.00  0.00    +0.000 A 
ATOM     17  C   UNL     1       2.302   6.059  18.186  0.00  0.00    +0.000 A 
BRANCH  15  18
ATOM     18  O   UNL     1       1.910   8.037  21.217  0.00  0.00    +0.000 OA
ATOM     19  H   UNL     1       1.098   8.541  21.049  0.00  0.00    +0.000 HD
ENDBRANCH  15  18
ENDBRANCH  11  12
ENDBRANCH   7  11
ENDBRANCH   4   7
ENDBRANCH   2   3
BRANCH   2  20
ATOM     20  C   UNL     1       6.140   5.782  17.156  0.00  0.00    +0.000 C 
ATOM     21  O   UNL     1       5.298   6.561  17.601  0.00  0.00    +0.000 OA
ATOM     22  N   UNL     1       7.406   5.696  17.689  0.00  0.00    +0.000 N 
ATOM     23  H   UNL     1       8.077   5.026  17.317  0.00  0.00    +0.000 HD
BRANCH  22  24
ATOM     24  C   UNL     1       7.861   6.560  18.771  0.00  0.00    +0.000 C 
BRANCH  24  25
ATOM     25  C   UNL     1       8.185   7.968  18.246  0.00  0.00    +0.000 C 
ATOM     26  O   UNL     1       7.861   8.332  17.119  0.00  0.00    +0.000 OA
ATOM     27  N   UNL     1       8.856   8.791  19.136  0.00  0.00    +0.000 N 
ATOM     28  H   UNL     1       9.112   8.438  20.049  0.00  0.00    +0.000 HD
BRANCH  27  29
ATOM     29  C   UNL     1       9.221  10.154  18.760  0.00  0.00    +0.000 C 
BRANCH  29  30
ATOM     30  C   UNL     1       9.989  10.896  19.862  0.00  0.00    +0.000 C 
BRANCH  30  31
ATOM     31  C   UNL     1      10.795  12.066  19.342  0.00  0.00    +0.000 A 
ATOM     32  C   UNL     1      11.302  12.063  18.035  0.00  0.00    +0.000 A 
ATOM     33  C   UNL     1      12.065  13.137  17.563  0.00  0.00    +0.000 A 
ATOM     34  C   UNL     1      12.330  14.227  18.391  0.00  0.00    +0.000 A 
ATOM     35  C   UNL     1      11.826  14.244  19.690  0.00  0.00    +0.000 A 
ATOM     36  C   UNL     1      11.065  13.170  20.165  0.00  0.00    +0.000 A 
ENDBRANCH  30  31
ENDBRANCH  29  30
ENDBRANCH  27  29
ENDBRANCH  24  25
ENDBRANCH  22  24
ENDBRANCH   2  20
TORSDOF 12
ENDMDL
MODEL 5
REMARK VINA RESULT:      -7.0      3.860      9.079
REMARK  Name = 
REMARK  13 active torsions:
REMARK  status: ('A' for Active; 'I' for Inactive)
REMARK    1  A    between atoms: C_1  and  C_2
REMARK    2  A    between atoms: C_2  and  N_3
REMARK    3  A    between atoms: C_2  and  C_16
REMARK    4  A    between atoms: C_4  and  C_6
REMARK    5  A    between atoms: C_6  and  N_7
REMARK    6  A    between atoms: C_6  and  C_8
REMARK    7  A    between atoms: C_8  and  C_9
REMARK    8  A    between atoms: C_12  and  O_13
REMARK    9  A    between atoms: N_18  and  C_19
REMARK   10  A    between atoms: C_19  and  C_20
REMARK   11  A    between atoms: N_22  and  C_23
REMARK   12  A    between atoms: C_23  and  C_24
REMARK   13  A    between atoms: C_24  and  C_25
REMARK                            x       y       z     vdW  Elec       q    Type
REMARK                         _______ _______ _______ _____ _____    ______ ____
ROOT
ATOM      1  C   UNL     1       1.852   6.790  20.531  0.00  0.00    +0.000 C 
ATOM      2  C   UNL     1       2.113   6.511  19.050  0.00  0.00    +0.000 C 
ENDROOT
BRANCH   2   3
ATOM      3  N   UNL     1       3.181   5.514  18.919  0.00  0.00    +0.000 N 
ATOM      4  C   UNL     1       3.061   4.426  18.077  0.00  0.00    +0.000 C 
ATOM      5  O   UNL     1       2.050   4.225  17.415  0.00  0.00    +0.000 OA
ATOM      6  H   UNL     1       4.094   5.752  19.283  0.00  0.00    +0.000 HD
BRANCH   4   7
ATOM      7  C   UNL     1       4.284   3.473  18.032  0.00  0.00    +0.000 C 
BRANCH   7   8
ATOM      8  N   UNL     1       3.844   2.092  17.749  0.00  0.00    +0.000 NA
ATOM      9  H   UNL     1       3.184   1.764  18.445  0.00  0.00    +0.000 HD
ATOM     10  H   UNL     1       4.645   1.464  17.745  0.00  0.00    +0.000 HD
ENDBRANCH   7   8
BRANCH   7  11
ATOM     11  C   UNL     1       5.316   3.967  16.996  0.00  0.00    +0.000 C 
BRANCH  11  12
ATOM     12  C   UNL     1       6.244   5.060  17.489  0.00  0.00    +0.000 A 
ATOM     13  C   UNL     1       7.035   4.854  18.633  0.00  0.00    +0.000 A 
ATOM     14  C   UNL     1       7.885   5.860  19.101  0.00  0.00    +0.000 A 
ATOM     15  C   UNL     1       7.947   7.074  18.428  0.00  0.00    +0.000 A 
ATOM     16  C   UNL     1       7.182   7.292  17.289  0.00  0.00    +0.000 A 
ATOM     17  C   UNL     1       6.336   6.286  16.818  0.00  0.00    +0.000 A 
BRANCH  15  18
ATOM     18  O   UNL     1       8.751   8.086  18.861  0.00  0.00    +0.000 OA
ATOM     19  H   UNL     1       8.747   8.788  18.190  0.00  0.00    +0.000 HD
ENDBRANCH  15  18
ENDBRANCH  11  12
ENDBRANCH   7  11
ENDBRANCH   4   7
ENDBRANCH   2   3
BRANCH   2  20
ATOM     20  C   UNL     1       2.510   7.824  18.329  0.00  0.00    +0.000 C 
ATOM     21  O   UNL     1       3.389   7.866  17.470  0.00  0.00    +0.000 OA
ATOM     22  N   UNL     1       1.748   8.925  18.646  0.00  0.00    +0.000 N 
ATOM     23  H   UNL     1       1.010   8.857  19.345  0.00  0.00    +0.000 HD
BRANCH  22  24
ATOM     24  C   UNL     1       1.968  10.231  18.039  0.00  0.00    +0.000 C 
BRANCH  24  25
ATOM     25  C   UNL     1       1.120  11.307  18.736  0.00  0.00    +0.000 C 
ATOM     26  O   UNL     1       1.535  11.936  19.705  0.00  0.00    +0.000 OA
ATOM     27  N   UNL     1      -0.134  11.519  18.187  0.00  0.00    +0.000 N 
ATOM     28  H   UNL     1      -0.436  10.966  17.395  0.00  0.00    +0.000 HD
BRANCH  27  29
ATOM     29  C   UNL     1      -1.038  12.516  18.755  0.00  0.00    +0.000 C 
BRANCH  29  30
ATOM     30  C   UNL     1      -2.162  11.900  19.597  0.00  0.00    +0.000 C 
BRANCH  30  31
ATOM     31  C   UNL     1      -3.504  11.908  18.898  0.00  0.00    +0.000 A 
ATOM     32  C   UNL     1      -3.629  11.447  17.580  0.00  0.00    +0.000 A 
ATOM     33  C   UNL     1      -4.866  11.473  16.929  0.00  0.00    +0.000 A 
ATOM     34  C   UNL     1      -5.994  11.960  17.587  0.00  0.00    +0.000 A 
ATOM     35  C   UNL     1      -5.885  12.416  18.899  0.00  0.00    +0.000 A 
ATOM     36  C   UNL     1      -4.647  12.392  19.552  0.00  0.00    +0.000 A 
ENDBRANCH  30  31
ENDBRANCH  29  30
ENDBRANCH  27  29
ENDBRANCH  24  25
ENDBRANCH  22  24
ENDBRANCH   2  20
TORSDOF 12
ENDMDL
MODEL 6
REMARK VINA RESULT:      -7.0      5.423      9.888
REMARK  Name = 
REMARK  13 active torsions:
REMARK  status: ('A' for Active; 'I' for Inactive)
REMARK    1  A    between atoms: C_1  and  C_2
REMARK    2  A    between atoms: C_2  and  N_3
REMARK    3  A    between atoms: C_2  and  C_16
REMARK    4  A    between atoms: C_4  and  C_6
REMARK    5  A    between atoms: C_6  and  N_7
REMARK    6  A    between atoms: C_6  and  C_8
REMARK    7  A    between atoms: C_8  and  C_9
REMARK    8  A    between atoms: C_12  and  O_13
REMARK    9  A    between atoms: N_18  and  C_19
REMARK   10  A    between atoms: C_19  and  C_20
REMARK   11  A    between atoms: N_22  and  C_23
REMARK   12  A    between atoms: C_23  and  C_24
REMARK   13  A    between atoms: C_24  and  C_25
REMARK                            x       y       z     vdW  Elec       q    Type
REMARK                         _______ _______ _______ _____ _____    ______ ____
ROOT
ATOM      1  C   UNL     1      -1.828  10.402  18.404  0.00  0.00    +0.000 C 
ATOM      2  C   UNL     1      -0.815  10.362  19.549  0.00  0.00    +0.000 C 
ENDROOT
BRANCH   2   3
ATOM      3  N   UNL     1      -0.976  11.553  20.389  0.00  0.00    +0.000 N 
ATOM      4  C   UNL     1      -0.858  11.495  21.763  0.00  0.00    +0.000 C 
ATOM      5  O   UNL     1      -0.636  10.444  22.353  0.00  0.00    +0.000 OA
ATOM      6  H   UNL     1      -0.952  12.456  19.934  0.00  0.00    +0.000 HD
BRANCH   4   7
ATOM      7  C   UNL     1      -1.032  12.844  22.510  0.00  0.00    +0.000 C 
BRANCH   7   8
ATOM      8  N   UNL     1       0.214  13.633  22.435  0.00  0.00    +0.000 NA
ATOM      9  H   UNL     1       0.932  13.143  21.912  0.00  0.00    +0.000 HD
ATOM     10  H   UNL     1       0.568  13.818  23.371  0.00  0.00    +0.000 HD
ENDBRANCH   7   8
BRANCH   7  11
ATOM     11  C   UNL     1      -2.236  13.624  21.942  0.00  0.00    +0.000 C 
BRANCH  11  12
ATOM     12  C   UNL     1      -3.545  13.399  22.674  0.00  0.00    +0.000 A 
ATOM     13  C   UNL     1      -3.562  12.714  23.902  0.00  0.00    +0.000 A 
ATOM     14  C   UNL     1      -4.765  12.493  24.577  0.00  0.00    +0.000 A 
ATOM     15  C   UNL     1      -5.955  12.956  24.028  0.00  0.00    +0.000 A 
ATOM     16  C   UNL     1      -5.958  13.645  22.823  0.00  0.00    +0.000 A 
ATOM     17  C   UNL     1      -4.755  13.871  22.149  0.00  0.00    +0.000 A 
BRANCH  15  18
ATOM     18  O   UNL     1      -7.151  12.747  24.648  0.00  0.00    +0.000 OA
ATOM     19  H   UNL     1      -7.800  13.366  24.276  0.00  0.00    +0.000 HD
ENDBRANCH  15  18
ENDBRANCH  11  12
ENDBRANCH   7  11
ENDBRANCH   4   7
ENDBRANCH   2   3
BRANCH   2  20
ATOM     20  C   UNL     1       0.623  10.294  18.977  0.00  0.00    +0.000 C 
ATOM     21  O   UNL     1       1.453  11.183  19.169  0.00  0.00    +0.000 OA
ATOM     22  N   UNL     1       0.943   9.130  18.317  0.00  0.00    +0.000 N 
ATOM     23  H   UNL     1       0.243   8.401  18.191  0.00  0.00    +0.000 HD
BRANCH  22  24
ATOM     24  C   UNL     1       2.261   8.892  17.743  0.00  0.00    +0.000 C 
BRANCH  24  25
ATOM     25  C   UNL     1       2.872   7.595  18.299  0.00  0.00    +0.000 C 
ATOM     26  O   UNL     1       2.590   7.169  19.414  0.00  0.00    +0.000 OA
ATOM     27  N   UNL     1       3.752   6.944  17.448  0.00  0.00    +0.000 N 
ATOM     28  H   UNL     1       3.962   7.344  16.543  0.00  0.00    +0.000 HD
BRANCH  27  29
ATOM     29  C   UNL     1       4.399   5.701  17.856  0.00  0.00    +0.000 C 
BRANCH  29  30
ATOM     30  C   UNL     1       3.615   4.449  17.440  0.00  0.00    +0.000 C 
BRANCH  30  31
ATOM     31  C   UNL     1       2.795   3.857  18.565  0.00  0.00    +0.000 A 
ATOM     32  C   UNL     1       1.462   3.478  18.358  0.00  0.00    +0.000 A 
ATOM     33  C   UNL     1       0.699   2.949  19.405  0.00  0.00    +0.000 A 
ATOM     34  C   UNL     1       1.260   2.792  20.671  0.00  0.00    +0.000 A 
ATOM     35  C   UNL     1       2.586   3.160  20.888  0.00  0.00    +0.000 A 
ATOM     36  C   UNL     1       3.350   3.691  19.843  0.00  0.00    +0.000 A 
ENDBRANCH  30  31
ENDBRANCH  29  30
ENDBRANCH  27  29
ENDBRANCH  24  25
ENDBRANCH  22  24
ENDBRANCH   2  20
TORSDOF 12
ENDMDL
MODEL 7
REMARK VINA RESULT:      -6.9      1.618      2.222
REMARK  Name = 
REMARK  13 active torsions:
REMARK  status: ('A' for Active; 'I' for Inactive)
REMARK    1  A    between atoms: C_1  and  C_2
REMARK    2  A    between atoms: C_2  and  N_3
REMARK    3  A    between atoms: C_2  and  C_16
REMARK    4  A    between atoms: C_4  and  C_6
REMARK    5  A    between atoms: C_6  and  N_7
REMARK    6  A    between atoms: C_6  and  C_8
REMARK    7  A    between atoms: C_8  and  C_9
REMARK    8  A    between atoms: C_12  and  O_13
REMARK    9  A    between atoms: N_18  and  C_19
REMARK   10  A    between atoms: C_19  and  C_20
REMARK   11  A    between atoms: N_22  and  C_23
REMARK   12  A    between atoms: C_23  and  C_24
REMARK   13  A    between atoms: C_24  and  C_25
REMARK                            x       y       z     vdW  Elec       q    Type
REMARK                         _______ _______ _______ _____ _____    ______ ____
ROOT
ATOM      1  C   UNL     1       5.926   4.704  15.159  0.00  0.00    +0.000 C 
ATOM      2  C   UNL     1       5.844   4.243  16.614  0.00  0.00    +0.000 C 
ENDROOT
BRANCH   2   3
ATOM      3  N   UNL     1       4.497   3.734  16.893  0.00  0.00    +0.000 N 
ATOM      4  C   UNL     1       4.167   3.185  18.116  0.00  0.00    +0.000 C 
ATOM      5  O   UNL     1       4.985   3.073  19.022  0.00  0.00    +0.000 OA
ATOM      6  H   UNL     1       3.755   3.994  16.258  0.00  0.00    +0.000 HD
BRANCH   4   7
ATOM      7  C   UNL     1       2.696   2.713  18.265  0.00  0.00    +0.000 C 
BRANCH   7   8
ATOM      8  N   UNL     1       2.651   1.257  18.512  0.00  0.00    +0.000 NA
ATOM      9  H   UNL     1       3.449   0.787  18.100  0.00  0.00    +0.000 HD
ATOM     10  H   UNL     1       1.803   0.862  18.112  0.00  0.00    +0.000 HD
ENDBRANCH   7   8
BRANCH   7  11
ATOM     11  C   UNL     1       1.985   3.504  19.383  0.00  0.00    +0.000 C 
BRANCH  11  12
ATOM     12  C   UNL     1       2.017   5.011  19.219  0.00  0.00    +0.000 A 
ATOM     13  C   UNL     1       2.083   5.845  20.348  0.00  0.00    +0.000 A 
ATOM     14  C   UNL     1       2.101   7.235  20.207  0.00  0.00    +0.000 A 
ATOM     15  C   UNL     1       2.053   7.795  18.936  0.00  0.00    +0.000 A 
ATOM     16  C   UNL     1       1.999   6.988  17.807  0.00  0.00    +0.000 A 
ATOM     17  C   UNL     1       1.986   5.598  17.947  0.00  0.00    +0.000 A 
BRANCH  15  18
ATOM     18  O   UNL     1       2.053   9.147  18.755  0.00  0.00    +0.000 OA
ATOM     19  H   UNL     1       1.157   9.420  18.498  0.00  0.00    +0.000 HD
ENDBRANCH  15  18
ENDBRANCH  11  12
ENDBRANCH   7  11
ENDBRANCH   4   7
ENDBRANCH   2   3
BRANCH   2  20
ATOM     20  C   UNL     1       6.183   5.422  17.560  0.00  0.00    +0.000 C 
ATOM     21  O   UNL     1       5.324   6.195  17.986  0.00  0.00    +0.000 OA
ATOM     22  N   UNL     1       7.494   5.494  17.969  0.00  0.00    +0.000 N 
ATOM     23  H   UNL     1       8.180   4.828  17.618  0.00  0.00    +0.000 HD
BRANCH  22  24
ATOM     24  C   UNL     1       7.975   6.525  18.880  0.00  0.00    +0.000 C 
BRANCH  24  25
ATOM     25  C   UNL     1       8.152   7.864  18.146  0.00  0.00    +0.000 C 
ATOM     26  O   UNL     1       7.812   8.014  16.977  0.00  0.00    +0.000 OA
ATOM     27  N   UNL     1       8.712   8.883  18.901  0.00  0.00    +0.000 N 
ATOM     28  H   UNL     1       8.988   8.704  19.858  0.00  0.00    +0.000 HD
BRANCH  27  29
ATOM     29  C   UNL     1       8.932  10.205  18.321  0.00  0.00    +0.000 C 
BRANCH  29  30
ATOM     30  C   UNL     1      10.256  10.842  18.762  0.00  0.00    +0.000 C 
BRANCH  30  31
ATOM     31  C   UNL     1      10.081  11.908  19.822  0.00  0.00    +0.000 A 
ATOM     32  C   UNL     1      10.596  13.198  19.632  0.00  0.00    +0.000 A 
ATOM     33  C   UNL     1      10.451  14.177  20.621  0.00  0.00    +0.000 A 
ATOM     34  C   UNL     1       9.791  13.879  21.812  0.00  0.00    +0.000 A 
ATOM     35  C   UNL     1       9.270  12.601  22.010  0.00  0.00    +0.000 A 
ATOM     36  C   UNL     1       9.415  11.620  21.022  0.00  0.00    +0.000 A 
ENDBRANCH  30  31
ENDBRANCH  29  30
ENDBRANCH  27  29
ENDBRANCH  24  25
ENDBRANCH  22  24
ENDBRANCH   2  20
TORSDOF 12
ENDMDL
MODEL 8
REMARK VINA RESULT:      -6.9      5.012      8.779
REMARK  Name = 
REMARK  13 active torsions:
REMARK  status: ('A' for Active; 'I' for Inactive)
REMARK    1  A    between atoms: C_1  and  C_2
REMARK    2  A    between atoms: C_2  and  N_3
REMARK    3  A    between atoms: C_2  and  C_16
REMARK    4  A    between atoms: C_4  and  C_6
REMARK    5  A    between atoms: C_6  and  N_7
REMARK    6  A    between atoms: C_6  and  C_8
REMARK    7  A    between atoms: C_8  and  C_9
REMARK    8  A    between atoms: C_12  and  O_13
REMARK    9  A    between atoms: N_18  and  C_19
REMARK   10  A    between atoms: C_19  and  C_20
REMARK   11  A    between atoms: N_22  and  C_23
REMARK   12  A    between atoms: C_23  and  C_24
REMARK   13  A    between atoms: C_24  and  C_25
REMARK                            x       y       z     vdW  Elec       q    Type
REMARK                         _______ _______ _______ _____ _____    ______ ____
ROOT
ATOM      1  C   UNL     1       1.900   8.073  18.049  0.00  0.00    +0.000 C 
ATOM      2  C   UNL     1       2.644   7.303  19.141  0.00  0.00    +0.000 C 
ENDROOT
BRANCH   2   3
ATOM      3  N   UNL     1       2.851   5.916  18.709  0.00  0.00    +0.000 N 
ATOM      4  C   UNL     1       3.969   5.198  19.084  0.00  0.00    +0.000 C 
ATOM      5  O   UNL     1       4.854   5.687  19.776  0.00  0.00    +0.000 OA
ATOM      6  H   UNL     1       2.060   5.422  18.319  0.00  0.00    +0.000 HD
BRANCH   4   7
ATOM      7  C   UNL     1       4.033   3.737  18.566  0.00  0.00    +0.000 C 
BRANCH   7   8
ATOM      8  N   UNL     1       3.060   2.895  19.291  0.00  0.00    +0.000 NA
ATOM      9  H   UNL     1       2.763   3.334  20.155  0.00  0.00    +0.000 HD
ATOM     10  H   UNL     1       3.476   1.994  19.514  0.00  0.00    +0.000 HD
ENDBRANCH   7   8
BRANCH   7  11
ATOM     11  C   UNL     1       3.801   3.694  17.041  0.00  0.00    +0.000 C 
BRANCH  11  12
ATOM     12  C   UNL     1       4.973   4.163  16.202  0.00  0.00    +0.000 A 
ATOM     13  C   UNL     1       4.946   4.021  14.804  0.00  0.00    +0.000 A 
ATOM     14  C   UNL     1       6.027   4.440  14.024  0.00  0.00    +0.000 A 
ATOM     15  C   UNL     1       7.139   5.003  14.640  0.00  0.00    +0.000 A 
ATOM     16  C   UNL     1       7.181   5.162  16.019  0.00  0.00    +0.000 A 
ATOM     17  C   UNL     1       6.098   4.748  16.798  0.00  0.00    +0.000 A 
BRANCH  15  18
ATOM     18  O   UNL     1       8.221   5.410  13.916  0.00  0.00    +0.000 OA
ATOM     19  H   UNL     1       8.142   5.048  13.019  0.00  0.00    +0.000 HD
ENDBRANCH  15  18
ENDBRANCH  11  12
ENDBRANCH   7  11
ENDBRANCH   4   7
ENDBRANCH   2   3
BRANCH   2  20
ATOM     20  C   UNL     1       1.831   7.341  20.459  0.00  0.00    +0.000 C 
ATOM     21  O   UNL     1       1.297   6.340  20.936  0.00  0.00    +0.000 OA
ATOM     22  N   UNL     1       1.822   8.552  21.113  0.00  0.00    +0.000 N 
ATOM     23  H   UNL     1       2.291   9.360  20.706  0.00  0.00    +0.000 HD
BRANCH  22  24
ATOM     24  C   UNL     1       1.130   8.754  22.379  0.00  0.00    +0.000 C 
BRANCH  24  25
ATOM     25  C   UNL     1       0.098   9.888  22.262  0.00  0.00    +0.000 C 
ATOM     26  O   UNL     1      -0.818  10.019  23.068  0.00  0.00    +0.000 OA
ATOM     27  N   UNL     1       0.285  10.749  21.193  0.00  0.00    +0.000 N 
ATOM     28  H   UNL     1       1.049  10.591  20.548  0.00  0.00    +0.000 HD
BRANCH  27  29
ATOM     29  C   UNL     1      -0.625  11.870  20.971  0.00  0.00    +0.000 C 
BRANCH  29  30
ATOM     30  C   UNL     1      -0.673  12.325  19.506  0.00  0.00    +0.000 C 
BRANCH  30  31
ATOM     31  C   UNL     1      -1.625  11.509  18.659  0.00  0.00    +0.000 A 
ATOM     32  C   UNL     1      -1.149  10.479  17.836  0.00  0.00    +0.000 A 
ATOM     33  C   UNL     1      -2.028   9.739  17.038  0.00  0.00    +0.000 A 
ATOM     34  C   UNL     1      -3.393  10.019  17.053  0.00  0.00    +0.000 A 
ATOM     35  C   UNL     1      -3.879  11.036  17.872  0.00  0.00    +0.000 A 
ATOM     36  C   UNL     1      -3.001  11.778  18.669  0.00  0.00    +0.000 A 
ENDBRANCH  30  31
ENDBRANCH  29  30
ENDBRANCH  27  29
ENDBRANCH  24  25
ENDBRANCH  22  24
ENDBRANCH   2  20
TORSDOF 12
ENDMDL
MODEL 9
REMARK VINA RESULT:      -6.9      2.785      4.094
REMARK  Name = 
REMARK  13 active torsions:
REMARK  status: ('A' for Active; 'I' for Inactive)
REMARK    1  A    between atoms: C_1  and  C_2
REMARK    2  A    between atoms: C_2  and  N_3
REMARK    3  A    between atoms: C_2  and  C_16
REMARK    4  A    between atoms: C_4  and  C_6
REMARK    5  A    between atoms: C_6  and  N_7
REMARK    6  A    between atoms: C_6  and  C_8
REMARK    7  A    between atoms: C_8  and  C_9
REMARK    8  A    between atoms: C_12  and  O_13
REMARK    9  A    between atoms: N_18  and  C_19
REMARK   10  A    between atoms: C_19  and  C_20
REMARK   11  A    between atoms: N_22  and  C_23
REMARK   12  A    between atoms: C_23  and  C_24
REMARK   13  A    between atoms: C_24  and  C_25
REMARK                            x       y       z     vdW  Elec       q    Type
REMARK                         _______ _______ _______ _____ _____    ______ ____
ROOT
ATOM      1  C   UNL     1       1.794   5.037  19.335  0.00  0.00    +0.000 C 
ATOM      2  C   UNL     1       2.906   6.085  19.347  0.00  0.00    +0.000 C 
ENDROOT
BRANCH   2   3
ATOM      3  N   UNL     1       2.381   7.364  18.857  0.00  0.00    +0.000 N 
ATOM      4  C   UNL     1       1.845   8.305  19.714  0.00  0.00    +0.000 C 
ATOM      5  O   UNL     1       1.761   8.112  20.921  0.00  0.00    +0.000 OA
ATOM      6  H   UNL     1       2.618   7.641  17.915  0.00  0.00    +0.000 HD
BRANCH   4   7
ATOM      7  C   UNL     1       1.351   9.616  19.048  0.00  0.00    +0.000 C 
BRANCH   7   8
ATOM      8  N   UNL     1       1.681   9.612  17.608  0.00  0.00    +0.000 NA
ATOM      9  H   UNL     1       1.243  10.389  17.126  0.00  0.00    +0.000 HD
ATOM     10  H   UNL     1       1.361   8.746  17.179  0.00  0.00    +0.000 HD
ENDBRANCH   7   8
BRANCH   7  11
ATOM     11  C   UNL     1      -0.161   9.807  19.287  0.00  0.00    +0.000 C 
BRANCH  11  12
ATOM     12  C   UNL     1      -0.514  10.748  20.422  0.00  0.00    +0.000 A 
ATOM     13  C   UNL     1      -0.516  10.287  21.750  0.00  0.00    +0.000 A 
ATOM     14  C   UNL     1      -0.852  11.143  22.801  0.00  0.00    +0.000 A 
ATOM     15  C   UNL     1      -1.187  12.464  22.529  0.00  0.00    +0.000 A 
ATOM     16  C   UNL     1      -1.180  12.943  21.225  0.00  0.00    +0.000 A 
ATOM     17  C   UNL     1      -0.839  12.088  20.174  0.00  0.00    +0.000 A 
BRANCH  15  18
ATOM     18  O   UNL     1      -1.535  13.329  23.525  0.00  0.00    +0.000 OA
ATOM     19  H   UNL     1      -1.152  14.198  23.322  0.00  0.00    +0.000 HD
ENDBRANCH  15  18
ENDBRANCH  11  12
ENDBRANCH   7  11
ENDBRANCH   4   7
ENDBRANCH   2   3
BRANCH   2  20
ATOM     20  C   UNL     1       4.085   5.612  18.459  0.00  0.00    +0.000 C 
ATOM     21  O   UNL     1       4.477   4.445  18.448  0.00  0.00    +0.000 OA
ATOM     22  N   UNL     1       4.606   6.563  17.612  0.00  0.00    +0.000 N 
ATOM     23  H   UNL     1       4.248   7.516  17.626  0.00  0.00    +0.000 HD
BRANCH  22  24
ATOM     24  C   UNL     1       5.698   6.277  16.691  0.00  0.00    +0.000 C 
BRANCH  24  25
ATOM     25  C   UNL     1       7.039   6.762  17.266  0.00  0.00    +0.000 C 
ATOM     26  O   UNL     1       7.843   5.991  17.781  0.00  0.00    +0.000 OA
ATOM     27  N   UNL     1       7.273   8.123  17.153  0.00  0.00    +0.000 N 
ATOM     28  H   UNL     1       6.572   8.719  16.732  0.00  0.00    +0.000 HD
BRANCH  27  29
ATOM     29  C   UNL     1       8.510   8.711  17.659  0.00  0.00    +0.000 C 
BRANCH  29  30
ATOM     30  C   UNL     1       8.272   9.826  18.686  0.00  0.00    +0.000 C 
BRANCH  30  31
ATOM     31  C   UNL     1       9.490  10.692  18.921  0.00  0.00    +0.000 A 
ATOM     32  C   UNL     1      10.354  11.014  17.866  0.00  0.00    +0.000 A 
ATOM     33  C   UNL     1      11.491  11.799  18.089  0.00  0.00    +0.000 A 
ATOM     34  C   UNL     1      11.778  12.270  19.368  0.00  0.00    +0.000 A 
ATOM     35  C   UNL     1      10.923  11.961  20.424  0.00  0.00    +0.000 A 
ATOM     36  C   UNL     1       9.786  11.175  20.204  0.00  0.00    +0.000 A 
ENDBRANCH  30  31
ENDBRANCH  29  30
ENDBRANCH  27  29
ENDBRANCH  24  25
ENDBRANCH  22  24
ENDBRANCH   2  20
TORSDOF 12
ENDMDL
