MODEL 1
REMARK VINA RESULT:      -6.3      0.000      0.000
REMARK  Name = 
REMARK  5 active torsions:
REMARK  status: ('A' for Active; 'I' for Inactive)
REMARK    1  A    between atoms: C_1  and  C_2
REMARK    2  A    between atoms: C_2  and  O_3
REMARK    3  A    between atoms: O_3  and  C_4
REMARK    4  A    between atoms: C_4  and  C_6
REMARK    5  A    between atoms: C_9  and  C_10
REMARK                            x       y       z     vdW  Elec       q    Type
REMARK                         _______ _______ _______ _____ _____    ______ ____
ROOT
ATOM      1  C   UNL     1       6.915   4.798  16.046  0.00  0.00    +0.000 A 
ATOM      2  N   UNL     1       7.798   4.633  17.014  0.00  0.00    +0.000 NA
ATOM      3  N   UNL     1       7.075   4.487  18.177  0.00  0.00    +0.000 NA
ATOM      4  C   UNL     1       5.796   4.568  17.852  0.00  0.00    +0.000 A 
ATOM      5  O   UNL     1       5.624   4.788  16.506  0.00  0.00    +0.000 OA
ENDROOT
BRANCH   4   6
ATOM      6  C   UNL     1       4.733   4.404  18.788  0.00  0.00    +0.000 A 
ATOM      7  C   UNL     1       4.005   5.376  19.445  0.00  0.00    +0.000 A 
ATOM      8  C   UNL     1       3.036   4.776  20.298  0.00  0.00    +0.000 A 
ATOM      9  N   UNL     1       2.999   3.448  20.327  0.00  0.00    +0.000 NA
ATOM     10  S   UNL     1       4.165   2.872  19.293  0.00  0.00    +0.000 S 
ENDBRANCH   4   6
BRANCH   1  11
ATOM     11  C   UNL     1       7.169   4.844  14.629  0.00  0.00    +0.000 C 
ATOM     12  O   UNL     1       7.995   5.557  14.070  0.00  0.00    +0.000 OA
BRANCH  11  13
ATOM     13  O   UNL     1       6.265   4.054  13.977  0.00  0.00    +0.000 OA
BRANCH  13  15
ATOM     14  C   UNL     1       5.373   3.060  11.995  0.00  0.00    +0.000 C 
ATOM     15  C   UNL     1       6.562   3.783  12.602  0.00  0.00    +0.000 C 
ENDBRANCH  13  15
ENDBRANCH  11  13
ENDBRANCH   1  11
TORSDOF 4
ENDMDL
MODEL 2
REMARK VINA RESULT:      -6.2      2.390      3.476
REMARK  Name = 
REMARK  5 active torsions:
REMARK  status: ('A' for Active; 'I' for Inactive)
REMARK    1  A    between atoms: C_1  and  C_2
REMARK    2  A    between atoms: C_2  and  O_3
REMARK    3  A    between atoms: O_3  and  C_4
REMARK    4  A    between atoms: C_4  and  C_6
REMARK    5  A    between atoms: C_9  and  C_10
REMARK                            x       y       z     vdW  Elec       q    Type
REMARK                         _______ _______ _______ _____ _____    ______ ____
ROOT
ATOM      1  C   UNL     1       6.144   4.936  17.639  0.00  0.00    +0.000 A 
ATOM      2  N   UNL     1       6.561   4.336  18.739  0.00  0.00    +0.000 NA
ATOM      3  N   UNL     1       5.439   3.828  19.353  0.00  0.00    +0.000 NA
ATOM      4  C   UNL     1       4.403   4.143  18.594  0.00  0.00    +0.000 A 
ATOM      5  O   UNL     1       4.783   4.872  17.492  0.00  0.00    +0.000 OA
ENDROOT
BRANCH   4   6
ATOM      6  C   UNL     1       3.067   3.736  18.874  0.00  0.00    +0.000 A 
ATOM      7  C   UNL     1       2.184   4.254  19.802  0.00  0.00    +0.000 A 
ATOM      8  C   UNL     1       0.949   3.547  19.758  0.00  0.00    +0.000 A 
ATOM      9  N   UNL     1       0.856   2.551  18.883  0.00  0.00    +0.000 NA
ATOM     10  S   UNL     1       2.299   2.440  18.066  0.00  0.00    +0.000 S 
ENDBRANCH   4   6
BRANCH   1  11
ATOM     11  C   UNL     1       6.951   5.492  16.584  0.00  0.00    +0.000 C 
ATOM     12  O   UNL     1       7.579   4.852  15.746  0.00  0.00    +0.000 OA
BRANCH  11  13
ATOM     13  O   UNL     1       7.014   6.849  16.723  0.00  0.00    +0.000 OA
BRANCH  13  15
ATOM     14  C   UNL     1       7.933   8.816  17.725  0.00  0.00    +0.000 C 
ATOM     15  C   UNL     1       7.724   7.319  17.876  0.00  0.00    +0.000 C 
ENDBRANCH  13  15
ENDBRANCH  11  13
ENDBRANCH   1  11
TORSDOF 4
ENDMDL
MODEL 3
REMARK VINA RESULT:      -6.2      2.833      3.573
REMARK  Name = 
REMARK  5 active torsions:
REMARK  status: ('A' for Active; 'I' for Inactive)
REMARK    1  A    between atoms: C_1  and  C_2
REMARK    2  A    between atoms: C_2  and  O_3
REMARK    3  A    between atoms: O_3  and  C_4
REMARK    4  A    between atoms: C_4  and  C_6
REMARK    5  A    between atoms: C_9  and  C_10
REMARK                            x       y       z     vdW  Elec       q    Type
REMARK                         _______ _______ _______ _____ _____    ______ ____
ROOT
ATOM      1  C   UNL     1       5.974   4.209  17.443  0.00  0.00    +0.000 A 
ATOM      2  N   UNL     1       5.036   4.140  16.515  0.00  0.00    +0.000 NA
ATOM      3  N   UNL     1       3.870   3.805  17.167  0.00  0.00    +0.000 NA
ATOM      4  C   UNL     1       4.161   3.692  18.451  0.00  0.00    +0.000 A 
ATOM      5  O   UNL     1       5.495   3.916  18.693  0.00  0.00    +0.000 OA
ENDROOT
BRANCH   4   6
ATOM      6  C   UNL     1       3.191   3.411  19.457  0.00  0.00    +0.000 A 
ATOM      7  C   UNL     1       3.362   2.758  20.662  0.00  0.00    +0.000 A 
ATOM      8  C   UNL     1       2.127   2.688  21.366  0.00  0.00    +0.000 A 
ATOM      9  N   UNL     1       1.066   3.227  20.776  0.00  0.00    +0.000 NA
ATOM     10  S   UNL     1       1.545   3.852  19.313  0.00  0.00    +0.000 S 
ENDBRANCH   4   6
BRANCH   1  11
ATOM     11  C   UNL     1       7.329   4.668  17.285  0.00  0.00    +0.000 C 
ATOM     12  O   UNL     1       8.326   4.147  17.775  0.00  0.00    +0.000 OA
BRANCH  11  13
ATOM     13  O   UNL     1       7.334   5.849  16.600  0.00  0.00    +0.000 OA
BRANCH  13  15
ATOM     14  C   UNL     1       7.867   7.915  17.679  0.00  0.00    +0.000 C 
ATOM     15  C   UNL     1       6.750   6.964  17.287  0.00  0.00    +0.000 C 
ENDBRANCH  13  15
ENDBRANCH  11  13
ENDBRANCH   1  11
TORSDOF 4
ENDMDL
MODEL 4
REMARK VINA RESULT:      -6.2      1.071      1.163
REMARK  Name = 
REMARK  5 active torsions:
REMARK  status: ('A' for Active; 'I' for Inactive)
REMARK    1  A    between atoms: C_1  and  C_2
REMARK    2  A    between atoms: C_2  and  O_3
REMARK    3  A    between atoms: O_3  and  C_4
REMARK    4  A    between atoms: C_4  and  C_6
REMARK    5  A    between atoms: C_9  and  C_10
REMARK                            x       y       z     vdW  Elec       q    Type
REMARK                         _______ _______ _______ _____ _____    ______ ____
ROOT
ATOM      1  C   UNL     1       6.743   4.613  16.368  0.00  0.00    +0.000 A 
ATOM      2  N   UNL     1       7.610   4.651  17.363  0.00  0.00    +0.000 NA
ATOM      3  N   UNL     1       6.883   4.459  18.517  0.00  0.00    +0.000 NA
ATOM      4  C   UNL     1       5.619   4.313  18.161  0.00  0.00    +0.000 A 
ATOM      5  O   UNL     1       5.457   4.422  16.800  0.00  0.00    +0.000 OA
ENDROOT
BRANCH   4   6
ATOM      6  C   UNL     1       4.567   4.035  19.082  0.00  0.00    +0.000 A 
ATOM      7  C   UNL     1       4.232   2.831  19.670  0.00  0.00    +0.000 A 
ATOM      8  C   UNL     1       3.107   2.995  20.527  0.00  0.00    +0.000 A 
ATOM      9  N   UNL     1       2.586   4.215  20.609  0.00  0.00    +0.000 NA
ATOM     10  S   UNL     1       3.467   5.225  19.627  0.00  0.00    +0.000 S 
ENDBRANCH   4   6
BRANCH   1  11
ATOM     11  C   UNL     1       7.031   4.615  14.957  0.00  0.00    +0.000 C 
ATOM     12  O   UNL     1       7.719   5.440  14.365  0.00  0.00    +0.000 OA
BRANCH  11  13
ATOM     13  O   UNL     1       6.323   3.621  14.345  0.00  0.00    +0.000 OA
BRANCH  13  15
ATOM     14  C   UNL     1       5.843   3.034  12.078  0.00  0.00    +0.000 C 
ATOM     15  C   UNL     1       5.563   4.021  13.197  0.00  0.00    +0.000 C 
ENDBRANCH  13  15
ENDBRANCH  11  13
ENDBRANCH   1  11
TORSDOF 4
ENDMDL
MODEL 5
REMARK VINA RESULT:      -6.2      1.957      2.429
REMARK  Name = 
REMARK  5 active torsions:
REMARK  status: ('A' for Active; 'I' for Inactive)
REMARK    1  A    between atoms: C_1  and  C_2
REMARK    2  A    between atoms: C_2  and  O_3
REMARK    3  A    between atoms: O_3  and  C_4
REMARK    4  A    between atoms: C_4  and  C_6
REMARK    5  A    between atoms: C_9  and  C_10
REMARK                            x       y       z     vdW  Elec       q    Type
REMARK                         _______ _______ _______ _____ _____    ______ ____
ROOT
ATOM      1  C   UNL     1       6.022   5.391  17.735  0.00  0.00    +0.000 A 
ATOM      2  N   UNL     1       6.539   4.607  18.663  0.00  0.00    +0.000 NA
ATOM      3  N   UNL     1       5.485   3.910  19.213  0.00  0.00    +0.000 NA
ATOM      4  C   UNL     1       4.390   4.307  18.588  0.00  0.00    +0.000 A 
ATOM      5  O   UNL     1       4.660   5.270  17.645  0.00  0.00    +0.000 OA
ENDROOT
BRANCH   4   6
ATOM      6  C   UNL     1       3.097   3.764  18.844  0.00  0.00    +0.000 A 
ATOM      7  C   UNL     1       2.266   3.074  17.982  0.00  0.00    +0.000 A 
ATOM      8  C   UNL     1       1.058   2.714  18.644  0.00  0.00    +0.000 A 
ATOM      9  N   UNL     1       0.932   3.087  19.913  0.00  0.00    +0.000 NA
ATOM     10  S   UNL     1       2.308   3.906  20.354  0.00  0.00    +0.000 S 
ENDBRANCH   4   6
BRANCH   1  11
ATOM     11  C   UNL     1       6.732   6.203  16.781  0.00  0.00    +0.000 C 
ATOM     12  O   UNL     1       7.532   7.094  17.050  0.00  0.00    +0.000 OA
BRANCH  11  13
ATOM     13  O   UNL     1       6.295   5.914  15.520  0.00  0.00    +0.000 OA
BRANCH  13  15
ATOM     14  C   UNL     1       6.018   3.926  14.223  0.00  0.00    +0.000 C 
ATOM     15  C   UNL     1       7.022   4.886  14.836  0.00  0.00    +0.000 C 
ENDBRANCH  13  15
ENDBRANCH  11  13
ENDBRANCH   1  11
TORSDOF 4
ENDMDL
MODEL 6
REMARK VINA RESULT:      -6.1      1.728      2.337
REMARK  Name = 
REMARK  5 active torsions:
REMARK  status: ('A' for Active; 'I' for Inactive)
REMARK    1  A    between atoms: C_1  and  C_2
REMARK    2  A    between atoms: C_2  and  O_3
REMARK    3  A    between atoms: O_3  and  C_4
REMARK    4  A    between atoms: C_4  and  C_6
REMARK    5  A    between atoms: C_9  and  C_10
REMARK                            x       y       z     vdW  Elec       q    Type
REMARK                         _______ _______ _______ _____ _____    ______ ____
ROOT
ATOM      1  C   UNL     1       6.248   5.580  17.935  0.00  0.00    +0.000 A 
ATOM      2  N   UNL     1       6.701   4.518  18.577  0.00  0.00    +0.000 NA
ATOM      3  N   UNL     1       5.620   3.972  19.234  0.00  0.00    +0.000 NA
ATOM      4  C   UNL     1       4.572   4.728  18.954  0.00  0.00    +0.000 A 
ATOM      5  O   UNL     1       4.909   5.786  18.144  0.00  0.00    +0.000 OA
ENDROOT
BRANCH   4   6
ATOM      6  C   UNL     1       3.252   4.444  19.409  0.00  0.00    +0.000 A 
ATOM      7  C   UNL     1       2.531   5.069  20.407  0.00  0.00    +0.000 A 
ATOM      8  C   UNL     1       1.249   4.466  20.543  0.00  0.00    +0.000 A 
ATOM      9  N   UNL     1       0.973   3.448  19.734  0.00  0.00    +0.000 NA
ATOM     10  S   UNL     1       2.293   3.186  18.759  0.00  0.00    +0.000 S 
ENDBRANCH   4   6
BRANCH   1  11
ATOM     11  C   UNL     1       6.958   6.400  16.989  0.00  0.00    +0.000 C 
ATOM     12  O   UNL     1       7.196   7.597  17.112  0.00  0.00    +0.000 OA
BRANCH  11  13
ATOM     13  O   UNL     1       7.233   5.671  15.867  0.00  0.00    +0.000 OA
BRANCH  13  15
ATOM     14  C   UNL     1       6.310   3.949  14.489  0.00  0.00    +0.000 C 
ATOM     15  C   UNL     1       6.101   5.344  15.052  0.00  0.00    +0.000 C 
ENDBRANCH  13  15
ENDBRANCH  11  13
ENDBRANCH   1  11
TORSDOF 4
ENDMDL
MODEL 7
REMARK VINA RESULT:      -6.1      1.460      1.583
REMARK  Name = 
REMARK  5 active torsions:
REMARK  status: ('A' for Active; 'I' for Inactive)
REMARK    1  A    between atoms: C_1  and  C_2
REMARK    2  A    between atoms: C_2  and  O_3
REMARK    3  A    between atoms: O_3  and  C_4
REMARK    4  A    between atoms: C_4  and  C_6
REMARK    5  A    between atoms: C_9  and  C_10
REMARK                            x       y       z     vdW  Elec       q    Type
REMARK                         _______ _______ _______ _____ _____    ______ ____
ROOT
ATOM      1  C   UNL     1       6.255   4.453  16.475  0.00  0.00    +0.000 A 
ATOM      2  N   UNL     1       6.846   4.620  17.643  0.00  0.00    +0.000 NA
ATOM      3  N   UNL     1       5.932   4.237  18.599  0.00  0.00    +0.000 NA
ATOM      4  C   UNL     1       4.838   3.857  17.961  0.00  0.00    +0.000 A 
ATOM      5  O   UNL     1       4.970   3.991  16.599  0.00  0.00    +0.000 OA
ENDROOT
BRANCH   4   6
ATOM      6  C   UNL     1       3.684   3.336  18.615  0.00  0.00    +0.000 A 
ATOM      7  C   UNL     1       2.964   2.196  18.314  0.00  0.00    +0.000 A 
ATOM      8  C   UNL     1       1.876   2.046  19.221  0.00  0.00    +0.000 A 
ATOM      9  N   UNL     1       1.736   2.982  20.154  0.00  0.00    +0.000 NA
ATOM     10  S   UNL     1       2.949   4.100  19.957  0.00  0.00    +0.000 S 
ENDBRANCH   4   6
BRANCH   1  11
ATOM     11  C   UNL     1       6.848   4.573  15.168  0.00  0.00    +0.000 C 
ATOM     12  O   UNL     1       7.736   5.358  14.852  0.00  0.00    +0.000 OA
BRANCH  11  13
ATOM     13  O   UNL     1       6.191   3.759  14.291  0.00  0.00    +0.000 OA
BRANCH  13  15
ATOM     14  C   UNL     1       5.573   3.134  12.068  0.00  0.00    +0.000 C 
ATOM     15  C   UNL     1       6.579   3.890  12.918  0.00  0.00    +0.000 C 
ENDBRANCH  13  15
ENDBRANCH  11  13
ENDBRANCH   1  11
TORSDOF 4
ENDMDL
MODEL 8
REMARK VINA RESULT:      -6.1      2.600      3.349
REMARK  Name = 
REMARK  5 active torsions:
REMARK  status: ('A' for Active; 'I' for Inactive)
REMARK    1  A    between atoms: C_1  and  C_2
REMARK    2  A    between atoms: C_2  and  O_3
REMARK    3  A    between atoms: O_3  and  C_4
REMARK    4  A    between atoms: C_4  and  C_6
REMARK    5  A    between atoms: C_9  and  C_10
REMARK                            x       y       z     vdW  Elec       q    Type
REMARK                         _______ _______ _______ _____ _____    ______ ____
ROOT
ATOM      1  C   UNL     1       5.725   4.372  17.161  0.00  0.00    +0.000 A 
ATOM      2  N   UNL     1       4.622   4.268  16.441  0.00  0.00    +0.000 NA
ATOM      3  N   UNL     1       3.615   3.939  17.321  0.00  0.00    +0.000 NA
ATOM      4  C   UNL     1       4.158   3.864  18.524  0.00  0.00    +0.000 A 
ATOM      5  O   UNL     1       5.510   4.109  18.489  0.00  0.00    +0.000 OA
ENDROOT
BRANCH   4   6
ATOM      6  C   UNL     1       3.413   3.601  19.710  0.00  0.00    +0.000 A 
ATOM      7  C   UNL     1       2.305   4.266  20.197  0.00  0.00    +0.000 A 
ATOM      8  C   UNL     1       1.874   3.679  21.420  0.00  0.00    +0.000 A 
ATOM      9  N   UNL     1       2.577   2.646  21.873  0.00  0.00    +0.000 NA
ATOM     10  S   UNL     1       3.812   2.347  20.802  0.00  0.00    +0.000 S 
ENDBRANCH   4   6
BRANCH   1  11
ATOM     11  C   UNL     1       7.013   4.841  16.724  0.00  0.00    +0.000 C 
ATOM     12  O   UNL     1       8.079   4.248  16.862  0.00  0.00    +0.000 OA
BRANCH  11  13
ATOM     13  O   UNL     1       6.895   6.109  16.231  0.00  0.00    +0.000 OA
BRANCH  13  15
ATOM     14  C   UNL     1       7.746   7.795  17.696  0.00  0.00    +0.000 C 
ATOM     15  C   UNL     1       6.496   7.105  17.180  0.00  0.00    +0.000 C 
ENDBRANCH  13  15
ENDBRANCH  11  13
ENDBRANCH   1  11
TORSDOF 4
ENDMDL
MODEL 9
REMARK VINA RESULT:      -6.1      1.499      1.534
REMARK  Name = 
REMARK  5 active torsions:
REMARK  status: ('A' for Active; 'I' for Inactive)
REMARK    1  A    between atoms: C_1  and  C_2
REMARK    2  A    between atoms: C_2  and  O_3
REMARK    3  A    between atoms: O_3  and  C_4
REMARK    4  A    between atoms: C_4  and  C_6
REMARK    5  A    between atoms: C_9  and  C_10
REMARK                            x       y       z     vdW  Elec       q    Type
REMARK                         _______ _______ _______ _____ _____    ______ ____
ROOT
ATOM      1  C   UNL     1       6.059   4.564  16.041  0.00  0.00    +0.000 A 
ATOM      2  N   UNL     1       6.476   4.946  17.235  0.00  0.00    +0.000 NA
ATOM      3  N   UNL     1       5.473   4.621  18.119  0.00  0.00    +0.000 NA
ATOM      4  C   UNL     1       4.503   4.059  17.418  0.00  0.00    +0.000 A 
ATOM      5  O   UNL     1       4.805   4.010  16.078  0.00  0.00    +0.000 OA
ENDROOT
BRANCH   4   6
ATOM      6  C   UNL     1       3.313   3.533  18.000  0.00  0.00    +0.000 A 
ATOM      7  C   UNL     1       2.132   4.189  18.290  0.00  0.00    +0.000 A 
ATOM      8  C   UNL     1       1.196   3.288  18.872  0.00  0.00    +0.000 A 
ATOM      9  N   UNL     1       1.594   2.031  19.038  0.00  0.00    +0.000 NA
ATOM     10  S   UNL     1       3.153   1.899  18.479  0.00  0.00    +0.000 S 
ENDBRANCH   4   6
BRANCH   1  11
ATOM     11  C   UNL     1       6.810   4.552  14.814  0.00  0.00    +0.000 C 
ATOM     12  O   UNL     1       7.644   5.385  14.473  0.00  0.00    +0.000 OA
BRANCH  11  13
ATOM     13  O   UNL     1       6.372   3.531  14.020  0.00  0.00    +0.000 OA
BRANCH  13  15
ATOM     14  C   UNL     1       5.255   3.178  11.936  0.00  0.00    +0.000 C 
ATOM     15  C   UNL     1       6.489   3.752  12.609  0.00  0.00    +0.000 C 
ENDBRANCH  13  15
ENDBRANCH  11  13
ENDBRANCH   1  11
TORSDOF 4
ENDMDL
