MODEL 1
REMARK VINA RESULT:      -8.5      0.000      0.000
REMARK  Name = 
REMARK  6 active torsions:
REMARK  status: ('A' for Active; 'I' for Inactive)
REMARK    1  A    between atoms: C_1  and  C_2
REMARK    2  A    between atoms: C_6  and  N_7
REMARK    3  A    between atoms: C_8  and  C_10
REMARK    4  A    between atoms: C_10  and  N_11
REMARK    5  A    between atoms: C_14  and  C_15
REMARK    6  A    between atoms: C_19  and  O_20
REMARK                            x       y       z     vdW  Elec       q    Type
REMARK                         _______ _______ _______ _____ _____    ______ ____
ROOT
ATOM      1  N   UNL     1       6.068   6.895  17.959  0.00  0.00    +0.000 NA
ATOM      2  C   UNL     1       6.520   5.616  18.513  0.00  0.00    +0.000 C 
ATOM      3  C   UNL     1       5.344   4.973  19.228  0.00  0.00    +0.000 C 
ATOM      4  C   UNL     1       4.378   4.415  18.182  0.00  0.00    +0.000 C 
ATOM      5  C   UNL     1       4.224   5.372  16.980  0.00  0.00    +0.000 C 
ATOM      6  C   UNL     1       4.822   6.782  17.174  0.00  0.00    +0.000 C 
ENDROOT
BRANCH   4   7
ATOM      7  C   UNL     1       3.119   3.915  18.863  0.00  0.00    +0.000 A 
ATOM      8  C   UNL     1       2.769   4.462  20.112  0.00  0.00    +0.000 A 
ATOM      9  C   UNL     1       1.585   4.098  20.755  0.00  0.00    +0.000 A 
ATOM     10  C   UNL     1       0.726   3.179  20.159  0.00  0.00    +0.000 A 
ATOM     11  C   UNL     1       1.062   2.635  18.923  0.00  0.00    +0.000 A 
ATOM     12  C   UNL     1       2.244   2.995  18.272  0.00  0.00    +0.000 A 
BRANCH  11  13
ATOM     13  O   UNL     1       0.237   1.742  18.300  0.00  0.00    +0.000 OA
ATOM     14  H   UNL     1       0.748   1.276  17.618  0.00  0.00    +0.000 HD
ENDBRANCH  11  13
ENDBRANCH   4   7
BRANCH   1  15
ATOM     15  C   UNL     1       7.148   7.592  17.223  0.00  0.00    +0.000 C 
BRANCH  15  17
ATOM     16  N   UNL     1       8.412   9.582  17.896  0.00  0.00    +0.000 N 
ATOM     17  C   UNL     1       8.182   8.239  18.166  0.00  0.00    +0.000 C 
ATOM     18  O   UNL     1       8.753   7.559  19.017  0.00  0.00    +0.000 OA
ATOM     19  H   UNL     1       7.827   9.958  17.152  0.00  0.00    +0.000 HD
BRANCH  16  25
ATOM     20  C   UNL     1      12.019  12.948  17.625  0.00  0.00    +0.000 C 
ATOM     21  C   UNL     1      11.050  12.141  18.442  0.00  0.00    +0.000 A 
ATOM     22  C   UNL     1      11.014  12.289  19.832  0.00  0.00    +0.000 A 
ATOM     23  C   UNL     1      10.112  11.546  20.588  0.00  0.00    +0.000 A 
ATOM     24  C   UNL     1       9.243  10.647  19.966  0.00  0.00    +0.000 A 
ATOM     25  C   UNL     1       9.259  10.477  18.581  0.00  0.00    +0.000 A 
ATOM     26  C   UNL     1      10.167  11.238  17.825  0.00  0.00    +0.000 A 
ENDBRANCH  16  25
ENDBRANCH  15  17
ENDBRANCH   1  15
TORSDOF 5
ENDMDL
MODEL 2
REMARK VINA RESULT:      -8.3      5.066      8.004
REMARK  Name = 
REMARK  6 active torsions:
REMARK  status: ('A' for Active; 'I' for Inactive)
REMARK    1  A    between atoms: C_1  and  C_2
REMARK    2  A    between atoms: C_6  and  N_7
REMARK    3  A    between atoms: C_8  and  C_10
REMARK    4  A    between atoms: C_10  and  N_11
REMARK    5  A    between atoms: C_14  and  C_15
REMARK    6  A    between atoms: C_19  and  O_20
REMARK                            x       y       z     vdW  Elec       q    Type
REMARK                         _______ _______ _______ _____ _____    ______ ____
ROOT
ATOM      1  N   UNL     1       4.075   4.974  18.397  0.00  0.00    +0.000 NA
ATOM      2  C   UNL     1       3.904   3.663  17.764  0.00  0.00    +0.000 C 
ATOM      3  C   UNL     1       4.382   3.769  16.327  0.00  0.00    +0.000 C 
ATOM      4  C   UNL     1       5.911   3.806  16.319  0.00  0.00    +0.000 C 
ATOM      5  C   UNL     1       6.467   4.674  17.468  0.00  0.00    +0.000 C 
ATOM      6  C   UNL     1       5.426   5.540  18.209  0.00  0.00    +0.000 C 
ENDROOT
BRANCH   4   7
ATOM      7  C   UNL     1       6.409   4.077  14.913  0.00  0.00    +0.000 A 
ATOM      8  C   UNL     1       5.730   3.483  13.833  0.00  0.00    +0.000 A 
ATOM      9  C   UNL     1       6.093   3.753  12.513  0.00  0.00    +0.000 A 
ATOM     10  C   UNL     1       7.146   4.625  12.247  0.00  0.00    +0.000 A 
ATOM     11  C   UNL     1       7.821   5.219  13.308  0.00  0.00    +0.000 A 
ATOM     12  C   UNL     1       7.463   4.956  14.632  0.00  0.00    +0.000 A 
BRANCH  11  13
ATOM     13  O   UNL     1       8.849   6.091  13.086  0.00  0.00    +0.000 OA
ATOM     14  H   UNL     1       9.123   6.467  13.939  0.00  0.00    +0.000 HD
ENDBRANCH  11  13
ENDBRANCH   4   7
BRANCH   1  15
ATOM     15  C   UNL     1       3.649   4.963  19.815  0.00  0.00    +0.000 C 
BRANCH  15  17
ATOM     16  N   UNL     1       2.598   7.167  20.039  0.00  0.00    +0.000 N 
ATOM     17  C   UNL     1       2.374   5.797  20.055  0.00  0.00    +0.000 C 
ATOM     18  O   UNL     1       1.304   5.236  20.288  0.00  0.00    +0.000 OA
ATOM     19  H   UNL     1       3.558   7.424  19.820  0.00  0.00    +0.000 HD
BRANCH  16  25
ATOM     20  C   UNL     1      -0.409   9.678  23.050  0.00  0.00    +0.000 C 
ATOM     21  C   UNL     1       0.165   9.446  21.681  0.00  0.00    +0.000 A 
ATOM     22  C   UNL     1      -0.239  10.245  20.608  0.00  0.00    +0.000 A 
ATOM     23  C   UNL     1       0.297  10.033  19.342  0.00  0.00    +0.000 A 
ATOM     24  C   UNL     1       1.238   9.021  19.134  0.00  0.00    +0.000 A 
ATOM     25  C   UNL     1       1.657   8.207  20.187  0.00  0.00    +0.000 A 
ATOM     26  C   UNL     1       1.116   8.434  21.464  0.00  0.00    +0.000 A 
ENDBRANCH  16  25
ENDBRANCH  15  17
ENDBRANCH   1  15
TORSDOF 5
ENDMDL
MODEL 3
REMARK VINA RESULT:      -8.2      6.156      8.769
REMARK  Name = 
REMARK  6 active torsions:
REMARK  status: ('A' for Active; 'I' for Inactive)
REMARK    1  A    between atoms: C_1  and  C_2
REMARK    2  A    between atoms: C_6  and  N_7
REMARK    3  A    between atoms: C_8  and  C_10
REMARK    4  A    between atoms: C_10  and  N_11
REMARK    5  A    between atoms: C_14  and  C_15
REMARK    6  A    between atoms: C_19  and  O_20
REMARK                            x       y       z     vdW  Elec       q    Type
REMARK                         _______ _______ _______ _____ _____    ______ ____
ROOT
ATOM      1  N   UNL     1       1.133   8.862  19.639  0.00  0.00    +0.000 NA
ATOM      2  C   UNL     1       1.531   8.187  20.877  0.00  0.00    +0.000 C 
ATOM      3  C   UNL     1       1.436   6.689  20.647  0.00  0.00    +0.000 C 
ATOM      4  C   UNL     1       2.618   6.249  19.783  0.00  0.00    +0.000 C 
ATOM      5  C   UNL     1       2.914   7.266  18.660  0.00  0.00    +0.000 C 
ATOM      6  C   UNL     1       1.834   8.349  18.445  0.00  0.00    +0.000 C 
ENDROOT
BRANCH   4   7
ATOM      7  C   UNL     1       2.458   4.790  19.401  0.00  0.00    +0.000 A 
ATOM      8  C   UNL     1       1.227   4.160  19.660  0.00  0.00    +0.000 A 
ATOM      9  C   UNL     1       0.992   2.842  19.266  0.00  0.00    +0.000 A 
ATOM     10  C   UNL     1       1.987   2.128  18.603  0.00  0.00    +0.000 A 
ATOM     11  C   UNL     1       3.207   2.744  18.341  0.00  0.00    +0.000 A 
ATOM     12  C   UNL     1       3.450   4.063  18.730  0.00  0.00    +0.000 A 
BRANCH  11  13
ATOM     13  O   UNL     1       4.201   2.080  17.680  0.00  0.00    +0.000 OA
ATOM     14  H   UNL     1       4.852   1.772  18.333  0.00  0.00    +0.000 HD
ENDBRANCH  11  13
ENDBRANCH   4   7
BRANCH   1  15
ATOM     15  C   UNL     1       1.211  10.336  19.762  0.00  0.00    +0.000 C 
BRANCH  15  17
ATOM     16  N   UNL     1      -0.964  10.266  18.633  0.00  0.00    +0.000 N 
ATOM     17  C   UNL     1       0.142  11.057  18.917  0.00  0.00    +0.000 C 
ATOM     18  O   UNL     1       0.339  12.204  18.519  0.00  0.00    +0.000 OA
ATOM     19  H   UNL     1      -0.933   9.346  19.066  0.00  0.00    +0.000 HD
BRANCH  16  25
ATOM     20  C   UNL     1      -3.462  10.105  14.372  0.00  0.00    +0.000 C 
ATOM     21  C   UNL     1      -3.362  10.540  15.807  0.00  0.00    +0.000 A 
ATOM     22  C   UNL     1      -4.401  11.271  16.391  0.00  0.00    +0.000 A 
ATOM     23  C   UNL     1      -4.310  11.669  17.721  0.00  0.00    +0.000 A 
ATOM     24  C   UNL     1      -3.182  11.345  18.479  0.00  0.00    +0.000 A 
ATOM     25  C   UNL     1      -2.130  10.618  17.921  0.00  0.00    +0.000 A 
ATOM     26  C   UNL     1      -2.234  10.214  16.580  0.00  0.00    +0.000 A 
ENDBRANCH  16  25
ENDBRANCH  15  17
ENDBRANCH   1  15
TORSDOF 5
ENDMDL
MODEL 4
REMARK VINA RESULT:      -8.2      5.163      7.780
REMARK  Name = 
REMARK  6 active torsions:
REMARK  status: ('A' for Active; 'I' for Inactive)
REMARK    1  A    between atoms: C_1  and  C_2
REMARK    2  A    between atoms: C_6  and  N_7
REMARK    3  A    between atoms: C_8  and  C_10
REMARK    4  A    between atoms: C_10  and  N_11
REMARK    5  A    between atoms: C_14  and  C_15
REMARK    6  A    between atoms: C_19  and  O_20
REMARK                            x       y       z     vdW  Elec       q    Type
REMARK                         _______ _______ _______ _____ _____    ______ ____
ROOT
ATOM      1  N   UNL     1       4.376   3.577  18.859  0.00  0.00    +0.000 NA
ATOM      2  C   UNL     1       5.472   4.549  18.874  0.00  0.00    +0.000 C 
ATOM      3  C   UNL     1       6.244   4.407  17.573  0.00  0.00    +0.000 C 
ATOM      4  C   UNL     1       5.425   5.036  16.446  0.00  0.00    +0.000 C 
ATOM      5  C   UNL     1       3.922   4.715  16.584  0.00  0.00    +0.000 C 
ATOM      6  C   UNL     1       3.568   3.630  17.623  0.00  0.00    +0.000 C 
ENDROOT
BRANCH   4   7
ATOM      7  C   UNL     1       6.095   4.763  15.113  0.00  0.00    +0.000 A 
ATOM      8  C   UNL     1       5.497   3.837  14.239  0.00  0.00    +0.000 A 
ATOM      9  C   UNL     1       6.023   3.596  12.969  0.00  0.00    +0.000 A 
ATOM     10  C   UNL     1       7.160   4.281  12.547  0.00  0.00    +0.000 A 
ATOM     11  C   UNL     1       7.756   5.201  13.404  0.00  0.00    +0.000 A 
ATOM     12  C   UNL     1       7.235   5.449  14.676  0.00  0.00    +0.000 A 
BRANCH  11  13
ATOM     13  O   UNL     1       8.863   5.902  13.020  0.00  0.00    +0.000 OA
ATOM     14  H   UNL     1       9.346   5.378  12.359  0.00  0.00    +0.000 HD
ENDBRANCH  11  13
ENDBRANCH   4   7
BRANCH   1  15
ATOM     15  C   UNL     1       3.552   3.654  20.087  0.00  0.00    +0.000 C 
BRANCH  15  17
ATOM     16  N   UNL     1       2.928   6.023  19.994  0.00  0.00    +0.000 N 
ATOM     17  C   UNL     1       2.444   4.721  19.990  0.00  0.00    +0.000 C 
ATOM     18  O   UNL     1       1.261   4.383  19.969  0.00  0.00    +0.000 OA
ATOM     19  H   UNL     1       3.944   6.083  20.008  0.00  0.00    +0.000 HD
BRANCH  16  25
ATOM     20  C   UNL     1      -0.111   9.275  22.139  0.00  0.00    +0.000 C 
ATOM     21  C   UNL     1       0.691   8.832  20.948  0.00  0.00    +0.000 A 
ATOM     22  C   UNL     1       0.694   9.602  19.780  0.00  0.00    +0.000 A 
ATOM     23  C   UNL     1       1.440   9.193  18.680  0.00  0.00    +0.000 A 
ATOM     24  C   UNL     1       2.187   8.014  18.732  0.00  0.00    +0.000 A 
ATOM     25  C   UNL     1       2.200   7.225  19.883  0.00  0.00    +0.000 A 
ATOM     26  C   UNL     1       1.449   7.650  20.992  0.00  0.00    +0.000 A 
ENDBRANCH  16  25
ENDBRANCH  15  17
ENDBRANCH   1  15
TORSDOF 5
ENDMDL
MODEL 5
REMARK VINA RESULT:      -8.1      6.026      8.672
REMARK  Name = 
REMARK  6 active torsions:
REMARK  status: ('A' for Active; 'I' for Inactive)
REMARK    1  A    between atoms: C_1  and  C_2
REMARK    2  A    between atoms: C_6  and  N_7
REMARK    3  A    between atoms: C_8  and  C_10
REMARK    4  A    between atoms: C_10  and  N_11
REMARK    5  A    between atoms: C_14  and  C_15
REMARK    6  A    between atoms: C_19  and  O_20
REMARK                            x       y       z     vdW  Elec       q    Type
REMARK                         _______ _______ _______ _____ _____    ______ ____
ROOT
ATOM      1  N   UNL     1       1.486   8.892  18.936  0.00  0.00    +0.000 NA
ATOM      2  C   UNL     1       1.852   8.157  20.150  0.00  0.00    +0.000 C 
ATOM      3  C   UNL     1       1.749   6.672  19.849  0.00  0.00    +0.000 C 
ATOM      4  C   UNL     1       2.945   6.261  18.990  0.00  0.00    +0.000 C 
ATOM      5  C   UNL     1       3.273   7.326  17.921  0.00  0.00    +0.000 C 
ATOM      6  C   UNL     1       2.208   8.428  17.734  0.00  0.00    +0.000 C 
ENDROOT
BRANCH   4   7
ATOM      7  C   UNL     1       2.780   4.822  18.538  0.00  0.00    +0.000 A 
ATOM      8  C   UNL     1       3.894   4.159  17.991  0.00  0.00    +0.000 A 
ATOM      9  C   UNL     1       3.827   2.814  17.626  0.00  0.00    +0.000 A 
ATOM     10  C   UNL     1       2.642   2.105  17.801  0.00  0.00    +0.000 A 
ATOM     11  C   UNL     1       1.536   2.752  18.343  0.00  0.00    +0.000 A 
ATOM     12  C   UNL     1       1.595   4.097  18.714  0.00  0.00    +0.000 A 
BRANCH  11  13
ATOM     13  O   UNL     1       0.361   2.085  18.544  0.00  0.00    +0.000 OA
ATOM     14  H   UNL     1       0.352   1.745  19.454  0.00  0.00    +0.000 HD
ENDBRANCH  11  13
ENDBRANCH   4   7
BRANCH   1  15
ATOM     15  C   UNL     1       1.575  10.358  19.129  0.00  0.00    +0.000 C 
BRANCH  15  17
ATOM     16  N   UNL     1      -0.652  10.249  18.110  0.00  0.00    +0.000 N 
ATOM     17  C   UNL     1       0.322  11.098  18.618  0.00  0.00    +0.000 C 
ATOM     18  O   UNL     1       0.280  12.327  18.638  0.00  0.00    +0.000 OA
ATOM     19  H   UNL     1      -0.422   9.261  18.195  0.00  0.00    +0.000 HD
BRANCH  16  25
ATOM     20  C   UNL     1      -3.770  10.150  14.278  0.00  0.00    +0.000 C 
ATOM     21  C   UNL     1      -3.463  10.538  15.696  0.00  0.00    +0.000 A 
ATOM     22  C   UNL     1      -4.420  11.213  16.460  0.00  0.00    +0.000 A 
ATOM     23  C   UNL     1      -4.137  11.568  17.775  0.00  0.00    +0.000 A 
ATOM     24  C   UNL     1      -2.897  11.256  18.339  0.00  0.00    +0.000 A 
ATOM     25  C   UNL     1      -1.923  10.585  17.599  0.00  0.00    +0.000 A 
ATOM     26  C   UNL     1      -2.221  10.224  16.274  0.00  0.00    +0.000 A 
ENDBRANCH  16  25
ENDBRANCH  15  17
ENDBRANCH   1  15
TORSDOF 5
ENDMDL
MODEL 6
REMARK VINA RESULT:      -8.1      6.262      8.878
REMARK  Name = 
REMARK  6 active torsions:
REMARK  status: ('A' for Active; 'I' for Inactive)
REMARK    1  A    between atoms: C_1  and  C_2
REMARK    2  A    between atoms: C_6  and  N_7
REMARK    3  A    between atoms: C_8  and  C_10
REMARK    4  A    between atoms: C_10  and  N_11
REMARK    5  A    between atoms: C_14  and  C_15
REMARK    6  A    between atoms: C_19  and  O_20
REMARK                            x       y       z     vdW  Elec       q    Type
REMARK                         _______ _______ _______ _____ _____    ______ ____
ROOT
ATOM      1  N   UNL     1       1.288   9.015  18.987  0.00  0.00    +0.000 NA
ATOM      2  C   UNL     1       1.621   8.622  20.359  0.00  0.00    +0.000 C 
ATOM      3  C   UNL     1       1.387   7.127  20.488  0.00  0.00    +0.000 C 
ATOM      4  C   UNL     1       2.524   6.389  19.780  0.00  0.00    +0.000 C 
ATOM      5  C   UNL     1       2.914   7.079  18.455  0.00  0.00    +0.000 C 
ATOM      6  C   UNL     1       1.940   8.172  17.965  0.00  0.00    +0.000 C 
ENDROOT
BRANCH   4   7
ATOM      7  C   UNL     1       2.229   4.901  19.751  0.00  0.00    +0.000 A 
ATOM      8  C   UNL     1       1.734   4.293  20.919  0.00  0.00    +0.000 A 
ATOM      9  C   UNL     1       1.374   2.945  20.936  0.00  0.00    +0.000 A 
ATOM     10  C   UNL     1       1.502   2.178  19.780  0.00  0.00    +0.000 A 
ATOM     11  C   UNL     1       1.988   2.772  18.620  0.00  0.00    +0.000 A 
ATOM     12  C   UNL     1       2.349   4.121  18.594  0.00  0.00    +0.000 A 
BRANCH  11  13
ATOM     13  O   UNL     1       2.113   2.056  17.464  0.00  0.00    +0.000 OA
ATOM     14  H   UNL     1       2.947   1.559  17.499  0.00  0.00    +0.000 HD
ENDBRANCH  11  13
ENDBRANCH   4   7
BRANCH   1  15
ATOM     15  C   UNL     1       1.503  10.463  18.759  0.00  0.00    +0.000 C 
BRANCH  15  17
ATOM     16  N   UNL     1      -0.766  10.419  17.831  0.00  0.00    +0.000 N 
ATOM     17  C   UNL     1       0.192  11.213  18.447  0.00  0.00    +0.000 C 
ATOM     18  O   UNL     1       0.093  12.413  18.697  0.00  0.00    +0.000 OA
ATOM     19  H   UNL     1      -0.485   9.446  17.721  0.00  0.00    +0.000 HD
BRANCH  16  25
ATOM     20  C   UNL     1      -5.171  12.213  19.167  0.00  0.00    +0.000 C 
ATOM     21  C   UNL     1      -4.258  11.657  18.111  0.00  0.00    +0.000 A 
ATOM     22  C   UNL     1      -4.717  11.501  16.799  0.00  0.00    +0.000 A 
ATOM     23  C   UNL     1      -3.869  10.991  15.822  0.00  0.00    +0.000 A 
ATOM     24  C   UNL     1      -2.558  10.629  16.143  0.00  0.00    +0.000 A 
ATOM     25  C   UNL     1      -2.075  10.772  17.444  0.00  0.00    +0.000 A 
ATOM     26  C   UNL     1      -2.936  11.295  18.423  0.00  0.00    +0.000 A 
ENDBRANCH  16  25
ENDBRANCH  15  17
ENDBRANCH   1  15
TORSDOF 5
ENDMDL
MODEL 7
REMARK VINA RESULT:      -8.1      6.497      9.103
REMARK  Name = 
REMARK  6 active torsions:
REMARK  status: ('A' for Active; 'I' for Inactive)
REMARK    1  A    between atoms: C_1  and  C_2
REMARK    2  A    between atoms: C_6  and  N_7
REMARK    3  A    between atoms: C_8  and  C_10
REMARK    4  A    between atoms: C_10  and  N_11
REMARK    5  A    between atoms: C_14  and  C_15
REMARK    6  A    between atoms: C_19  and  O_20
REMARK                            x       y       z     vdW  Elec       q    Type
REMARK                         _______ _______ _______ _____ _____    ______ ____
ROOT
ATOM      1  N   UNL     1       1.124   9.331  19.143  0.00  0.00    +0.000 NA
ATOM      2  C   UNL     1       1.533   8.933  20.493  0.00  0.00    +0.000 C 
ATOM      3  C   UNL     1       1.285   7.442  20.638  0.00  0.00    +0.000 C 
ATOM      4  C   UNL     1       2.366   6.687  19.863  0.00  0.00    +0.000 C 
ATOM      5  C   UNL     1       2.686   7.370  18.516  0.00  0.00    +0.000 C 
ATOM      6  C   UNL     1       1.701   8.478  18.084  0.00  0.00    +0.000 C 
ENDROOT
BRANCH   4   7
ATOM      7  C   UNL     1       2.048   5.204  19.854  0.00  0.00    +0.000 A 
ATOM      8  C   UNL     1       1.920   4.553  18.614  0.00  0.00    +0.000 A 
ATOM      9  C   UNL     1       1.702   3.176  18.538  0.00  0.00    +0.000 A 
ATOM     10  C   UNL     1       1.608   2.423  19.706  0.00  0.00    +0.000 A 
ATOM     11  C   UNL     1       1.736   3.059  20.937  0.00  0.00    +0.000 A 
ATOM     12  C   UNL     1       1.956   4.435  21.021  0.00  0.00    +0.000 A 
BRANCH  11  13
ATOM     13  O   UNL     1       1.665   2.351  22.103  0.00  0.00    +0.000 OA
ATOM     14  H   UNL     1       2.085   1.486  21.964  0.00  0.00    +0.000 HD
ENDBRANCH  11  13
ENDBRANCH   4   7
BRANCH   1  15
ATOM     15  C   UNL     1       1.347  10.776  18.901  0.00  0.00    +0.000 C 
BRANCH  15  17
ATOM     16  N   UNL     1      -0.942  10.640  18.033  0.00  0.00    +0.000 N 
ATOM     17  C   UNL     1       0.066  11.502  18.444  0.00  0.00    +0.000 C 
ATOM     18  O   UNL     1       0.028  12.731  18.420  0.00  0.00    +0.000 OA
ATOM     19  H   UNL     1      -0.710   9.655  18.141  0.00  0.00    +0.000 HD
BRANCH  16  25
ATOM     20  C   UNL     1      -5.441  12.326  19.187  0.00  0.00    +0.000 C 
ATOM     21  C   UNL     1      -4.471  11.795  18.169  0.00  0.00    +0.000 A 
ATOM     22  C   UNL     1      -4.871  11.633  16.839  0.00  0.00    +0.000 A 
ATOM     23  C   UNL     1      -3.971  11.147  15.897  0.00  0.00    +0.000 A 
ATOM     24  C   UNL     1      -2.667  10.814  16.272  0.00  0.00    +0.000 A 
ATOM     25  C   UNL     1      -2.242  10.964  17.592  0.00  0.00    +0.000 A 
ATOM     26  C   UNL     1      -3.155  11.464  18.536  0.00  0.00    +0.000 A 
ENDBRANCH  16  25
ENDBRANCH  15  17
ENDBRANCH   1  15
TORSDOF 5
ENDMDL
MODEL 8
REMARK VINA RESULT:      -8.1      6.236      8.965
REMARK  Name = 
REMARK  6 active torsions:
REMARK  status: ('A' for Active; 'I' for Inactive)
REMARK    1  A    between atoms: C_1  and  C_2
REMARK    2  A    between atoms: C_6  and  N_7
REMARK    3  A    between atoms: C_8  and  C_10
REMARK    4  A    between atoms: C_10  and  N_11
REMARK    5  A    between atoms: C_14  and  C_15
REMARK    6  A    between atoms: C_19  and  O_20
REMARK                            x       y       z     vdW  Elec       q    Type
REMARK                         _______ _______ _______ _____ _____    ______ ____
ROOT
ATOM      1  N   UNL     1       1.415   8.515  18.962  0.00  0.00    +0.000 NA
ATOM      2  C   UNL     1       1.931   7.965  20.218  0.00  0.00    +0.000 C 
ATOM      3  C   UNL     1       2.030   6.457  20.064  0.00  0.00    +0.000 C 
ATOM      4  C   UNL     1       3.238   6.132  19.184  0.00  0.00    +0.000 C 
ATOM      5  C   UNL     1       3.367   7.119  18.004  0.00  0.00    +0.000 C 
ATOM      6  C   UNL     1       2.148   8.038  17.772  0.00  0.00    +0.000 C 
ENDROOT
BRANCH   4   7
ATOM      7  C   UNL     1       3.264   4.647  18.879  0.00  0.00    +0.000 A 
ATOM      8  C   UNL     1       2.457   4.162  17.833  0.00  0.00    +0.000 A 
ATOM      9  C   UNL     1       2.493   2.819  17.455  0.00  0.00    +0.000 A 
ATOM     10  C   UNL     1       3.338   1.933  18.117  0.00  0.00    +0.000 A 
ATOM     11  C   UNL     1       4.142   2.404  19.151  0.00  0.00    +0.000 A 
ATOM     12  C   UNL     1       4.114   3.747  19.535  0.00  0.00    +0.000 A 
BRANCH  11  13
ATOM     13  O   UNL     1       4.995   1.569  19.814  0.00  0.00    +0.000 OA
ATOM     14  H   UNL     1       5.391   2.057  20.554  0.00  0.00    +0.000 HD
ENDBRANCH  11  13
ENDBRANCH   4   7
BRANCH   1  15
ATOM     15  C   UNL     1       1.299   9.991  19.011  0.00  0.00    +0.000 C 
BRANCH  15  17
ATOM     16  N   UNL     1      -0.738  10.383  17.704  0.00  0.00    +0.000 N 
ATOM     17  C   UNL     1      -0.165  10.471  18.967  0.00  0.00    +0.000 C 
ATOM     18  O   UNL     1      -0.697  10.927  19.978  0.00  0.00    +0.000 OA
ATOM     19  H   UNL     1      -0.127   9.968  17.004  0.00  0.00    +0.000 HD
BRANCH  16  25
ATOM     20  C   UNL     1      -5.134  12.228  19.003  0.00  0.00    +0.000 C 
ATOM     21  C   UNL     1      -4.235  11.611  17.969  0.00  0.00    +0.000 A 
ATOM     22  C   UNL     1      -4.716  11.366  16.679  0.00  0.00    +0.000 A 
ATOM     23  C   UNL     1      -3.882  10.800  15.721  0.00  0.00    +0.000 A 
ATOM     24  C   UNL     1      -2.562  10.470  16.040  0.00  0.00    +0.000 A 
ATOM     25  C   UNL     1      -2.057  10.700  17.320  0.00  0.00    +0.000 A 
ATOM     26  C   UNL     1      -2.905  11.280  18.279  0.00  0.00    +0.000 A 
ENDBRANCH  16  25
ENDBRANCH  15  17
ENDBRANCH   1  15
TORSDOF 5
ENDMDL
MODEL 9
REMARK VINA RESULT:      -8.1      5.317      7.630
REMARK  Name = 
REMARK  6 active torsions:
REMARK  status: ('A' for Active; 'I' for Inactive)
REMARK    1  A    between atoms: C_1  and  C_2
REMARK    2  A    between atoms: C_6  and  N_7
REMARK    3  A    between atoms: C_8  and  C_10
REMARK    4  A    between atoms: C_10  and  N_11
REMARK    5  A    between atoms: C_14  and  C_15
REMARK    6  A    between atoms: C_19  and  O_20
REMARK                            x       y       z     vdW  Elec       q    Type
REMARK                         _______ _______ _______ _____ _____    ______ ____
ROOT
ATOM      1  N   UNL     1       4.709   3.642  18.485  0.00  0.00    +0.000 NA
ATOM      2  C   UNL     1       5.839   4.568  18.372  0.00  0.00    +0.000 C 
ATOM      3  C   UNL     1       6.481   4.362  17.011  0.00  0.00    +0.000 C 
ATOM      4  C   UNL     1       5.587   4.996  15.945  0.00  0.00    +0.000 C 
ATOM      5  C   UNL     1       4.091   4.740  16.228  0.00  0.00    +0.000 C 
ATOM      6  C   UNL     1       3.793   3.697  17.327  0.00  0.00    +0.000 C 
ENDROOT
BRANCH   4   7
ATOM      7  C   UNL     1       6.120   4.661  14.565  0.00  0.00    +0.000 A 
ATOM      8  C   UNL     1       7.258   5.346  14.100  0.00  0.00    +0.000 A 
ATOM      9  C   UNL     1       7.840   5.033  12.872  0.00  0.00    +0.000 A 
ATOM     10  C   UNL     1       7.293   4.024  12.082  0.00  0.00    +0.000 A 
ATOM     11  C   UNL     1       6.170   3.340  12.534  0.00  0.00    +0.000 A 
ATOM     12  C   UNL     1       5.582   3.646  13.764  0.00  0.00    +0.000 A 
BRANCH  11  13
ATOM     13  O   UNL     1       5.615   2.335  11.794  0.00  0.00    +0.000 OA
ATOM     14  H   UNL     1       5.938   1.485  12.138  0.00  0.00    +0.000 HD
ENDBRANCH  11  13
ENDBRANCH   4   7
BRANCH   1  15
ATOM     15  C   UNL     1       4.005   3.784  19.780  0.00  0.00    +0.000 C 
BRANCH  15  17
ATOM     16  N   UNL     1       3.196   6.098  19.780  0.00  0.00    +0.000 N 
ATOM     17  C   UNL     1       2.817   4.764  19.704  0.00  0.00    +0.000 C 
ATOM     18  O   UNL     1       1.666   4.335  19.637  0.00  0.00    +0.000 OA
ATOM     19  H   UNL     1       4.203   6.238  19.823  0.00  0.00    +0.000 HD
BRANCH  16  25
ATOM     20  C   UNL     1       0.004   9.101  22.061  0.00  0.00    +0.000 C 
ATOM     21  C   UNL     1       0.792   8.726  20.838  0.00  0.00    +0.000 A 
ATOM     22  C   UNL     1       0.694   9.501  19.678  0.00  0.00    +0.000 A 
ATOM     23  C   UNL     1       1.428   9.156  18.548  0.00  0.00    +0.000 A 
ATOM     24  C   UNL     1       2.262   8.035  18.563  0.00  0.00    +0.000 A 
ATOM     25  C   UNL     1       2.376   7.243  19.706  0.00  0.00    +0.000 A 
ATOM     26  C   UNL     1       1.638   7.604  20.845  0.00  0.00    +0.000 A 
ENDBRANCH  16  25
ENDBRANCH  15  17
ENDBRANCH   1  15
TORSDOF 5
ENDMDL
