MODEL 1
REMARK VINA RESULT:      -8.2      0.000      0.000
REMARK  Name = 
REMARK  10 active torsions:
REMARK  status: ('A' for Active; 'I' for Inactive)
REMARK    1  A    between atoms: C_1  and  O_2
REMARK    2  A    between atoms: O_2  and  C_3
REMARK    3  A    between atoms: C_6  and  C_7
REMARK    4  A    between atoms: N_9  and  C_10
REMARK    5  A    between atoms: C_10  and  C_11
REMARK    6  A    between atoms: C_10  and  C_15
REMARK    7  A    between atoms: C_11  and  C_12
REMARK    8  A    between atoms: C_12  and  O_14
REMARK    9  A    between atoms: C_23  and  C_24
REMARK   10  A    between atoms: C_30  and  C_31
REMARK                            x       y       z     vdW  Elec       q    Type
REMARK                         _______ _______ _______ _____ _____    ______ ____
ROOT
ATOM      1  C   UNL     1       1.663   8.107  20.315  0.00  0.00    +0.000 C 
ATOM      2  O   UNL     1       1.465   8.577  21.431  0.00  0.00    +0.000 OA
ATOM      3  N   UNL     1       1.539   8.832  19.149  0.00  0.00    +0.000 N 
ATOM      4  H   UNL     1       1.734   8.337  18.283  0.00  0.00    +0.000 HD
ENDROOT
BRANCH   1   8
ATOM      5  C   UNL     1       3.062   4.118  20.003  0.00  0.00    +0.000 A 
ATOM      6  C   UNL     1       1.871   4.380  20.695  0.00  0.00    +0.000 A 
ATOM      7  C   UNL     1       1.383   5.677  20.773  0.00  0.00    +0.000 A 
ATOM      8  C   UNL     1       2.099   6.681  20.146  0.00  0.00    +0.000 A 
ATOM      9  N   UNL     1       3.233   6.460  19.427  0.00  0.00    +0.000 NA
ATOM     10  C   UNL     1       3.738   5.191  19.375  0.00  0.00    +0.000 A 
BRANCH  10  11
ATOM     11  C   UNL     1       5.024   5.051  18.601  0.00  0.00    +0.000 A 
ATOM     12  C   UNL     1       6.256   5.363  19.222  0.00  0.00    +0.000 A 
ATOM     13  C   UNL     1       7.482   5.270  18.561  0.00  0.00    +0.000 A 
ATOM     14  C   UNL     1       7.524   4.813  17.256  0.00  0.00    +0.000 A 
ATOM     15  C   UNL     1       6.343   4.458  16.607  0.00  0.00    +0.000 A 
ATOM     16 CL   UNL     1       6.519   3.845  14.995  0.00  0.00    +0.000 Cl
ATOM     17  C   UNL     1       5.088   4.588  17.248  0.00  0.00    +0.000 A 
ATOM     18  C   UNL     1       3.836   4.182  16.511  0.00  0.00    +0.000 C 
ENDBRANCH  10  11
BRANCH   5  20
ATOM     19  C   UNL     1       3.018   1.893  19.163  0.00  0.00    +0.000 C 
ATOM     20  O   UNL     1       3.632   2.868  20.005  0.00  0.00    +0.000 OA
ENDBRANCH   5  20
ENDBRANCH   1   8
BRANCH   3  21
ATOM     21  C   UNL     1       1.103  10.223  19.097  0.00  0.00    +0.000 C 
BRANCH  21  22
ATOM     22  C   UNL     1      -0.347  10.376  18.648  0.00  0.00    +0.000 A 
ATOM     23  C   UNL     1      -0.813   9.728  17.487  0.00  0.00    +0.000 A 
ATOM     24  C   UNL     1      -2.127   9.888  17.041  0.00  0.00    +0.000 A 
ATOM     25  C   UNL     1      -3.009  10.698  17.746  0.00  0.00    +0.000 A 
ATOM     26  C   UNL     1      -2.574  11.351  18.896  0.00  0.00    +0.000 A 
ATOM     27  C   UNL     1      -1.256  11.198  19.343  0.00  0.00    +0.000 A 
ATOM     28 CL   UNL     1      -0.809  12.082  20.762  0.00  0.00    +0.000 Cl
ENDBRANCH  21  22
BRANCH  21  29
ATOM     29  C   UNL     1       2.076  11.118  18.307  0.00  0.00    +0.000 C 
BRANCH  29  30
ATOM     30  C   UNL     1       2.041  12.576  18.691  0.00  0.00    +0.000 C 
ATOM     31  O   UNL     1       2.438  13.044  19.745  0.00  0.00    +0.000 OA
BRANCH  30  32
ATOM     32  O   UNL     1       1.447  13.355  17.755  0.00  0.00    +0.000 OA
ATOM     33  H   UNL     1       1.805  13.250  16.852  0.00  0.00    +0.000 HD
ENDBRANCH  30  32
ENDBRANCH  29  30
ENDBRANCH  21  29
ENDBRANCH   3  21
TORSDOF 8
ENDMDL
MODEL 2
REMARK VINA RESULT:      -7.6      2.843      4.464
REMARK  Name = 
REMARK  10 active torsions:
REMARK  status: ('A' for Active; 'I' for Inactive)
REMARK    1  A    between atoms: C_1  and  O_2
REMARK    2  A    between atoms: O_2  and  C_3
REMARK    3  A    between atoms: C_6  and  C_7
REMARK    4  A    between atoms: N_9  and  C_10
REMARK    5  A    between atoms: C_10  and  C_11
REMARK    6  A    between atoms: C_10  and  C_15
REMARK    7  A    between atoms: C_11  and  C_12
REMARK    8  A    between atoms: C_12  and  O_14
REMARK    9  A    between atoms: C_23  and  C_24
REMARK   10  A    between atoms: C_30  and  C_31
REMARK                            x       y       z     vdW  Elec       q    Type
REMARK                         _______ _______ _______ _____ _____    ______ ____
ROOT
ATOM      1  C   UNL     1       2.092   9.220  17.942  0.00  0.00    +0.000 C 
ATOM      2  O   UNL     1       2.421  10.270  17.401  0.00  0.00    +0.000 OA
ATOM      3  N   UNL     1       0.939   9.073  18.685  0.00  0.00    +0.000 N 
ATOM      4  H   UNL     1       0.768   8.153  19.082  0.00  0.00    +0.000 HD
ENDROOT
BRANCH   1   8
ATOM      5  C   UNL     1       4.319   5.661  17.353  0.00  0.00    +0.000 A 
ATOM      6  C   UNL     1       4.844   6.886  16.916  0.00  0.00    +0.000 A 
ATOM      7  C   UNL     1       4.141   8.062  17.135  0.00  0.00    +0.000 A 
ATOM      8  C   UNL     1       2.930   7.983  17.798  0.00  0.00    +0.000 A 
ATOM      9  N   UNL     1       2.409   6.822  18.278  0.00  0.00    +0.000 NA
ATOM     10  C   UNL     1       3.079   5.655  18.035  0.00  0.00    +0.000 A 
BRANCH  10  11
ATOM     11  C   UNL     1       2.400   4.414  18.559  0.00  0.00    +0.000 A 
ATOM     12  C   UNL     1       2.042   3.378  17.664  0.00  0.00    +0.000 A 
ATOM     13  C   UNL     1       1.400   2.210  18.078  0.00  0.00    +0.000 A 
ATOM     14  C   UNL     1       1.132   2.013  19.421  0.00  0.00    +0.000 A 
ATOM     15  C   UNL     1       1.496   2.986  20.349  0.00  0.00    +0.000 A 
ATOM     16 CL   UNL     1       1.164   2.610  22.009  0.00  0.00    +0.000 Cl
ATOM     17  C   UNL     1       2.108   4.196  19.943  0.00  0.00    +0.000 A 
ATOM     18  C   UNL     1       2.494   5.215  20.984  0.00  0.00    +0.000 C 
ENDBRANCH  10  11
BRANCH   5  20
ATOM     19  C   UNL     1       5.253   4.255  15.678  0.00  0.00    +0.000 C 
ATOM     20  O   UNL     1       4.930   4.470  17.051  0.00  0.00    +0.000 OA
ENDBRANCH   5  20
ENDBRANCH   1   8
BRANCH   3  21
ATOM     21  C   UNL     1       0.005  10.158  18.964  0.00  0.00    +0.000 C 
BRANCH  21  22
ATOM     22  C   UNL     1      -0.259  10.347  20.454  0.00  0.00    +0.000 A 
ATOM     23  C   UNL     1      -0.433   9.234  21.301  0.00  0.00    +0.000 A 
ATOM     24  C   UNL     1      -0.715   9.391  22.661  0.00  0.00    +0.000 A 
ATOM     25  C   UNL     1      -0.826  10.663  23.208  0.00  0.00    +0.000 A 
ATOM     26  C   UNL     1      -0.660  11.779  22.394  0.00  0.00    +0.000 A 
ATOM     27  C   UNL     1      -0.384  11.628  21.030  0.00  0.00    +0.000 A 
ATOM     28 CL   UNL     1      -0.232  13.080  20.101  0.00  0.00    +0.000 Cl
ENDBRANCH  21  22
BRANCH  21  29
ATOM     29  C   UNL     1      -1.285  10.056  18.131  0.00  0.00    +0.000 C 
BRANCH  29  30
ATOM     30  C   UNL     1      -2.062  11.343  18.014  0.00  0.00    +0.000 C 
ATOM     31  O   UNL     1      -3.060  11.633  18.652  0.00  0.00    +0.000 OA
BRANCH  30  32
ATOM     32  O   UNL     1      -1.580  12.166  17.051  0.00  0.00    +0.000 OA
ATOM     33  H   UNL     1      -1.442  13.089  17.337  0.00  0.00    +0.000 HD
ENDBRANCH  30  32
ENDBRANCH  29  30
ENDBRANCH  21  29
ENDBRANCH   3  21
TORSDOF 8
ENDMDL
MODEL 3
REMARK VINA RESULT:      -7.5      2.243      3.608
REMARK  Name = 
REMARK  10 active torsions:
REMARK  status: ('A' for Active; 'I' for Inactive)
REMARK    1  A    between atoms: C_1  and  O_2
REMARK    2  A    between atoms: O_2  and  C_3
REMARK    3  A    between atoms: C_6  and  C_7
REMARK    4  A    between atoms: N_9  and  C_10
REMARK    5  A    between atoms: C_10  and  C_11
REMARK    6  A    between atoms: C_10  and  C_15
REMARK    7  A    between atoms: C_11  and  C_12
REMARK    8  A    between atoms: C_12  and  O_14
REMARK    9  A    between atoms: C_23  and  C_24
REMARK   10  A    between atoms: C_30  and  C_31
REMARK                            x       y       z     vdW  Elec       q    Type
REMARK                         _______ _______ _______ _____ _____    ______ ____
ROOT
ATOM      1  C   UNL     1       0.681   9.808  19.385  0.00  0.00    +0.000 C 
ATOM      2  O   UNL     1       0.249   9.815  20.533  0.00  0.00    +0.000 OA
ATOM      3  N   UNL     1       0.325  10.737  18.430  0.00  0.00    +0.000 N 
ATOM      4  H   UNL     1       0.751  10.634  17.514  0.00  0.00    +0.000 HD
ENDROOT
BRANCH   1   8
ATOM      5  C   UNL     1       3.330   6.803  18.001  0.00  0.00    +0.000 A 
ATOM      6  C   UNL     1       3.441   8.107  17.498  0.00  0.00    +0.000 A 
ATOM      7  C   UNL     1       2.603   9.108  17.970  0.00  0.00    +0.000 A 
ATOM      8  C   UNL     1       1.679   8.778  18.944  0.00  0.00    +0.000 A 
ATOM      9  N   UNL     1       1.571   7.536  19.489  0.00  0.00    +0.000 NA
ATOM     10  C   UNL     1       2.369   6.537  19.005  0.00  0.00    +0.000 A 
BRANCH  10  11
ATOM     11  C   UNL     1       2.143   5.185  19.633  0.00  0.00    +0.000 A 
ATOM     12  C   UNL     1       2.446   4.985  21.001  0.00  0.00    +0.000 A 
ATOM     13  C   UNL     1       2.275   3.758  21.642  0.00  0.00    +0.000 A 
ATOM     14  C   UNL     1       1.746   2.687  20.943  0.00  0.00    +0.000 A 
ATOM     15  C   UNL     1       1.397   2.839  19.602  0.00  0.00    +0.000 A 
ATOM     16 CL   UNL     1       0.690   1.450  18.842  0.00  0.00    +0.000 Cl
ATOM     17  C   UNL     1       1.604   4.063  18.925  0.00  0.00    +0.000 A 
ATOM     18  C   UNL     1       1.201   4.185  17.477  0.00  0.00    +0.000 C 
ENDBRANCH  10  11
BRANCH   5  20
ATOM     19  C   UNL     1       5.459   5.769  17.763  0.00  0.00    +0.000 C 
ATOM     20  O   UNL     1       4.062   5.766  17.475  0.00  0.00    +0.000 OA
ENDBRANCH   5  20
ENDBRANCH   1   8
BRANCH   3  21
ATOM     21  C   UNL     1      -0.648  11.802  18.652  0.00  0.00    +0.000 C 
BRANCH  21  22
ATOM     22  C   UNL     1      -2.010  11.500  18.035  0.00  0.00    +0.000 A 
ATOM     23  C   UNL     1      -2.107  10.901  16.764  0.00  0.00    +0.000 A 
ATOM     24  C   UNL     1      -3.347  10.654  16.167  0.00  0.00    +0.000 A 
ATOM     25  C   UNL     1      -4.519  10.999  16.829  0.00  0.00    +0.000 A 
ATOM     26  C   UNL     1      -4.452  11.594  18.085  0.00  0.00    +0.000 A 
ATOM     27  C   UNL     1      -3.212  11.848  18.683  0.00  0.00    +0.000 A 
ATOM     28 CL   UNL     1      -3.240  12.624  20.230  0.00  0.00    +0.000 Cl
ENDBRANCH  21  22
BRANCH  21  29
ATOM     29  C   UNL     1      -0.104  13.189  18.266  0.00  0.00    +0.000 C 
BRANCH  29  30
ATOM     30  C   UNL     1       1.378  13.366  18.477  0.00  0.00    +0.000 C 
ATOM     31  O   UNL     1       1.899  13.971  19.398  0.00  0.00    +0.000 OA
BRANCH  30  32
ATOM     32  O   UNL     1       2.121  12.829  17.479  0.00  0.00    +0.000 OA
ATOM     33  H   UNL     1       1.688  12.830  16.603  0.00  0.00    +0.000 HD
ENDBRANCH  30  32
ENDBRANCH  29  30
ENDBRANCH  21  29
ENDBRANCH   3  21
TORSDOF 8
ENDMDL
MODEL 4
REMARK VINA RESULT:      -7.4      2.015      9.004
REMARK  Name = 
REMARK  10 active torsions:
REMARK  status: ('A' for Active; 'I' for Inactive)
REMARK    1  A    between atoms: C_1  and  O_2
REMARK    2  A    between atoms: O_2  and  C_3
REMARK    3  A    between atoms: C_6  and  C_7
REMARK    4  A    between atoms: N_9  and  C_10
REMARK    5  A    between atoms: C_10  and  C_11
REMARK    6  A    between atoms: C_10  and  C_15
REMARK    7  A    between atoms: C_11  and  C_12
REMARK    8  A    between atoms: C_12  and  O_14
REMARK    9  A    between atoms: C_23  and  C_24
REMARK   10  A    between atoms: C_30  and  C_31
REMARK                            x       y       z     vdW  Elec       q    Type
REMARK                         _______ _______ _______ _____ _____    ______ ____
ROOT
ATOM      1  C   UNL     1       2.262   7.106  19.083  0.00  0.00    +0.000 C 
ATOM      2  O   UNL     1       2.004   6.552  20.147  0.00  0.00    +0.000 OA
ATOM      3  N   UNL     1       2.843   6.463  18.010  0.00  0.00    +0.000 N 
ATOM      4  H   UNL     1       3.005   7.024  17.178  0.00  0.00    +0.000 HD
ENDROOT
BRANCH   1   8
ATOM      5  C   UNL     1       1.432  11.241  18.656  0.00  0.00    +0.000 A 
ATOM      6  C   UNL     1       2.360  10.631  17.801  0.00  0.00    +0.000 A 
ATOM      7  C   UNL     1       2.614   9.270  17.907  0.00  0.00    +0.000 A 
ATOM      8  C   UNL     1       1.922   8.551  18.864  0.00  0.00    +0.000 A 
ATOM      9  N   UNL     1       0.981   9.097  19.681  0.00  0.00    +0.000 NA
ATOM     10  C   UNL     1       0.751  10.443  19.606  0.00  0.00    +0.000 A 
BRANCH  10  11
ATOM     11  C   UNL     1      -0.269  10.967  20.585  0.00  0.00    +0.000 A 
ATOM     12  C   UNL     1      -0.001  10.920  21.973  0.00  0.00    +0.000 A 
ATOM     13  C   UNL     1      -0.906  11.375  22.934  0.00  0.00    +0.000 A 
ATOM     14  C   UNL     1      -2.103  11.940  22.535  0.00  0.00    +0.000 A 
ATOM     15  C   UNL     1      -2.403  12.044  21.178  0.00  0.00    +0.000 A 
ATOM     16 CL   UNL     1      -3.904  12.821  20.791  0.00  0.00    +0.000 Cl
ATOM     17  C   UNL     1      -1.518  11.549  20.192  0.00  0.00    +0.000 A 
ATOM     18  C   UNL     1      -1.878  11.692  18.735  0.00  0.00    +0.000 C 
ENDBRANCH  10  11
BRANCH   5  20
ATOM     19  C   UNL     1       2.231  13.377  19.332  0.00  0.00    +0.000 C 
ATOM     20  O   UNL     1       1.243  12.601  18.656  0.00  0.00    +0.000 OA
ENDBRANCH   5  20
ENDBRANCH   1   8
BRANCH   3  21
ATOM     21  C   UNL     1       3.271   5.069  18.030  0.00  0.00    +0.000 C 
BRANCH  21  22
ATOM     22  C   UNL     1       4.564   4.833  17.254  0.00  0.00    +0.000 A 
ATOM     23  C   UNL     1       4.530   4.431  15.904  0.00  0.00    +0.000 A 
ATOM     24  C   UNL     1       5.703   4.173  15.191  0.00  0.00    +0.000 A 
ATOM     25  C   UNL     1       6.939   4.312  15.810  0.00  0.00    +0.000 A 
ATOM     26  C   UNL     1       7.002   4.705  17.143  0.00  0.00    +0.000 A 
ATOM     27  C   UNL     1       5.828   4.959  17.863  0.00  0.00    +0.000 A 
ATOM     28 CL   UNL     1       6.016   5.408  19.524  0.00  0.00    +0.000 Cl
ENDBRANCH  21  22
BRANCH  21  29
ATOM     29  C   UNL     1       2.144   4.099  17.632  0.00  0.00    +0.000 C 
BRANCH  29  30
ATOM     30  C   UNL     1       1.603   3.265  18.765  0.00  0.00    +0.000 C 
ATOM     31  O   UNL     1       0.706   2.443  18.679  0.00  0.00    +0.000 OA
BRANCH  30  32
ATOM     32  O   UNL     1       2.172   3.561  19.959  0.00  0.00    +0.000 OA
ATOM     33  H   UNL     1       1.598   4.063  20.570  0.00  0.00    +0.000 HD
ENDBRANCH  30  32
ENDBRANCH  29  30
ENDBRANCH  21  29
ENDBRANCH   3  21
TORSDOF 8
ENDMDL
MODEL 5
REMARK VINA RESULT:      -7.4      2.160      9.176
REMARK  Name = 
REMARK  10 active torsions:
REMARK  status: ('A' for Active; 'I' for Inactive)
REMARK    1  A    between atoms: C_1  and  O_2
REMARK    2  A    between atoms: O_2  and  C_3
REMARK    3  A    between atoms: C_6  and  C_7
REMARK    4  A    between atoms: N_9  and  C_10
REMARK    5  A    between atoms: C_10  and  C_11
REMARK    6  A    between atoms: C_10  and  C_15
REMARK    7  A    between atoms: C_11  and  C_12
REMARK    8  A    between atoms: C_12  and  O_14
REMARK    9  A    between atoms: C_23  and  C_24
REMARK   10  A    between atoms: C_30  and  C_31
REMARK                            x       y       z     vdW  Elec       q    Type
REMARK                         _______ _______ _______ _____ _____    ______ ____
ROOT
ATOM      1  C   UNL     1       1.938   7.784  19.359  0.00  0.00    +0.000 C 
ATOM      2  O   UNL     1       1.746   7.282  20.461  0.00  0.00    +0.000 OA
ATOM      3  N   UNL     1       2.464   7.094  18.287  0.00  0.00    +0.000 N 
ATOM      4  H   UNL     1       2.574   7.613  17.421  0.00  0.00    +0.000 HD
ENDROOT
BRANCH   1   8
ATOM      5  C   UNL     1       1.026  11.884  18.788  0.00  0.00    +0.000 A 
ATOM      6  C   UNL     1       1.983  11.269  17.969  0.00  0.00    +0.000 A 
ATOM      7  C   UNL     1       2.264   9.918  18.122  0.00  0.00    +0.000 A 
ATOM      8  C   UNL     1       1.571   9.214  19.089  0.00  0.00    +0.000 A 
ATOM      9  N   UNL     1       0.603   9.764  19.871  0.00  0.00    +0.000 NA
ATOM     10  C   UNL     1       0.345  11.101  19.751  0.00  0.00    +0.000 A 
BRANCH  10  11
ATOM     11  C   UNL     1      -0.704  11.632  20.694  0.00  0.00    +0.000 A 
ATOM     12  C   UNL     1      -0.387  11.831  22.059  0.00  0.00    +0.000 A 
ATOM     13  C   UNL     1      -1.313  12.306  22.988  0.00  0.00    +0.000 A 
ATOM     14  C   UNL     1      -2.588  12.646  22.574  0.00  0.00    +0.000 A 
ATOM     15  C   UNL     1      -2.943  12.503  21.234  0.00  0.00    +0.000 A 
ATOM     16 CL   UNL     1      -4.547  13.013  20.818  0.00  0.00    +0.000 Cl
ATOM     17  C   UNL     1      -2.031  11.982  20.286  0.00  0.00    +0.000 A 
ATOM     18  C   UNL     1      -2.455  11.856  18.845  0.00  0.00    +0.000 C 
ENDBRANCH  10  11
BRANCH   5  20
ATOM     19  C   UNL     1       1.957  14.059  18.534  0.00  0.00    +0.000 C 
ATOM     20  O   UNL     1       0.808  13.239  18.743  0.00  0.00    +0.000 OA
ENDBRANCH   5  20
ENDBRANCH   1   8
BRANCH   3  21
ATOM     21  C   UNL     1       2.908   5.705  18.351  0.00  0.00    +0.000 C 
BRANCH  21  22
ATOM     22  C   UNL     1       4.288   5.493  17.735  0.00  0.00    +0.000 A 
ATOM     23  C   UNL     1       4.715   6.271  16.641  0.00  0.00    +0.000 A 
ATOM     24  C   UNL     1       5.959   6.063  16.040  0.00  0.00    +0.000 A 
ATOM     25  C   UNL     1       6.808   5.073  16.521  0.00  0.00    +0.000 A 
ATOM     26  C   UNL     1       6.411   4.290  17.600  0.00  0.00    +0.000 A 
ATOM     27  C   UNL     1       5.162   4.491  18.201  0.00  0.00    +0.000 A 
ATOM     28 CL   UNL     1       4.751   3.438  19.511  0.00  0.00    +0.000 Cl
ENDBRANCH  21  22
BRANCH  21  29
ATOM     29  C   UNL     1       1.851   4.722  17.816  0.00  0.00    +0.000 C 
BRANCH  29  30
ATOM     30  C   UNL     1       1.296   3.772  18.846  0.00  0.00    +0.000 C 
ATOM     31  O   UNL     1       0.945   4.072  19.975  0.00  0.00    +0.000 OA
BRANCH  30  32
ATOM     32  O   UNL     1       1.278   2.485  18.423  0.00  0.00    +0.000 OA
ATOM     33  H   UNL     1       0.420   2.188  18.063  0.00  0.00    +0.000 HD
ENDBRANCH  30  32
ENDBRANCH  29  30
ENDBRANCH  21  29
ENDBRANCH   3  21
TORSDOF 8
ENDMDL
MODEL 6
REMARK VINA RESULT:      -7.3      2.908      8.741
REMARK  Name = 
REMARK  10 active torsions:
REMARK  status: ('A' for Active; 'I' for Inactive)
REMARK    1  A    between atoms: C_1  and  O_2
REMARK    2  A    between atoms: O_2  and  C_3
REMARK    3  A    between atoms: C_6  and  C_7
REMARK    4  A    between atoms: N_9  and  C_10
REMARK    5  A    between atoms: C_10  and  C_11
REMARK    6  A    between atoms: C_10  and  C_15
REMARK    7  A    between atoms: C_11  and  C_12
REMARK    8  A    between atoms: C_12  and  O_14
REMARK    9  A    between atoms: C_23  and  C_24
REMARK   10  A    between atoms: C_30  and  C_31
REMARK                            x       y       z     vdW  Elec       q    Type
REMARK                         _______ _______ _______ _____ _____    ______ ____
ROOT
ATOM      1  C   UNL     1       1.663   8.487  19.412  0.00  0.00    +0.000 C 
ATOM      2  O   UNL     1       1.694   8.651  18.197  0.00  0.00    +0.000 OA
ATOM      3  N   UNL     1       2.148   7.360  20.043  0.00  0.00    +0.000 N 
ATOM      4  H   UNL     1       2.073   7.338  21.055  0.00  0.00    +0.000 HD
ENDROOT
BRANCH   1   8
ATOM      5  C   UNL     1      -0.087  11.495  21.832  0.00  0.00    +0.000 A 
ATOM      6  C   UNL     1      -0.100  10.163  22.269  0.00  0.00    +0.000 A 
ATOM      7  C   UNL     1       0.502   9.174  21.502  0.00  0.00    +0.000 A 
ATOM      8  C   UNL     1       1.111   9.548  20.319  0.00  0.00    +0.000 A 
ATOM      9  N   UNL     1       1.185  10.835  19.885  0.00  0.00    +0.000 NA
ATOM     10  C   UNL     1       0.565  11.809  20.616  0.00  0.00    +0.000 A 
BRANCH  10  11
ATOM     11  C   UNL     1       0.655  13.196  20.030  0.00  0.00    +0.000 A 
ATOM     12  C   UNL     1      -0.423  13.710  19.272  0.00  0.00    +0.000 A 
ATOM     13  C   UNL     1      -0.401  14.979  18.690  0.00  0.00    +0.000 A 
ATOM     14  C   UNL     1       0.692  15.804  18.887  0.00  0.00    +0.000 A 
ATOM     15  C   UNL     1       1.766  15.361  19.655  0.00  0.00    +0.000 A 
ATOM     16 CL   UNL     1       3.055  16.499  19.882  0.00  0.00    +0.000 Cl
ATOM     17  C   UNL     1       1.780  14.062  20.216  0.00  0.00    +0.000 A 
ATOM     18  C   UNL     1       2.959  13.629  21.049  0.00  0.00    +0.000 C 
ENDBRANCH  10  11
BRANCH   5  20
ATOM     19  C   UNL     1      -2.177  12.283  22.651  0.00  0.00    +0.000 C 
ATOM     20  O   UNL     1      -0.771  12.477  22.505  0.00  0.00    +0.000 OA
ENDBRANCH   5  20
ENDBRANCH   1   8
BRANCH   3  21
ATOM     21  C   UNL     1       2.700   6.208  19.340  0.00  0.00    +0.000 C 
BRANCH  21  22
ATOM     22  C   UNL     1       2.181   4.878  19.879  0.00  0.00    +0.000 A 
ATOM     23  C   UNL     1       2.389   4.516  21.225  0.00  0.00    +0.000 A 
ATOM     24  C   UNL     1       1.955   3.286  21.724  0.00  0.00    +0.000 A 
ATOM     25  C   UNL     1       1.299   2.388  20.890  0.00  0.00    +0.000 A 
ATOM     26  C   UNL     1       1.082   2.718  19.556  0.00  0.00    +0.000 A 
ATOM     27  C   UNL     1       1.521   3.948  19.050  0.00  0.00    +0.000 A 
ATOM     28 CL   UNL     1       1.232   4.245  17.370  0.00  0.00    +0.000 Cl
ENDBRANCH  21  22
BRANCH  21  29
ATOM     29  C   UNL     1       4.235   6.258  19.236  0.00  0.00    +0.000 C 
BRANCH  29  30
ATOM     30  C   UNL     1       4.852   5.111  18.479  0.00  0.00    +0.000 C 
ATOM     31  O   UNL     1       4.671   4.855  17.300  0.00  0.00    +0.000 OA
BRANCH  30  32
ATOM     32  O   UNL     1       5.611   4.306  19.263  0.00  0.00    +0.000 OA
ATOM     33  H   UNL     1       5.837   4.684  20.135  0.00  0.00    +0.000 HD
ENDBRANCH  30  32
ENDBRANCH  29  30
ENDBRANCH  21  29
ENDBRANCH   3  21
TORSDOF 8
ENDMDL
MODEL 7
REMARK VINA RESULT:      -7.3      2.777      8.650
REMARK  Name = 
REMARK  10 active torsions:
REMARK  status: ('A' for Active; 'I' for Inactive)
REMARK    1  A    between atoms: C_1  and  O_2
REMARK    2  A    between atoms: O_2  and  C_3
REMARK    3  A    between atoms: C_6  and  C_7
REMARK    4  A    between atoms: N_9  and  C_10
REMARK    5  A    between atoms: C_10  and  C_11
REMARK    6  A    between atoms: C_10  and  C_15
REMARK    7  A    between atoms: C_11  and  C_12
REMARK    8  A    between atoms: C_12  and  O_14
REMARK    9  A    between atoms: C_23  and  C_24
REMARK   10  A    between atoms: C_30  and  C_31
REMARK                            x       y       z     vdW  Elec       q    Type
REMARK                         _______ _______ _______ _____ _____    ______ ____
ROOT
ATOM      1  C   UNL     1       1.654   8.304  19.557  0.00  0.00    +0.000 C 
ATOM      2  O   UNL     1       1.679   8.485  18.344  0.00  0.00    +0.000 OA
ATOM      3  N   UNL     1       2.172   7.184  20.173  0.00  0.00    +0.000 N 
ATOM      4  H   UNL     1       2.099   7.147  21.185  0.00  0.00    +0.000 HD
ENDROOT
BRANCH   1   8
ATOM      5  C   UNL     1      -0.154  11.266  21.992  0.00  0.00    +0.000 A 
ATOM      6  C   UNL     1      -0.370   9.910  22.278  0.00  0.00    +0.000 A 
ATOM      7  C   UNL     1       0.245   8.931  21.510  0.00  0.00    +0.000 A 
ATOM      8  C   UNL     1       1.072   9.336  20.478  0.00  0.00    +0.000 A 
ATOM      9  N   UNL     1       1.344  10.640  20.200  0.00  0.00    +0.000 NA
ATOM     10  C   UNL     1       0.714  11.610  20.929  0.00  0.00    +0.000 A 
BRANCH  10  11
ATOM     11  C   UNL     1       1.036  13.023  20.515  0.00  0.00    +0.000 A 
ATOM     12  C   UNL     1       2.266  13.607  20.899  0.00  0.00    +0.000 A 
ATOM     13  C   UNL     1       2.622  14.913  20.562  0.00  0.00    +0.000 A 
ATOM     14  C   UNL     1       1.771  15.676  19.782  0.00  0.00    +0.000 A 
ATOM     15  C   UNL     1       0.562  15.139  19.346  0.00  0.00    +0.000 A 
ATOM     16 CL   UNL     1      -0.398  16.162  18.328  0.00  0.00    +0.000 Cl
ATOM     17  C   UNL     1       0.166  13.831  19.714  0.00  0.00    +0.000 A 
ATOM     18  C   UNL     1      -1.147  13.287  19.210  0.00  0.00    +0.000 C 
ENDBRANCH  10  11
BRANCH   5  20
ATOM     19  C   UNL     1      -2.118  11.904  23.172  0.00  0.00    +0.000 C 
ATOM     20  O   UNL     1      -0.836  12.256  22.656  0.00  0.00    +0.000 OA
ENDBRANCH   5  20
ENDBRANCH   1   8
BRANCH   3  21
ATOM     21  C   UNL     1       2.758   6.057  19.454  0.00  0.00    +0.000 C 
BRANCH  21  22
ATOM     22  C   UNL     1       2.206   4.710  19.910  0.00  0.00    +0.000 A 
ATOM     23  C   UNL     1       2.376   4.275  21.240  0.00  0.00    +0.000 A 
ATOM     24  C   UNL     1       1.912   3.028  21.663  0.00  0.00    +0.000 A 
ATOM     25  C   UNL     1       1.263   2.185  20.769  0.00  0.00    +0.000 A 
ATOM     26  C   UNL     1       1.083   2.588  19.450  0.00  0.00    +0.000 A 
ATOM     27  C   UNL     1       1.552   3.835  19.019  0.00  0.00    +0.000 A 
ATOM     28 CL   UNL     1       1.309   4.224  17.351  0.00  0.00    +0.000 Cl
ENDBRANCH  21  22
BRANCH  21  29
ATOM     29  C   UNL     1       4.296   6.103  19.435  0.00  0.00    +0.000 C 
BRANCH  29  30
ATOM     30  C   UNL     1       4.944   5.112  18.503  0.00  0.00    +0.000 C 
ATOM     31  O   UNL     1       4.831   5.096  17.289  0.00  0.00    +0.000 OA
BRANCH  30  32
ATOM     32  O   UNL     1       5.643   4.151  19.156  0.00  0.00    +0.000 OA
ATOM     33  H   UNL     1       6.490   4.453  19.537  0.00  0.00    +0.000 HD
ENDBRANCH  30  32
ENDBRANCH  29  30
ENDBRANCH  21  29
ENDBRANCH   3  21
TORSDOF 8
ENDMDL
MODEL 8
REMARK VINA RESULT:      -7.3      2.927      4.626
REMARK  Name = 
REMARK  10 active torsions:
REMARK  status: ('A' for Active; 'I' for Inactive)
REMARK    1  A    between atoms: C_1  and  O_2
REMARK    2  A    between atoms: O_2  and  C_3
REMARK    3  A    between atoms: C_6  and  C_7
REMARK    4  A    between atoms: N_9  and  C_10
REMARK    5  A    between atoms: C_10  and  C_11
REMARK    6  A    between atoms: C_10  and  C_15
REMARK    7  A    between atoms: C_11  and  C_12
REMARK    8  A    between atoms: C_12  and  O_14
REMARK    9  A    between atoms: C_23  and  C_24
REMARK   10  A    between atoms: C_30  and  C_31
REMARK                            x       y       z     vdW  Elec       q    Type
REMARK                         _______ _______ _______ _____ _____    ______ ____
ROOT
ATOM      1  C   UNL     1       1.844   9.349  17.860  0.00  0.00    +0.000 C 
ATOM      2  O   UNL     1       2.336  10.447  17.621  0.00  0.00    +0.000 OA
ATOM      3  N   UNL     1       0.507   9.155  18.132  0.00  0.00    +0.000 N 
ATOM      4  H   UNL     1       0.213   8.199  18.310  0.00  0.00    +0.000 HD
ENDROOT
BRANCH   1   8
ATOM      5  C   UNL     1       4.096   5.767  17.605  0.00  0.00    +0.000 A 
ATOM      6  C   UNL     1       4.659   6.970  17.156  0.00  0.00    +0.000 A 
ATOM      7  C   UNL     1       3.945   8.155  17.267  0.00  0.00    +0.000 A 
ATOM      8  C   UNL     1       2.686   8.107  17.836  0.00  0.00    +0.000 A 
ATOM      9  N   UNL     1       2.125   6.968  18.325  0.00  0.00    +0.000 NA
ATOM     10  C   UNL     1       2.806   5.791  18.188  0.00  0.00    +0.000 A 
BRANCH  10  11
ATOM     11  C   UNL     1       2.084   4.576  18.711  0.00  0.00    +0.000 A 
ATOM     12  C   UNL     1       1.511   3.653  17.804  0.00  0.00    +0.000 A 
ATOM     13  C   UNL     1       0.818   2.516  18.219  0.00  0.00    +0.000 A 
ATOM     14  C   UNL     1       0.711   2.232  19.569  0.00  0.00    +0.000 A 
ATOM     15  C   UNL     1       1.287   3.089  20.505  0.00  0.00    +0.000 A 
ATOM     16 CL   UNL     1       1.141   2.606  22.164  0.00  0.00    +0.000 Cl
ATOM     17  C   UNL     1       1.956   4.269  20.104  0.00  0.00    +0.000 A 
ATOM     18  C   UNL     1       2.574   5.161  21.151  0.00  0.00    +0.000 C 
ENDBRANCH  10  11
BRANCH   5  20
ATOM     19  C   UNL     1       5.063   4.242  16.057  0.00  0.00    +0.000 C 
ATOM     20  O   UNL     1       4.724   4.562  17.405  0.00  0.00    +0.000 OA
ENDBRANCH   5  20
ENDBRANCH   1   8
BRANCH   3  21
ATOM     21  C   UNL     1      -0.471  10.234  18.225  0.00  0.00    +0.000 C 
BRANCH  21  22
ATOM     22  C   UNL     1      -0.441  10.948  19.573  0.00  0.00    +0.000 A 
ATOM     23  C   UNL     1      -0.459  10.214  20.777  0.00  0.00    +0.000 A 
ATOM     24  C   UNL     1      -0.472  10.853  22.019  0.00  0.00    +0.000 A 
ATOM     25  C   UNL     1      -0.466  12.241  22.089  0.00  0.00    +0.000 A 
ATOM     26  C   UNL     1      -0.450  12.990  20.917  0.00  0.00    +0.000 A 
ATOM     27  C   UNL     1      -0.443  12.354  19.669  0.00  0.00    +0.000 A 
ATOM     28 CL   UNL     1      -0.460  13.378  18.274  0.00  0.00    +0.000 Cl
ENDBRANCH  21  22
BRANCH  21  29
ATOM     29  C   UNL     1      -1.884   9.789  17.809  0.00  0.00    +0.000 C 
BRANCH  29  30
ATOM     30  C   UNL     1      -2.361  10.353  16.496  0.00  0.00    +0.000 C 
ATOM     31  O   UNL     1      -2.399  11.536  16.200  0.00  0.00    +0.000 OA
BRANCH  30  32
ATOM     32  O   UNL     1      -2.829   9.402  15.650  0.00  0.00    +0.000 OA
ATOM     33  H   UNL     1      -3.802   9.361  15.584  0.00  0.00    +0.000 HD
ENDBRANCH  30  32
ENDBRANCH  29  30
ENDBRANCH  21  29
ENDBRANCH   3  21
TORSDOF 8
ENDMDL
MODEL 9
REMARK VINA RESULT:      -7.3      2.767      8.372
REMARK  Name = 
REMARK  10 active torsions:
REMARK  status: ('A' for Active; 'I' for Inactive)
REMARK    1  A    between atoms: C_1  and  O_2
REMARK    2  A    between atoms: O_2  and  C_3
REMARK    3  A    between atoms: C_6  and  C_7
REMARK    4  A    between atoms: N_9  and  C_10
REMARK    5  A    between atoms: C_10  and  C_11
REMARK    6  A    between atoms: C_10  and  C_15
REMARK    7  A    between atoms: C_11  and  C_12
REMARK    8  A    between atoms: C_12  and  O_14
REMARK    9  A    between atoms: C_23  and  C_24
REMARK   10  A    between atoms: C_30  and  C_31
REMARK                            x       y       z     vdW  Elec       q    Type
REMARK                         _______ _______ _______ _____ _____    ______ ____
ROOT
ATOM      1  C   UNL     1       1.872   8.234  18.908  0.00  0.00    +0.000 C 
ATOM      2  O   UNL     1       1.888   8.517  17.715  0.00  0.00    +0.000 OA
ATOM      3  N   UNL     1       2.396   7.066  19.422  0.00  0.00    +0.000 N 
ATOM      4  H   UNL     1       2.330   6.942  20.428  0.00  0.00    +0.000 HD
ENDROOT
BRANCH   1   8
ATOM      5  C   UNL     1       0.075  10.969  21.602  0.00  0.00    +0.000 A 
ATOM      6  C   UNL     1      -0.105   9.591  21.793  0.00  0.00    +0.000 A 
ATOM      7  C   UNL     1       0.508   8.685  20.939  0.00  0.00    +0.000 A 
ATOM      8  C   UNL     1       1.296   9.182  19.918  0.00  0.00    +0.000 A 
ATOM      9  N   UNL     1       1.533  10.509  19.728  0.00  0.00    +0.000 NA
ATOM     10  C   UNL     1       0.905  11.409  20.544  0.00  0.00    +0.000 A 
BRANCH  10  11
ATOM     11  C   UNL     1       1.186  12.856  20.226  0.00  0.00    +0.000 A 
ATOM     12  C   UNL     1       2.410  13.440  20.629  0.00  0.00    +0.000 A 
ATOM     13  C   UNL     1       2.729  14.775  20.380  0.00  0.00    +0.000 A 
ATOM     14  C   UNL     1       1.846  15.571  19.671  0.00  0.00    +0.000 A 
ATOM     15  C   UNL     1       0.641  15.036  19.220  0.00  0.00    +0.000 A 
ATOM     16 CL   UNL     1      -0.361  16.106  18.294  0.00  0.00    +0.000 Cl
ATOM     17  C   UNL     1       0.282  13.697  19.500  0.00  0.00    +0.000 A 
ATOM     18  C   UNL     1      -1.026  13.158  18.982  0.00  0.00    +0.000 C 
ENDBRANCH  10  11
BRANCH   5  20
ATOM     19  C   UNL     1      -1.652  11.386  23.183  0.00  0.00    +0.000 C 
ATOM     20  O   UNL     1      -0.607  11.893  22.355  0.00  0.00    +0.000 OA
ENDBRANCH   5  20
ENDBRANCH   1   8
BRANCH   3  21
ATOM     21  C   UNL     1       2.977   6.005  18.606  0.00  0.00    +0.000 C 
BRANCH  21  22
ATOM     22  C   UNL     1       2.323   4.647  18.842  0.00  0.00    +0.000 A 
ATOM     23  C   UNL     1       1.486   4.436  19.956  0.00  0.00    +0.000 A 
ATOM     24  C   UNL     1       0.911   3.188  20.208  0.00  0.00    +0.000 A 
ATOM     25  C   UNL     1       1.156   2.121  19.352  0.00  0.00    +0.000 A 
ATOM     26  C   UNL     1       1.980   2.302  18.245  0.00  0.00    +0.000 A 
ATOM     27  C   UNL     1       2.563   3.549  17.992  0.00  0.00    +0.000 A 
ATOM     28 CL   UNL     1       3.599   3.657  16.610  0.00  0.00    +0.000 Cl
ENDBRANCH  21  22
BRANCH  21  29
ATOM     29  C   UNL     1       4.512   5.960  18.701  0.00  0.00    +0.000 C 
BRANCH  29  30
ATOM     30  C   UNL     1       5.234   6.621  17.555  0.00  0.00    +0.000 C 
ATOM     31  O   UNL     1       6.443   6.744  17.451  0.00  0.00    +0.000 OA
BRANCH  30  32
ATOM     32  O   UNL     1       4.392   7.153  16.636  0.00  0.00    +0.000 OA
ATOM     33  H   UNL     1       4.650   8.037  16.312  0.00  0.00    +0.000 HD
ENDBRANCH  30  32
ENDBRANCH  29  30
ENDBRANCH  21  29
ENDBRANCH   3  21
TORSDOF 8
ENDMDL
