MODEL 1
REMARK VINA RESULT:      -7.5      0.000      0.000
REMARK  Name = 
REMARK  5 active torsions:
REMARK  status: ('A' for Active; 'I' for Inactive)
REMARK    1  A    between atoms: C_1  and  C_2
REMARK    2  A    between atoms: N_4  and  C_5
REMARK    3  A    between atoms: C_9  and  C_10
REMARK    4  A    between atoms: C_10  and  C_11
REMARK    5  A    between atoms: C_10  and  N_17
REMARK                            x       y       z     vdW  Elec       q    Type
REMARK                         _______ _______ _______ _____ _____    ______ ____
ROOT
ATOM      1  C   UNL     1       2.323   5.991  20.467  0.00  0.00    +0.000 A 
ATOM      2  S   UNL     1       1.250   7.189  21.032  0.00  0.00    +0.000 S 
ATOM      3  C   UNL     1       1.571   8.177  19.704  0.00  0.00    +0.000 A 
ATOM      4  C   UNL     1       2.445   7.588  18.803  0.00  0.00    +0.000 A 
ATOM      5  C   UNL     1       3.053   6.375  19.341  0.00  0.00    +0.000 A 
ATOM      6  C   UNL     1       2.643   8.244  17.483  0.00  0.00    +0.000 C 
ATOM      7  C   UNL     1       2.632   9.772  17.635  0.00  0.00    +0.000 C 
ATOM      8  C   UNL     1       1.287  10.215  18.225  0.00  0.00    +0.000 C 
ATOM      9  C   UNL     1       0.959   9.548  19.572  0.00  0.00    +0.000 C 
ENDROOT
BRANCH   1  13
ATOM     10  C   UNL     1       1.944   2.611  21.956  0.00  0.00    +0.000 C 
ATOM     11  C   UNL     1       1.555   3.778  21.088  0.00  0.00    +0.000 C 
ATOM     12  O   UNL     1       0.572   3.721  20.358  0.00  0.00    +0.000 OA
ATOM     13  N   UNL     1       2.449   4.834  21.218  0.00  0.00    +0.000 N 
ATOM     14  H   UNL     1       3.379   4.571  21.507  0.00  0.00    +0.000 HD
ENDBRANCH   1  13
BRANCH   5  15
ATOM     15  C   UNL     1       4.215   5.542  18.781  0.00  0.00    +0.000 C 
BRANCH  15  16
ATOM     16  C   UNL     1       3.745   4.120  18.474  0.00  0.00    +0.000 A 
ATOM     17  C   UNL     1       2.672   3.791  17.646  0.00  0.00    +0.000 A 
ATOM     18  C   UNL     1       2.321   2.453  17.494  0.00  0.00    +0.000 A 
ATOM     19  N   UNL     1       2.964   1.432  18.096  0.00  0.00    +0.000 NA
ATOM     20  C   UNL     1       4.005   1.759  18.886  0.00  0.00    +0.000 A 
ATOM     21  C   UNL     1       4.424   3.061  19.098  0.00  0.00    +0.000 A 
ENDBRANCH  15  16
BRANCH  15  22
ATOM     22  N   UNL     1       5.028   6.204  17.790  0.00  0.00    +0.000 NA
ATOM     23  C   UNL     1       4.965   5.762  16.410  0.00  0.00    +0.000 C 
ATOM     24  C   UNL     1       6.352   5.284  15.991  0.00  0.00    +0.000 C 
ATOM     25  O   UNL     1       7.283   6.373  16.042  0.00  0.00    +0.000 OA
ATOM     26  C   UNL     1       7.379   6.956  17.350  0.00  0.00    +0.000 C 
ATOM     27  C   UNL     1       6.013   7.242  18.031  0.00  0.00    +0.000 C 
ENDBRANCH  15  22
ENDBRANCH   5  15
TORSDOF 4
ENDMDL
MODEL 2
REMARK VINA RESULT:      -7.4      1.856      3.620
REMARK  Name = 
REMARK  5 active torsions:
REMARK  status: ('A' for Active; 'I' for Inactive)
REMARK    1  A    between atoms: C_1  and  C_2
REMARK    2  A    between atoms: N_4  and  C_5
REMARK    3  A    between atoms: C_9  and  C_10
REMARK    4  A    between atoms: C_10  and  C_11
REMARK    5  A    between atoms: C_10  and  N_17
REMARK                            x       y       z     vdW  Elec       q    Type
REMARK                         _______ _______ _______ _____ _____    ______ ____
ROOT
ATOM      1  C   UNL     1       2.675   5.923  20.089  0.00  0.00    +0.000 A 
ATOM      2  S   UNL     1       1.870   6.990  21.149  0.00  0.00    +0.000 S 
ATOM      3  C   UNL     1       1.675   8.137  19.929  0.00  0.00    +0.000 A 
ATOM      4  C   UNL     1       2.165   7.701  18.707  0.00  0.00    +0.000 A 
ATOM      5  C   UNL     1       2.939   6.471  18.833  0.00  0.00    +0.000 A 
ATOM      6  C   UNL     1       1.860   8.512  17.498  0.00  0.00    +0.000 C 
ATOM      7  C   UNL     1       1.890  10.011  17.832  0.00  0.00    +0.000 C 
ATOM      8  C   UNL     1       0.850  10.311  18.919  0.00  0.00    +0.000 C 
ATOM      9  C   UNL     1       1.043   9.478  20.200  0.00  0.00    +0.000 C 
ENDROOT
BRANCH   1  13
ATOM     10  C   UNL     1       2.837   2.494  21.503  0.00  0.00    +0.000 C 
ATOM     11  C   UNL     1       2.162   3.771  21.078  0.00  0.00    +0.000 C 
ATOM     12  O   UNL     1       0.946   3.896  21.153  0.00  0.00    +0.000 OA
ATOM     13  N   UNL     1       3.078   4.698  20.593  0.00  0.00    +0.000 N 
ATOM     14  H   UNL     1       3.926   4.301  20.217  0.00  0.00    +0.000 HD
ENDBRANCH   1  13
BRANCH   5  15
ATOM     15  C   UNL     1       3.824   5.771  17.791  0.00  0.00    +0.000 C 
BRANCH  15  16
ATOM     16  C   UNL     1       5.300   5.972  18.134  0.00  0.00    +0.000 A 
ATOM     17  C   UNL     1       5.968   5.357  19.192  0.00  0.00    +0.000 A 
ATOM     18  C   UNL     1       7.305   5.668  19.421  0.00  0.00    +0.000 A 
ATOM     19  N   UNL     1       8.016   6.533  18.669  0.00  0.00    +0.000 NA
ATOM     20  C   UNL     1       7.365   7.115  17.643  0.00  0.00    +0.000 A 
ATOM     21  C   UNL     1       6.036   6.867  17.342  0.00  0.00    +0.000 A 
ENDBRANCH  15  16
BRANCH  15  22
ATOM     22  N   UNL     1       3.401   4.446  17.411  0.00  0.00    +0.000 NA
ATOM     23  C   UNL     1       2.005   4.211  17.093  0.00  0.00    +0.000 C 
ATOM     24  C   UNL     1       1.453   3.180  18.073  0.00  0.00    +0.000 C 
ATOM     25  O   UNL     1       2.139   1.931  17.910  0.00  0.00    +0.000 OA
ATOM     26  C   UNL     1       3.554   2.047  18.121  0.00  0.00    +0.000 C 
ATOM     27  C   UNL     1       4.218   3.247  17.394  0.00  0.00    +0.000 C 
ENDBRANCH  15  22
ENDBRANCH   5  15
TORSDOF 4
ENDMDL
MODEL 3
REMARK VINA RESULT:      -6.8      6.914      9.015
REMARK  Name = 
REMARK  5 active torsions:
REMARK  status: ('A' for Active; 'I' for Inactive)
REMARK    1  A    between atoms: C_1  and  C_2
REMARK    2  A    between atoms: N_4  and  C_5
REMARK    3  A    between atoms: C_9  and  C_10
REMARK    4  A    between atoms: C_10  and  C_11
REMARK    5  A    between atoms: C_10  and  N_17
REMARK                            x       y       z     vdW  Elec       q    Type
REMARK                         _______ _______ _______ _____ _____    ______ ____
ROOT
ATOM      1  C   UNL     1      -3.586  13.017  20.508  0.00  0.00    +0.000 A 
ATOM      2  S   UNL     1      -4.831  12.654  19.400  0.00  0.00    +0.000 S 
ATOM      3  C   UNL     1      -3.822  11.625  18.524  0.00  0.00    +0.000 A 
ATOM      4  C   UNL     1      -2.563  11.508  19.091  0.00  0.00    +0.000 A 
ATOM      5  C   UNL     1      -2.346  12.482  20.156  0.00  0.00    +0.000 A 
ATOM      6  C   UNL     1      -1.646  10.465  18.557  0.00  0.00    +0.000 C 
ATOM      7  C   UNL     1      -1.803  10.338  17.034  0.00  0.00    +0.000 C 
ATOM      8  C   UNL     1      -3.252   9.958  16.703  0.00  0.00    +0.000 C 
ATOM      9  C   UNL     1      -4.290  10.948  17.262  0.00  0.00    +0.000 C 
ENDROOT
BRANCH   1  13
ATOM     10  C   UNL     1      -4.470  14.512  23.789  0.00  0.00    +0.000 C 
ATOM     11  C   UNL     1      -4.268  13.392  22.803  0.00  0.00    +0.000 C 
ATOM     12  O   UNL     1      -4.413  12.223  23.138  0.00  0.00    +0.000 OA
ATOM     13  N   UNL     1      -3.886  13.872  21.555  0.00  0.00    +0.000 N 
ATOM     14  H   UNL     1      -3.419  14.767  21.568  0.00  0.00    +0.000 HD
ENDBRANCH   1  13
BRANCH   5  15
ATOM     15  C   UNL     1      -1.047  12.842  20.891  0.00  0.00    +0.000 C 
BRANCH  15  16
ATOM     16  C   UNL     1      -0.440  11.593  21.532  0.00  0.00    +0.000 A 
ATOM     17  C   UNL     1       0.676  10.908  21.053  0.00  0.00    +0.000 A 
ATOM     18  C   UNL     1       1.094   9.754  21.707  0.00  0.00    +0.000 A 
ATOM     19  N   UNL     1       0.487   9.246  22.799  0.00  0.00    +0.000 NA
ATOM     20  C   UNL     1      -0.585   9.919  23.260  0.00  0.00    +0.000 A 
ATOM     21  C   UNL     1      -1.072  11.074  22.673  0.00  0.00    +0.000 A 
ENDBRANCH  15  16
BRANCH  15  22
ATOM     22  N   UNL     1      -0.158  13.725  20.179  0.00  0.00    +0.000 NA
ATOM     23  C   UNL     1      -0.106  13.662  18.730  0.00  0.00    +0.000 C 
ATOM     24  C   UNL     1       1.313  13.286  18.313  0.00  0.00    +0.000 C 
ATOM     25  O   UNL     1       2.232  14.307  18.723  0.00  0.00    +0.000 OA
ATOM     26  C   UNL     1       2.217  14.525  20.142  0.00  0.00    +0.000 C 
ATOM     27  C   UNL     1       0.799  14.646  20.762  0.00  0.00    +0.000 C 
ENDBRANCH  15  22
ENDBRANCH   5  15
TORSDOF 4
ENDMDL
MODEL 4
REMARK VINA RESULT:      -6.8      5.359      8.895
REMARK  Name = 
REMARK  5 active torsions:
REMARK  status: ('A' for Active; 'I' for Inactive)
REMARK    1  A    between atoms: C_1  and  C_2
REMARK    2  A    between atoms: N_4  and  C_5
REMARK    3  A    between atoms: C_9  and  C_10
REMARK    4  A    between atoms: C_10  and  C_11
REMARK    5  A    between atoms: C_10  and  N_17
REMARK                            x       y       z     vdW  Elec       q    Type
REMARK                         _______ _______ _______ _____ _____    ______ ____
ROOT
ATOM      1  C   UNL     1      -3.074  12.067  18.567  0.00  0.00    +0.000 A 
ATOM      2  S   UNL     1      -4.507  12.263  19.470  0.00  0.00    +0.000 S 
ATOM      3  C   UNL     1      -3.638  12.529  20.890  0.00  0.00    +0.000 A 
ATOM      4  C   UNL     1      -2.268  12.526  20.682  0.00  0.00    +0.000 A 
ATOM      5  C   UNL     1      -1.916  12.056  19.346  0.00  0.00    +0.000 A 
ATOM      6  C   UNL     1      -1.386  12.968  21.796  0.00  0.00    +0.000 C 
ATOM      7  C   UNL     1      -1.946  12.496  23.146  0.00  0.00    +0.000 C 
ATOM      8  C   UNL     1      -3.350  13.081  23.347  0.00  0.00    +0.000 C 
ATOM      9  C   UNL     1      -4.330  12.726  22.215  0.00  0.00    +0.000 C 
ENDROOT
BRANCH   1  13
ATOM     10  C   UNL     1      -3.459  10.550  15.201  0.00  0.00    +0.000 C 
ATOM     11  C   UNL     1      -3.254  10.543  16.693  0.00  0.00    +0.000 C 
ATOM     12  O   UNL     1      -3.186   9.490  17.314  0.00  0.00    +0.000 OA
ATOM     13  N   UNL     1      -3.197  11.833  17.208  0.00  0.00    +0.000 N 
ATOM     14  H   UNL     1      -3.676  12.532  16.661  0.00  0.00    +0.000 HD
ENDBRANCH   1  13
BRANCH   5  15
ATOM     15  C   UNL     1      -0.536  11.696  18.777  0.00  0.00    +0.000 C 
BRANCH  15  16
ATOM     16  C   UNL     1       0.470  12.802  19.094  0.00  0.00    +0.000 A 
ATOM     17  C   UNL     1       1.660  12.626  19.800  0.00  0.00    +0.000 A 
ATOM     18  C   UNL     1       2.462  13.733  20.061  0.00  0.00    +0.000 A 
ATOM     19  N   UNL     1       2.167  14.987  19.662  0.00  0.00    +0.000 NA
ATOM     20  C   UNL     1       1.022  15.146  18.972  0.00  0.00    +0.000 A 
ATOM     21  C   UNL     1       0.162  14.104  18.668  0.00  0.00    +0.000 A 
ENDBRANCH  15  16
BRANCH  15  22
ATOM     22  N   UNL     1      -0.117  10.332  18.989  0.00  0.00    +0.000 NA
ATOM     23  C   UNL     1      -0.382   9.700  20.268  0.00  0.00    +0.000 C 
ATOM     24  C   UNL     1       0.951   9.307  20.899  0.00  0.00    +0.000 C 
ATOM     25  O   UNL     1       1.616   8.337  20.079  0.00  0.00    +0.000 OA
ATOM     26  C   UNL     1       1.866   8.818  18.749  0.00  0.00    +0.000 C 
ATOM     27  C   UNL     1       0.651   9.509  18.074  0.00  0.00    +0.000 C 
ENDBRANCH  15  22
ENDBRANCH   5  15
TORSDOF 4
ENDMDL
MODEL 5
REMARK VINA RESULT:      -6.7      4.862      7.852
REMARK  Name = 
REMARK  5 active torsions:
REMARK  status: ('A' for Active; 'I' for Inactive)
REMARK    1  A    between atoms: C_1  and  C_2
REMARK    2  A    between atoms: N_4  and  C_5
REMARK    3  A    between atoms: C_9  and  C_10
REMARK    4  A    between atoms: C_10  and  C_11
REMARK    5  A    between atoms: C_10  and  N_17
REMARK                            x       y       z     vdW  Elec       q    Type
REMARK                         _______ _______ _______ _____ _____    ______ ____
ROOT
ATOM      1  C   UNL     1       0.508  10.544  20.897  0.00  0.00    +0.000 A 
ATOM      2  S   UNL     1       0.932   9.205  21.863  0.00  0.00    +0.000 S 
ATOM      3  C   UNL     1       1.517   8.359  20.527  0.00  0.00    +0.000 A 
ATOM      4  C   UNL     1       1.445   9.101  19.357  0.00  0.00    +0.000 A 
ATOM      5  C   UNL     1       0.666  10.323  19.528  0.00  0.00    +0.000 A 
ATOM      6  C   UNL     1       2.129   8.571  18.147  0.00  0.00    +0.000 C 
ATOM      7  C   UNL     1       1.999   7.042  18.080  0.00  0.00    +0.000 C 
ATOM      8  C   UNL     1       2.634   6.423  19.332  0.00  0.00    +0.000 C 
ATOM      9  C   UNL     1       2.033   6.949  20.648  0.00  0.00    +0.000 C 
ENDROOT
BRANCH   1  13
ATOM     10  C   UNL     1      -1.318  12.849  23.163  0.00  0.00    +0.000 C 
ATOM     11  C   UNL     1      -0.914  11.511  22.604  0.00  0.00    +0.000 C 
ATOM     12  O   UNL     1      -1.320  10.470  23.106  0.00  0.00    +0.000 OA
ATOM     13  N   UNL     1      -0.043  11.646  21.530  0.00  0.00    +0.000 N 
ATOM     14  H   UNL     1       0.497  12.498  21.524  0.00  0.00    +0.000 HD
ENDBRANCH   1  13
BRANCH   5  15
ATOM     15  C   UNL     1       0.162  11.308  18.463  0.00  0.00    +0.000 C 
BRANCH  15  16
ATOM     16  C   UNL     1      -1.342  11.132  18.253  0.00  0.00    +0.000 A 
ATOM     17  C   UNL     1      -2.332  11.894  18.871  0.00  0.00    +0.000 A 
ATOM     18  C   UNL     1      -3.669  11.594  18.627  0.00  0.00    +0.000 A 
ATOM     19  N   UNL     1      -4.080  10.603  17.810  0.00  0.00    +0.000 NA
ATOM     20  C   UNL     1      -3.117   9.879  17.209  0.00  0.00    +0.000 A 
ATOM     21  C   UNL     1      -1.764  10.105  17.395  0.00  0.00    +0.000 A 
ENDBRANCH  15  16
BRANCH  15  22
ATOM     22  N   UNL     1       0.667  12.654  18.578  0.00  0.00    +0.000 NA
ATOM     23  C   UNL     1       2.101  12.876  18.572  0.00  0.00    +0.000 C 
ATOM     24  C   UNL     1       2.495  13.527  19.894  0.00  0.00    +0.000 C 
ATOM     25  O   UNL     1       1.870  14.812  20.014  0.00  0.00    +0.000 OA
ATOM     26  C   UNL     1       0.437  14.736  19.953  0.00  0.00    +0.000 C 
ATOM     27  C   UNL     1      -0.113  13.856  18.800  0.00  0.00    +0.000 C 
ENDBRANCH  15  22
ENDBRANCH   5  15
TORSDOF 4
ENDMDL
MODEL 6
REMARK VINA RESULT:      -6.7      6.721      9.180
REMARK  Name = 
REMARK  5 active torsions:
REMARK  status: ('A' for Active; 'I' for Inactive)
REMARK    1  A    between atoms: C_1  and  C_2
REMARK    2  A    between atoms: N_4  and  C_5
REMARK    3  A    between atoms: C_9  and  C_10
REMARK    4  A    between atoms: C_10  and  C_11
REMARK    5  A    between atoms: C_10  and  N_17
REMARK                            x       y       z     vdW  Elec       q    Type
REMARK                         _______ _______ _______ _____ _____    ______ ____
ROOT
ATOM      1  C   UNL     1      -3.336  13.044  20.953  0.00  0.00    +0.000 A 
ATOM      2  S   UNL     1      -4.739  12.867  20.000  0.00  0.00    +0.000 S 
ATOM      3  C   UNL     1      -3.915  11.925  18.870  0.00  0.00    +0.000 A 
ATOM      4  C   UNL     1      -2.596  11.696  19.231  0.00  0.00    +0.000 A 
ATOM      5  C   UNL     1      -2.185  12.518  20.364  0.00  0.00    +0.000 A 
ATOM      6  C   UNL     1      -1.816  10.700  18.447  0.00  0.00    +0.000 C 
ATOM      7  C   UNL     1      -2.190  10.774  16.959  0.00  0.00    +0.000 C 
ATOM      8  C   UNL     1      -3.687  10.486  16.796  0.00  0.00    +0.000 C 
ATOM      9  C   UNL     1      -4.586  11.430  17.614  0.00  0.00    +0.000 C 
ENDROOT
BRANCH   1  13
ATOM     10  C   UNL     1      -3.696  14.138  24.482  0.00  0.00    +0.000 C 
ATOM     11  C   UNL     1      -3.694  13.149  23.347  0.00  0.00    +0.000 C 
ATOM     12  O   UNL     1      -3.870  11.954  23.552  0.00  0.00    +0.000 OA
ATOM     13  N   UNL     1      -3.444  13.769  22.128  0.00  0.00    +0.000 N 
ATOM     14  H   UNL     1      -2.923  14.631  22.188  0.00  0.00    +0.000 HD
ENDBRANCH   1  13
BRANCH   5  15
ATOM     15  C   UNL     1      -0.781  12.739  20.943  0.00  0.00    +0.000 C 
BRANCH  15  16
ATOM     16  C   UNL     1      -0.210  11.418  21.459  0.00  0.00    +0.000 A 
ATOM     17  C   UNL     1       0.717  10.626  20.782  0.00  0.00    +0.000 A 
ATOM     18  C   UNL     1       1.116   9.419  21.346  0.00  0.00    +0.000 A 
ATOM     19  N   UNL     1       0.667   8.957  22.531  0.00  0.00    +0.000 NA
ATOM     20  C   UNL     1      -0.220   9.733  23.183  0.00  0.00    +0.000 A 
ATOM     21  C   UNL     1      -0.675  10.947  22.696  0.00  0.00    +0.000 A 
ENDBRANCH  15  16
BRANCH  15  22
ATOM     22  N   UNL     1       0.088  13.579  20.155  0.00  0.00    +0.000 NA
ATOM     23  C   UNL     1       1.339  14.039  20.726  0.00  0.00    +0.000 C 
ATOM     24  C   UNL     1       1.319  15.563  20.772  0.00  0.00    +0.000 C 
ATOM     25  O   UNL     1       1.243  16.094  19.442  0.00  0.00    +0.000 OA
ATOM     26  C   UNL     1       0.078  15.644  18.735  0.00  0.00    +0.000 C 
ATOM     27  C   UNL     1      -0.191  14.119  18.837  0.00  0.00    +0.000 C 
ENDBRANCH  15  22
ENDBRANCH   5  15
TORSDOF 4
ENDMDL
MODEL 7
REMARK VINA RESULT:      -6.6      6.813      9.049
REMARK  Name = 
REMARK  5 active torsions:
REMARK  status: ('A' for Active; 'I' for Inactive)
REMARK    1  A    between atoms: C_1  and  C_2
REMARK    2  A    between atoms: N_4  and  C_5
REMARK    3  A    between atoms: C_9  and  C_10
REMARK    4  A    between atoms: C_10  and  C_11
REMARK    5  A    between atoms: C_10  and  N_17
REMARK                            x       y       z     vdW  Elec       q    Type
REMARK                         _______ _______ _______ _____ _____    ______ ____
ROOT
ATOM      1  C   UNL     1      -3.671  12.597  20.364  0.00  0.00    +0.000 A 
ATOM      2  S   UNL     1      -5.073  12.527  19.395  0.00  0.00    +0.000 S 
ATOM      3  C   UNL     1      -4.231  11.783  18.138  0.00  0.00    +0.000 A 
ATOM      4  C   UNL     1      -2.905  11.535  18.461  0.00  0.00    +0.000 A 
ATOM      5  C   UNL     1      -2.510  12.192  19.703  0.00  0.00    +0.000 A 
ATOM      6  C   UNL     1      -2.104  10.686  17.539  0.00  0.00    +0.000 C 
ATOM      7  C   UNL     1      -2.485  10.969  16.078  0.00  0.00    +0.000 C 
ATOM      8  C   UNL     1      -3.976  10.671  15.875  0.00  0.00    +0.000 C 
ATOM      9  C   UNL     1      -4.894  11.462  16.824  0.00  0.00    +0.000 C 
ENDROOT
BRANCH   1  13
ATOM     10  C   UNL     1      -3.898  14.849  23.306  0.00  0.00    +0.000 C 
ATOM     11  C   UNL     1      -3.652  14.501  21.862  0.00  0.00    +0.000 C 
ATOM     12  O   UNL     1      -3.393  15.371  21.039  0.00  0.00    +0.000 OA
ATOM     13  N   UNL     1      -3.792  13.137  21.633  0.00  0.00    +0.000 N 
ATOM     14  H   UNL     1      -4.396  12.656  22.283  0.00  0.00    +0.000 HD
ENDBRANCH   1  13
BRANCH   5  15
ATOM     15  C   UNL     1      -1.109  12.360  20.308  0.00  0.00    +0.000 C 
BRANCH  15  16
ATOM     16  C   UNL     1      -0.724  11.111  21.101  0.00  0.00    +0.000 A 
ATOM     17  C   UNL     1      -0.367   9.884  20.541  0.00  0.00    +0.000 A 
ATOM     18  C   UNL     1      -0.087   8.812  21.383  0.00  0.00    +0.000 A 
ATOM     19  N   UNL     1      -0.129   8.881  22.729  0.00  0.00    +0.000 NA
ATOM     20  C   UNL     1      -0.465  10.072  23.261  0.00  0.00    +0.000 A 
ATOM     21  C   UNL     1      -0.761  11.191  22.501  0.00  0.00    +0.000 A 
ENDBRANCH  15  16
BRANCH  15  22
ATOM     22  N   UNL     1      -0.117  12.921  19.424  0.00  0.00    +0.000 NA
ATOM     23  C   UNL     1       1.166  12.258  19.286  0.00  0.00    +0.000 C 
ATOM     24  C   UNL     1       2.259  13.222  19.736  0.00  0.00    +0.000 C 
ATOM     25  O   UNL     1       2.285  14.371  18.880  0.00  0.00    +0.000 OA
ATOM     26  C   UNL     1       1.034  15.076  18.866  0.00  0.00    +0.000 C 
ATOM     27  C   UNL     1      -0.215  14.171  18.694  0.00  0.00    +0.000 C 
ENDBRANCH  15  22
ENDBRANCH   5  15
TORSDOF 4
ENDMDL
MODEL 8
REMARK VINA RESULT:      -6.6      4.693      7.784
REMARK  Name = 
REMARK  5 active torsions:
REMARK  status: ('A' for Active; 'I' for Inactive)
REMARK    1  A    between atoms: C_1  and  C_2
REMARK    2  A    between atoms: N_4  and  C_5
REMARK    3  A    between atoms: C_9  and  C_10
REMARK    4  A    between atoms: C_10  and  C_11
REMARK    5  A    between atoms: C_10  and  N_17
REMARK                            x       y       z     vdW  Elec       q    Type
REMARK                         _______ _______ _______ _____ _____    ______ ____
ROOT
ATOM      1  C   UNL     1       0.055   9.956  20.717  0.00  0.00    +0.000 A 
ATOM      2  S   UNL     1       0.490   8.530  21.545  0.00  0.00    +0.000 S 
ATOM      3  C   UNL     1       1.425   7.999  20.246  0.00  0.00    +0.000 A 
ATOM      4  C   UNL     1       1.457   8.916  19.206  0.00  0.00    +0.000 A 
ATOM      5  C   UNL     1       0.489   9.992  19.391  0.00  0.00    +0.000 A 
ATOM      6  C   UNL     1       2.419   8.684  18.094  0.00  0.00    +0.000 C 
ATOM      7  C   UNL     1       2.530   7.185  17.783  0.00  0.00    +0.000 C 
ATOM      8  C   UNL     1       3.012   6.439  19.033  0.00  0.00    +0.000 C 
ATOM      9  C   UNL     1       2.113   6.659  20.263  0.00  0.00    +0.000 C 
ENDROOT
BRANCH   1  13
ATOM     10  C   UNL     1      -1.660  12.073  23.239  0.00  0.00    +0.000 C 
ATOM     11  C   UNL     1      -0.748  10.973  22.765  0.00  0.00    +0.000 C 
ATOM     12  O   UNL     1      -0.085  10.318  23.560  0.00  0.00    +0.000 OA
ATOM     13  N   UNL     1      -0.757  10.862  21.379  0.00  0.00    +0.000 N 
ATOM     14  H   UNL     1      -1.003  11.707  20.886  0.00  0.00    +0.000 HD
ENDBRANCH   1  13
BRANCH   5  15
ATOM     15  C   UNL     1       0.046  11.078  18.401  0.00  0.00    +0.000 C 
BRANCH  15  16
ATOM     16  C   UNL     1      -1.405  10.847  17.979  0.00  0.00    +0.000 A 
ATOM     17  C   UNL     1      -1.824   9.923  17.021  0.00  0.00    +0.000 A 
ATOM     18  C   UNL     1      -3.175   9.851  16.697  0.00  0.00    +0.000 A 
ATOM     19  N   UNL     1      -4.127  10.621  17.262  0.00  0.00    +0.000 NA
ATOM     20  C   UNL     1      -3.715  11.502  18.193  0.00  0.00    +0.000 A 
ATOM     21  C   UNL     1      -2.392  11.645  18.577  0.00  0.00    +0.000 A 
ENDBRANCH  15  16
BRANCH  15  22
ATOM     22  N   UNL     1       0.434  12.424  18.746  0.00  0.00    +0.000 NA
ATOM     23  C   UNL     1       1.827  12.709  19.032  0.00  0.00    +0.000 C 
ATOM     24  C   UNL     1       1.931  13.224  20.465  0.00  0.00    +0.000 C 
ATOM     25  O   UNL     1       1.213  14.458  20.596  0.00  0.00    +0.000 OA
ATOM     26  C   UNL     1      -0.176  14.326  20.260  0.00  0.00    +0.000 C 
ATOM     27  C   UNL     1      -0.450  13.558  18.939  0.00  0.00    +0.000 C 
ENDBRANCH  15  22
ENDBRANCH   5  15
TORSDOF 4
ENDMDL
MODEL 9
REMARK VINA RESULT:      -6.5      4.398      7.397
REMARK  Name = 
REMARK  5 active torsions:
REMARK  status: ('A' for Active; 'I' for Inactive)
REMARK    1  A    between atoms: C_1  and  C_2
REMARK    2  A    between atoms: N_4  and  C_5
REMARK    3  A    between atoms: C_9  and  C_10
REMARK    4  A    between atoms: C_10  and  C_11
REMARK    5  A    between atoms: C_10  and  N_17
REMARK                            x       y       z     vdW  Elec       q    Type
REMARK                         _______ _______ _______ _____ _____    ______ ____
ROOT
ATOM      1  C   UNL     1       0.120   9.575  20.752  0.00  0.00    +0.000 A 
ATOM      2  S   UNL     1       0.532   8.050  21.394  0.00  0.00    +0.000 S 
ATOM      3  C   UNL     1       1.566   7.727  20.102  0.00  0.00    +0.000 A 
ATOM      4  C   UNL     1       1.647   8.785  19.210  0.00  0.00    +0.000 A 
ATOM      5  C   UNL     1       0.643   9.809  19.479  0.00  0.00    +0.000 A 
ATOM      6  C   UNL     1       2.687   8.731  18.148  0.00  0.00    +0.000 C 
ATOM      7  C   UNL     1       2.856   7.294  17.632  0.00  0.00    +0.000 C 
ATOM      8  C   UNL     1       3.269   6.381  18.794  0.00  0.00    +0.000 C 
ATOM      9  C   UNL     1       2.283   6.407  19.975  0.00  0.00    +0.000 C 
ENDROOT
BRANCH   1  13
ATOM     10  C   UNL     1      -1.660  11.470  23.402  0.00  0.00    +0.000 C 
ATOM     11  C   UNL     1      -0.637  10.510  22.855  0.00  0.00    +0.000 C 
ATOM     12  O   UNL     1       0.188   9.982  23.591  0.00  0.00    +0.000 OA
ATOM     13  N   UNL     1      -0.757  10.363  21.478  0.00  0.00    +0.000 N 
ATOM     14  H   UNL     1      -1.174  11.148  21.001  0.00  0.00    +0.000 HD
ENDBRANCH   1  13
BRANCH   5  15
ATOM     15  C   UNL     1       0.242  11.021  18.627  0.00  0.00    +0.000 C 
BRANCH  15  16
ATOM     16  C   UNL     1      -1.245  10.953  18.279  0.00  0.00    +0.000 A 
ATOM     17  C   UNL     1      -2.218  11.837  18.743  0.00  0.00    +0.000 A 
ATOM     18  C   UNL     1      -3.547  11.629  18.387  0.00  0.00    +0.000 A 
ATOM     19  N   UNL     1      -3.966  10.617  17.600  0.00  0.00    +0.000 NA
ATOM     20  C   UNL     1      -3.017   9.773  17.149  0.00  0.00    +0.000 A 
ATOM     21  C   UNL     1      -1.673   9.902  17.453  0.00  0.00    +0.000 A 
ENDBRANCH  15  16
BRANCH  15  22
ATOM     22  N   UNL     1       0.766  12.289  19.071  0.00  0.00    +0.000 NA
ATOM     23  C   UNL     1       1.242  13.244  18.088  0.00  0.00    +0.000 C 
ATOM     24  C   UNL     1       2.722  13.509  18.348  0.00  0.00    +0.000 C 
ATOM     25  O   UNL     1       2.894  14.112  19.637  0.00  0.00    +0.000 OA
ATOM     26  C   UNL     1       2.385  13.293  20.701  0.00  0.00    +0.000 C 
ATOM     27  C   UNL     1       0.969  12.710  20.445  0.00  0.00    +0.000 C 
ENDBRANCH  15  22
ENDBRANCH   5  15
TORSDOF 4
ENDMDL
