MODEL 1
REMARK VINA RESULT:      -7.2      0.000      0.000
REMARK  Name = 
REMARK  4 active torsions:
REMARK  status: ('A' for Active; 'I' for Inactive)
REMARK    1  A    between atoms: C_2  and  C_3
REMARK    2  A    between atoms: C_4  and  C_5
REMARK    3  A    between atoms: C_11  and  C_12
REMARK    4  A    between atoms: N_16  and  O_17
REMARK                            x       y       z     vdW  Elec       q    Type
REMARK                         _______ _______ _______ _____ _____    ______ ____
ROOT
ATOM      1  C   UNL     1       4.640   4.312  17.139  0.00  0.00    +0.000 A 
ATOM      2  C   UNL     1       3.387   3.677  17.082  0.00  0.00    +0.000 A 
ATOM      3  C   UNL     1       2.733   3.269  18.247  0.00  0.00    +0.000 A 
ATOM      4  C   UNL     1       3.329   3.493  19.482  0.00  0.00    +0.000 A 
ATOM      5 CL   UNL     1       2.537   2.987  20.922  0.00  0.00    +0.000 Cl
ATOM      6  C   UNL     1       4.568   4.125  19.558  0.00  0.00    +0.000 A 
ATOM      7  C   UNL     1       5.241   4.548  18.391  0.00  0.00    +0.000 A 
ENDROOT
BRANCH   7   8
ATOM      8  C   UNL     1       6.577   5.231  18.580  0.00  0.00    +0.000 C 
ATOM      9  F   UNL     1       7.654   4.583  18.063  0.00  0.00    +0.000 F 
ATOM     10  F   UNL     1       6.590   6.471  18.009  0.00  0.00    +0.000 F 
ATOM     11  F   UNL     1       6.864   5.432  19.897  0.00  0.00    +0.000 F 
ENDBRANCH   7   8
BRANCH   1  13
ATOM     12  C   UNL     1       6.117   3.882  15.225  0.00  0.00    +0.000 C 
ATOM     13  C   UNL     1       5.258   4.688  15.865  0.00  0.00    +0.000 C 
BRANCH  12  15
ATOM     14  O   UNL     1       6.422   3.797  12.854  0.00  0.00    +0.000 OA
ATOM     15  C   UNL     1       6.701   4.313  13.931  0.00  0.00    +0.000 C 
ATOM     16  N   UNL     1       7.583   5.352  14.052  0.00  0.00    +0.000 N 
ATOM     17  H   UNL     1       7.872   5.791  14.918  0.00  0.00    +0.000 HD
BRANCH  16  18
ATOM     18  O   UNL     1       8.199   5.808  12.866  0.00  0.00    +0.000 OA
ATOM     19  H   UNL     1       7.444   5.839  12.236  0.00  0.00    +0.000 HD
ENDBRANCH  16  18
ENDBRANCH  12  15
ENDBRANCH   1  13
TORSDOF 4
ENDMDL
MODEL 2
REMARK VINA RESULT:      -7.2      1.092      1.364
REMARK  Name = 
REMARK  4 active torsions:
REMARK  status: ('A' for Active; 'I' for Inactive)
REMARK    1  A    between atoms: C_2  and  C_3
REMARK    2  A    between atoms: C_4  and  C_5
REMARK    3  A    between atoms: C_11  and  C_12
REMARK    4  A    between atoms: N_16  and  O_17
REMARK                            x       y       z     vdW  Elec       q    Type
REMARK                         _______ _______ _______ _____ _____    ______ ____
ROOT
ATOM      1  C   UNL     1       4.993   4.257  17.140  0.00  0.00    +0.000 A 
ATOM      2  C   UNL     1       3.636   3.891  17.147  0.00  0.00    +0.000 A 
ATOM      3  C   UNL     1       2.838   4.112  18.271  0.00  0.00    +0.000 A 
ATOM      4  C   UNL     1       3.391   4.702  19.401  0.00  0.00    +0.000 A 
ATOM      5 CL   UNL     1       2.420   4.971  20.794  0.00  0.00    +0.000 Cl
ATOM      6  C   UNL     1       4.734   5.075  19.410  0.00  0.00    +0.000 A 
ATOM      7  C   UNL     1       5.555   4.863  18.280  0.00  0.00    +0.000 A 
ENDROOT
BRANCH   7   8
ATOM      8  C   UNL     1       6.995   5.310  18.388  0.00  0.00    +0.000 C 
ATOM      9  F   UNL     1       7.932   4.380  18.060  0.00  0.00    +0.000 F 
ATOM     10  F   UNL     1       7.248   6.380  17.580  0.00  0.00    +0.000 F 
ATOM     11  F   UNL     1       7.309   5.721  19.649  0.00  0.00    +0.000 F 
ENDBRANCH   7   8
BRANCH   1  13
ATOM     12  C   UNL     1       5.828   4.841  14.904  0.00  0.00    +0.000 C 
ATOM     13  C   UNL     1       5.757   3.970  15.923  0.00  0.00    +0.000 C 
BRANCH  12  15
ATOM     14  O   UNL     1       7.539   5.197  13.271  0.00  0.00    +0.000 OA
ATOM     15  C   UNL     1       6.628   4.498  13.703  0.00  0.00    +0.000 C 
ATOM     16  N   UNL     1       6.254   3.319  13.119  0.00  0.00    +0.000 N 
ATOM     17  H   UNL     1       5.491   2.723  13.414  0.00  0.00    +0.000 HD
BRANCH  16  18
ATOM     18  O   UNL     1       6.955   2.933  11.955  0.00  0.00    +0.000 OA
ATOM     19  H   UNL     1       7.426   3.760  11.709  0.00  0.00    +0.000 HD
ENDBRANCH  16  18
ENDBRANCH  12  15
ENDBRANCH   1  13
TORSDOF 4
ENDMDL
MODEL 3
REMARK VINA RESULT:      -7.1      1.801      2.264
REMARK  Name = 
REMARK  4 active torsions:
REMARK  status: ('A' for Active; 'I' for Inactive)
REMARK    1  A    between atoms: C_2  and  C_3
REMARK    2  A    between atoms: C_4  and  C_5
REMARK    3  A    between atoms: C_11  and  C_12
REMARK    4  A    between atoms: N_16  and  O_17
REMARK                            x       y       z     vdW  Elec       q    Type
REMARK                         _______ _______ _______ _____ _____    ______ ____
ROOT
ATOM      1  C   UNL     1       3.652   3.779  17.643  0.00  0.00    +0.000 A 
ATOM      2  C   UNL     1       3.357   2.428  17.897  0.00  0.00    +0.000 A 
ATOM      3  C   UNL     1       2.671   2.047  19.053  0.00  0.00    +0.000 A 
ATOM      4  C   UNL     1       2.274   3.015  19.967  0.00  0.00    +0.000 A 
ATOM      5 CL   UNL     1       1.437   2.556  21.396  0.00  0.00    +0.000 Cl
ATOM      6  C   UNL     1       2.554   4.359  19.729  0.00  0.00    +0.000 A 
ATOM      7  C   UNL     1       3.243   4.763  18.564  0.00  0.00    +0.000 A 
ENDROOT
BRANCH   7   8
ATOM      8  C   UNL     1       3.491   6.246  18.395  0.00  0.00    +0.000 C 
ATOM      9  F   UNL     1       2.932   6.821  17.297  0.00  0.00    +0.000 F 
ATOM     10  F   UNL     1       3.015   6.957  19.458  0.00  0.00    +0.000 F 
ATOM     11  F   UNL     1       4.821   6.535  18.326  0.00  0.00    +0.000 F 
ENDBRANCH   7   8
BRANCH   1  13
ATOM     12  C   UNL     1       5.728   4.008  16.351  0.00  0.00    +0.000 C 
ATOM     13  C   UNL     1       4.390   4.083  16.415  0.00  0.00    +0.000 C 
BRANCH  12  15
ATOM     14  O   UNL     1       6.163   3.757  14.011  0.00  0.00    +0.000 OA
ATOM     15  C   UNL     1       6.418   4.315  15.074  0.00  0.00    +0.000 C 
ATOM     16  N   UNL     1       7.370   5.291  15.192  0.00  0.00    +0.000 N 
ATOM     17  H   UNL     1       7.642   5.758  16.048  0.00  0.00    +0.000 HD
BRANCH  16  18
ATOM     18  O   UNL     1       8.089   5.626  14.024  0.00  0.00    +0.000 OA
ATOM     19  H   UNL     1       7.784   6.544  13.847  0.00  0.00    +0.000 HD
ENDBRANCH  16  18
ENDBRANCH  12  15
ENDBRANCH   1  13
TORSDOF 4
ENDMDL
MODEL 4
REMARK VINA RESULT:      -7.1      1.638      2.021
REMARK  Name = 
REMARK  4 active torsions:
REMARK  status: ('A' for Active; 'I' for Inactive)
REMARK    1  A    between atoms: C_2  and  C_3
REMARK    2  A    between atoms: C_4  and  C_5
REMARK    3  A    between atoms: C_11  and  C_12
REMARK    4  A    between atoms: N_16  and  O_17
REMARK                            x       y       z     vdW  Elec       q    Type
REMARK                         _______ _______ _______ _____ _____    ______ ____
ROOT
ATOM      1  C   UNL     1       4.337   4.186  17.109  0.00  0.00    +0.000 A 
ATOM      2  C   UNL     1       3.821   2.912  17.400  0.00  0.00    +0.000 A 
ATOM      3  C   UNL     1       2.745   2.754  18.277  0.00  0.00    +0.000 A 
ATOM      4  C   UNL     1       2.176   3.873  18.873  0.00  0.00    +0.000 A 
ATOM      5 CL   UNL     1       0.857   3.690  19.960  0.00  0.00    +0.000 Cl
ATOM      6  C   UNL     1       2.672   5.145  18.592  0.00  0.00    +0.000 A 
ATOM      7  C   UNL     1       3.757   5.323  17.705  0.00  0.00    +0.000 A 
ENDROOT
BRANCH   7   8
ATOM      8  C   UNL     1       4.216   6.743  17.462  0.00  0.00    +0.000 C 
ATOM      9  F   UNL     1       4.179   7.166  16.171  0.00  0.00    +0.000 F 
ATOM     10  F   UNL     1       3.459   7.639  18.160  0.00  0.00    +0.000 F 
ATOM     11  F   UNL     1       5.498   6.943  17.879  0.00  0.00    +0.000 F 
ENDBRANCH   7   8
BRANCH   1  13
ATOM     12  C   UNL     1       5.320   4.419  14.870  0.00  0.00    +0.000 C 
ATOM     13  C   UNL     1       5.478   4.253  16.192  0.00  0.00    +0.000 C 
BRANCH  12  15
ATOM     14  O   UNL     1       6.701   3.750  13.034  0.00  0.00    +0.000 OA
ATOM     15  C   UNL     1       6.515   4.492  13.994  0.00  0.00    +0.000 C 
ATOM     16  N   UNL     1       7.396   5.474  14.357  0.00  0.00    +0.000 N 
ATOM     17  H   UNL     1       7.307   6.089  15.156  0.00  0.00    +0.000 HD
BRANCH  16  18
ATOM     18  O   UNL     1       8.572   5.594  13.583  0.00  0.00    +0.000 OA
ATOM     19  H   UNL     1       9.254   5.778  14.267  0.00  0.00    +0.000 HD
ENDBRANCH  16  18
ENDBRANCH  12  15
ENDBRANCH   1  13
TORSDOF 4
ENDMDL
MODEL 5
REMARK VINA RESULT:      -7.0      0.581      1.065
REMARK  Name = 
REMARK  4 active torsions:
REMARK  status: ('A' for Active; 'I' for Inactive)
REMARK    1  A    between atoms: C_2  and  C_3
REMARK    2  A    between atoms: C_4  and  C_5
REMARK    3  A    between atoms: C_11  and  C_12
REMARK    4  A    between atoms: N_16  and  O_17
REMARK                            x       y       z     vdW  Elec       q    Type
REMARK                         _______ _______ _______ _____ _____    ______ ____
ROOT
ATOM      1  C   UNL     1       5.307   4.533  17.070  0.00  0.00    +0.000 A 
ATOM      2  C   UNL     1       4.041   3.949  16.893  0.00  0.00    +0.000 A 
ATOM      3  C   UNL     1       3.244   3.612  17.990  0.00  0.00    +0.000 A 
ATOM      4  C   UNL     1       3.708   3.858  19.276  0.00  0.00    +0.000 A 
ATOM      5 CL   UNL     1       2.739   3.441  20.633  0.00  0.00    +0.000 Cl
ATOM      6  C   UNL     1       4.958   4.442  19.470  0.00  0.00    +0.000 A 
ATOM      7  C   UNL     1       5.775   4.792  18.373  0.00  0.00    +0.000 A 
ENDROOT
BRANCH   7   8
ATOM      8  C   UNL     1       7.111   5.426  18.689  0.00  0.00    +0.000 C 
ATOM      9  F   UNL     1       7.330   6.653  18.146  0.00  0.00    +0.000 F 
ATOM     10  F   UNL     1       7.282   5.588  20.034  0.00  0.00    +0.000 F 
ATOM     11  F   UNL     1       8.154   4.650  18.279  0.00  0.00    +0.000 F 
ENDBRANCH   7   8
BRANCH   1  13
ATOM     12  C   UNL     1       6.009   4.071  14.762  0.00  0.00    +0.000 C 
ATOM     13  C   UNL     1       6.079   4.835  15.862  0.00  0.00    +0.000 C 
BRANCH  12  15
ATOM     14  O   UNL     1       6.710   3.863  12.484  0.00  0.00    +0.000 OA
ATOM     15  C   UNL     1       6.806   4.436  13.565  0.00  0.00    +0.000 C 
ATOM     16  N   UNL     1       7.661   5.482  13.780  0.00  0.00    +0.000 N 
ATOM     17  H   UNL     1       7.803   5.966  14.658  0.00  0.00    +0.000 HD
BRANCH  16  18
ATOM     18  O   UNL     1       8.472   5.876  12.693  0.00  0.00    +0.000 OA
ATOM     19  H   UNL     1       8.028   6.698  12.387  0.00  0.00    +0.000 HD
ENDBRANCH  16  18
ENDBRANCH  12  15
ENDBRANCH   1  13
TORSDOF 4
ENDMDL
MODEL 6
REMARK VINA RESULT:      -6.8      1.796      2.284
REMARK  Name = 
REMARK  4 active torsions:
REMARK  status: ('A' for Active; 'I' for Inactive)
REMARK    1  A    between atoms: C_2  and  C_3
REMARK    2  A    between atoms: C_4  and  C_5
REMARK    3  A    between atoms: C_11  and  C_12
REMARK    4  A    between atoms: N_16  and  O_17
REMARK                            x       y       z     vdW  Elec       q    Type
REMARK                         _______ _______ _______ _____ _____    ______ ____
ROOT
ATOM      1  C   UNL     1       3.862   3.715  17.516  0.00  0.00    +0.000 A 
ATOM      2  C   UNL     1       3.546   2.363  17.732  0.00  0.00    +0.000 A 
ATOM      3  C   UNL     1       2.860   1.960  18.880  0.00  0.00    +0.000 A 
ATOM      4  C   UNL     1       2.485   2.908  19.825  0.00  0.00    +0.000 A 
ATOM      5 CL   UNL     1       1.648   2.421  21.245  0.00  0.00    +0.000 Cl
ATOM      6  C   UNL     1       2.786   4.253  19.624  0.00  0.00    +0.000 A 
ATOM      7  C   UNL     1       3.475   4.679  18.467  0.00  0.00    +0.000 A 
ENDROOT
BRANCH   7   8
ATOM      8  C   UNL     1       3.748   6.161  18.340  0.00  0.00    +0.000 C 
ATOM      9  F   UNL     1       3.297   6.753  17.202  0.00  0.00    +0.000 F 
ATOM     10  F   UNL     1       3.180   6.864  19.363  0.00  0.00    +0.000 F 
ATOM     11  F   UNL     1       5.081   6.441  18.399  0.00  0.00    +0.000 F 
ENDBRANCH   7   8
BRANCH   1  13
ATOM     12  C   UNL     1       5.940   4.046  16.247  0.00  0.00    +0.000 C 
ATOM     13  C   UNL     1       4.599   4.042  16.292  0.00  0.00    +0.000 C 
BRANCH  12  15
ATOM     14  O   UNL     1       7.507   5.223  14.877  0.00  0.00    +0.000 OA
ATOM     15  C   UNL     1       6.628   4.373  14.975  0.00  0.00    +0.000 C 
ATOM     16  N   UNL     1       6.191   3.628  13.913  0.00  0.00    +0.000 N 
ATOM     17  H   UNL     1       5.449   2.940  13.933  0.00  0.00    +0.000 HD
BRANCH  16  18
ATOM     18  O   UNL     1       6.784   3.895  12.659  0.00  0.00    +0.000 OA
ATOM     19  H   UNL     1       6.987   2.993  12.327  0.00  0.00    +0.000 HD
ENDBRANCH  16  18
ENDBRANCH  12  15
ENDBRANCH   1  13
TORSDOF 4
ENDMDL
MODEL 7
REMARK VINA RESULT:      -6.8      2.807      3.249
REMARK  Name = 
REMARK  4 active torsions:
REMARK  status: ('A' for Active; 'I' for Inactive)
REMARK    1  A    between atoms: C_2  and  C_3
REMARK    2  A    between atoms: C_4  and  C_5
REMARK    3  A    between atoms: C_11  and  C_12
REMARK    4  A    between atoms: N_16  and  O_17
REMARK                            x       y       z     vdW  Elec       q    Type
REMARK                         _______ _______ _______ _____ _____    ______ ____
ROOT
ATOM      1  C   UNL     1       3.967   5.650  17.725  0.00  0.00    +0.000 A 
ATOM      2  C   UNL     1       3.614   6.996  17.523  0.00  0.00    +0.000 A 
ATOM      3  C   UNL     1       2.815   7.676  18.444  0.00  0.00    +0.000 A 
ATOM      4  C   UNL     1       2.360   7.015  19.578  0.00  0.00    +0.000 A 
ATOM      5 CL   UNL     1       1.369   7.840  20.714  0.00  0.00    +0.000 Cl
ATOM      6  C   UNL     1       2.704   5.682  19.797  0.00  0.00    +0.000 A 
ATOM      7  C   UNL     1       3.515   4.980  18.878  0.00  0.00    +0.000 A 
ENDROOT
BRANCH   7   8
ATOM      8  C   UNL     1       3.838   3.541  19.211  0.00  0.00    +0.000 C 
ATOM      9  F   UNL     1       5.157   3.243  19.345  0.00  0.00    +0.000 F 
ATOM     10  F   UNL     1       3.258   3.157  20.386  0.00  0.00    +0.000 F 
ATOM     11  F   UNL     1       3.359   2.680  18.269  0.00  0.00    +0.000 F 
ENDBRANCH   7   8
BRANCH   1  13
ATOM     12  C   UNL     1       5.551   5.726  15.849  0.00  0.00    +0.000 C 
ATOM     13  C   UNL     1       4.794   5.013  16.697  0.00  0.00    +0.000 C 
BRANCH  12  15
ATOM     14  O   UNL     1       7.556   5.285  14.621  0.00  0.00    +0.000 OA
ATOM     15  C   UNL     1       6.377   5.023  14.837  0.00  0.00    +0.000 C 
ATOM     16  N   UNL     1       5.696   4.045  14.164  0.00  0.00    +0.000 N 
ATOM     17  H   UNL     1       4.718   3.812  14.279  0.00  0.00    +0.000 HD
BRANCH  16  18
ATOM     18  O   UNL     1       6.408   3.343  13.167  0.00  0.00    +0.000 OA
ATOM     19  H   UNL     1       6.939   4.056  12.747  0.00  0.00    +0.000 HD
ENDBRANCH  16  18
ENDBRANCH  12  15
ENDBRANCH   1  13
TORSDOF 4
ENDMDL
MODEL 8
REMARK VINA RESULT:      -6.8      1.862      2.289
REMARK  Name = 
REMARK  4 active torsions:
REMARK  status: ('A' for Active; 'I' for Inactive)
REMARK    1  A    between atoms: C_2  and  C_3
REMARK    2  A    between atoms: C_4  and  C_5
REMARK    3  A    between atoms: C_11  and  C_12
REMARK    4  A    between atoms: N_16  and  O_17
REMARK                            x       y       z     vdW  Elec       q    Type
REMARK                         _______ _______ _______ _____ _____    ______ ____
ROOT
ATOM      1  C   UNL     1       4.342   4.255  17.020  0.00  0.00    +0.000 A 
ATOM      2  C   UNL     1       3.742   3.056  17.442  0.00  0.00    +0.000 A 
ATOM      3  C   UNL     1       2.722   3.058  18.396  0.00  0.00    +0.000 A 
ATOM      4  C   UNL     1       2.291   4.264  18.937  0.00  0.00    +0.000 A 
ATOM      5 CL   UNL     1       1.041   4.277  20.117  0.00  0.00    +0.000 Cl
ATOM      6  C   UNL     1       2.870   5.462  18.526  0.00  0.00    +0.000 A 
ATOM      7  C   UNL     1       3.900   5.479  17.560  0.00  0.00    +0.000 A 
ENDROOT
BRANCH   7   8
ATOM      8  C   UNL     1       4.457   6.831  17.177  0.00  0.00    +0.000 C 
ATOM      9  F   UNL     1       4.500   7.101  15.845  0.00  0.00    +0.000 F 
ATOM     10  F   UNL     1       3.731   7.846  17.729  0.00  0.00    +0.000 F 
ATOM     11  F   UNL     1       5.731   7.005  17.630  0.00  0.00    +0.000 F 
ENDBRANCH   7   8
BRANCH   1  13
ATOM     12  C   UNL     1       5.174   4.176  14.710  0.00  0.00    +0.000 C 
ATOM     13  C   UNL     1       5.416   4.154  16.030  0.00  0.00    +0.000 C 
BRANCH  12  15
ATOM     14  O   UNL     1       7.278   4.830  13.779  0.00  0.00    +0.000 OA
ATOM     15  C   UNL     1       6.306   4.082  13.756  0.00  0.00    +0.000 C 
ATOM     16  N   UNL     1       6.165   3.072  12.844  0.00  0.00    +0.000 N 
ATOM     17  H   UNL     1       5.371   2.450  12.760  0.00  0.00    +0.000 HD
BRANCH  16  18
ATOM     18  O   UNL     1       7.193   2.931  11.885  0.00  0.00    +0.000 OA
ATOM     19  H   UNL     1       7.707   3.760  12.005  0.00  0.00    +0.000 HD
ENDBRANCH  16  18
ENDBRANCH  12  15
ENDBRANCH   1  13
TORSDOF 4
ENDMDL
MODEL 9
REMARK VINA RESULT:      -6.7      5.695      6.382
REMARK  Name = 
REMARK  4 active torsions:
REMARK  status: ('A' for Active; 'I' for Inactive)
REMARK    1  A    between atoms: C_2  and  C_3
REMARK    2  A    between atoms: C_4  and  C_5
REMARK    3  A    between atoms: C_11  and  C_12
REMARK    4  A    between atoms: N_16  and  O_17
REMARK                            x       y       z     vdW  Elec       q    Type
REMARK                         _______ _______ _______ _____ _____    ______ ____
ROOT
ATOM      1  C   UNL     1       3.575   6.353  17.632  0.00  0.00    +0.000 A 
ATOM      2  C   UNL     1       4.769   6.899  17.130  0.00  0.00    +0.000 A 
ATOM      3  C   UNL     1       5.708   6.098  16.478  0.00  0.00    +0.000 A 
ATOM      4  C   UNL     1       5.461   4.739  16.323  0.00  0.00    +0.000 A 
ATOM      5 CL   UNL     1       6.615   3.741  15.529  0.00  0.00    +0.000 Cl
ATOM      6  C   UNL     1       4.281   4.182  16.810  0.00  0.00    +0.000 A 
ATOM      7  C   UNL     1       3.318   4.978  17.468  0.00  0.00    +0.000 A 
ENDROOT
BRANCH   7   8
ATOM      8  C   UNL     1       2.068   4.279  17.954  0.00  0.00    +0.000 C 
ATOM      9  F   UNL     1       1.763   4.452  19.267  0.00  0.00    +0.000 F 
ATOM     10  F   UNL     1       0.964   4.696  17.267  0.00  0.00    +0.000 F 
ATOM     11  F   UNL     1       2.131   2.931  17.763  0.00  0.00    +0.000 F 
ENDBRANCH   7   8
BRANCH   1  13
ATOM     12  C   UNL     1       2.326   8.461  17.804  0.00  0.00    +0.000 C 
ATOM     13  C   UNL     1       2.657   7.267  18.318  0.00  0.00    +0.000 C 
BRANCH  12  15
ATOM     14  O   UNL     1       1.152   9.234  19.740  0.00  0.00    +0.000 OA
ATOM     15  C   UNL     1       1.381   9.337  18.539  0.00  0.00    +0.000 C 
ATOM     16  N   UNL     1       0.787  10.282  17.747  0.00  0.00    +0.000 N 
ATOM     17  H   UNL     1       0.915  10.388  16.748  0.00  0.00    +0.000 HD
BRANCH  16  18
ATOM     18  O   UNL     1      -0.144  11.143  18.368  0.00  0.00    +0.000 OA
ATOM     19  H   UNL     1       0.435  11.711  18.924  0.00  0.00    +0.000 HD
ENDBRANCH  16  18
ENDBRANCH  12  15
ENDBRANCH   1  13
TORSDOF 4
ENDMDL
