MODEL 1
REMARK VINA RESULT:      -7.6      0.000      0.000
REMARK  Name = 
REMARK  14 active torsions:
REMARK  status: ('A' for Active; 'I' for Inactive)
REMARK    1  A    between atoms: C_1  and  C_2
REMARK    2  A    between atoms: C_2  and  C_3
REMARK    3  A    between atoms: C_2  and  C_22
REMARK    4  A    between atoms: C_3  and  C_4
REMARK    5  A    between atoms: C_7  and  C_8
REMARK    6  A    between atoms: C_8  and  O_10
REMARK    7  A    between atoms: O_10  and  C_11
REMARK    8  A    between atoms: C_14  and  C_15
REMARK    9  A    between atoms: N_24  and  CA_25
REMARK   10  A    between atoms: CA_25  and  CB_26
REMARK   11  A    between atoms: CA_25  and  C_30
REMARK   12  A    between atoms: CB_26  and  CG_27
REMARK   13  A    between atoms: CG_27  and  OD2_29
REMARK   14  A    between atoms: C_30  and  OXT_32
REMARK                            x       y       z     vdW  Elec       q    Type
REMARK                         _______ _______ _______ _____ _____    ______ ____
ROOT
ATOM      1  C   UNK A   0       2.325   5.996  19.395  0.00  0.00    +0.000 A 
ATOM      2  C   UNK A   0       2.684   6.756  18.301  0.00  0.00    +0.000 A 
ATOM      3  C   UNK A   0       2.249   8.104  18.421  0.00  0.00    +0.000 A 
ATOM      4  C   UNK A   0       1.607   8.348  19.622  0.00  0.00    +0.000 A 
ATOM      5  S   UNK A   0       1.577   6.952  20.601  0.00  0.00    +0.000 S 
ENDROOT
BRANCH   4   6
ATOM      6  C   UNK A   0       1.069   9.591  20.137  0.00  0.00    +0.000 C 
ATOM      7  O   UNK A   0       0.760   9.844  21.298  0.00  0.00    +0.000 OA
BRANCH   6   8
ATOM      8  O   UNK A   0       1.056  10.527  19.111  0.00  0.00    +0.000 OA
BRANCH   8   9
ATOM      9  C   UNK A   0      -0.229  10.875  18.667  0.00  0.00    +0.000 A 
ATOM     10  C   UNK A   0      -0.931  10.024  17.806  0.00  0.00    +0.000 A 
ATOM     11  C   UNK A   0      -2.252  10.310  17.478  0.00  0.00    +0.000 A 
ATOM     12  C   UNK A   0      -2.883  11.429  18.030  0.00  0.00    +0.000 A 
ATOM     13  C   UNK A   0      -2.184  12.277  18.899  0.00  0.00    +0.000 A 
ATOM     14  C   UNK A   0      -0.855  11.996  19.219  0.00  0.00    +0.000 A 
ATOM     15 CL   UNK A   0      -0.025  13.040  20.314  0.00  0.00    +0.000 Cl
BRANCH  12  16
ATOM     16  C   UNK A   0      -4.301  11.696  17.677  0.00  0.00    +0.000 C 
ATOM     17  N   UNK A   0      -5.059  12.489  18.363  0.00  0.00    +0.000 NA
ATOM     18  N   UNK A   0      -4.860  11.090  16.592  0.00  0.00    +0.000 N 
ATOM     19  H   UNK A   0      -4.580  12.861  19.186  0.00  0.00    +0.000 HD
ATOM     20  H   UNK A   0      -4.260  10.975  15.783  0.00  0.00    +0.000 HD
ATOM     21  H   UNK A   0      -5.752  11.515  16.358  0.00  0.00    +0.000 HD
ENDBRANCH  12  16
ENDBRANCH   8   9
ENDBRANCH   6   8
ENDBRANCH   4   6
BRANCH   1  22
ATOM     22  C   UNK A   0       2.520   4.521  19.597  0.00  0.00    +0.000 C 
BRANCH  22  24
ATOM     23  C   UNK A   0       2.693   2.450  18.127  0.00  0.00    +0.000 C 
ATOM     24  C   UNK A   0       3.267   3.838  18.436  0.00  0.00    +0.000 C 
BRANCH  24  25
ATOM     25  C   UNK A   0       4.779   3.754  18.647  0.00  0.00    +0.000 C 
ATOM     26  O   UNK A   0       5.299   3.145  19.577  0.00  0.00    +0.000 OA
ATOM     27  N   ASP A   1       5.537   4.353  17.671  0.00  0.00    +0.000 N 
ATOM     28  H   ASP A   1       5.104   4.918  16.946  0.00  0.00    +0.000 HD
BRANCH  27  29
ATOM     29  CA  ASP A   1       6.998   4.447  17.777  0.00  0.00    +0.000 C 
BRANCH  29  30
ATOM     30  C   ASP A   1       7.289   5.679  18.641  0.00  0.00    +0.000 C 
ATOM     31  O   ASP A   1       7.457   6.797  18.163  0.00  0.00    +0.000 OA
BRANCH  30  32
ATOM     32  OXT ASP A   1       7.357   5.447  19.968  0.00  0.00    +0.000 OA
ATOM     33  HXT ASP A   1       7.537   4.505  20.208  0.00  0.00    +0.000 HD
ENDBRANCH  30  32
ENDBRANCH  29  30
BRANCH  29  34
ATOM     34  CB  ASP A   1       7.605   4.588  16.386  0.00  0.00    +0.000 C 
BRANCH  34  35
ATOM     35  CG  ASP A   1       6.525   4.713  15.351  0.00  0.00    +0.000 C 
ATOM     36  OD1 ASP A   1       5.960   5.763  15.077  0.00  0.00    +0.000 OA
BRANCH  35  37
ATOM     37  OD2 ASP A   1       6.227   3.541  14.753  0.00  0.00    +0.000 OA
ATOM     38  HD2 ASP A   1       6.127   2.786  15.365  0.00  0.00    +0.000 HD
ENDBRANCH  35  37
ENDBRANCH  34  35
ENDBRANCH  29  34
ENDBRANCH  27  29
ENDBRANCH  24  25
ENDBRANCH  22  24
ENDBRANCH   1  22
TORSDOF 13
ENDMDL
MODEL 2
REMARK VINA RESULT:      -7.4      1.452      1.824
REMARK  Name = 
REMARK  14 active torsions:
REMARK  status: ('A' for Active; 'I' for Inactive)
REMARK    1  A    between atoms: C_1  and  C_2
REMARK    2  A    between atoms: C_2  and  C_3
REMARK    3  A    between atoms: C_2  and  C_22
REMARK    4  A    between atoms: C_3  and  C_4
REMARK    5  A    between atoms: C_7  and  C_8
REMARK    6  A    between atoms: C_8  and  O_10
REMARK    7  A    between atoms: O_10  and  C_11
REMARK    8  A    between atoms: C_14  and  C_15
REMARK    9  A    between atoms: N_24  and  CA_25
REMARK   10  A    between atoms: CA_25  and  CB_26
REMARK   11  A    between atoms: CA_25  and  C_30
REMARK   12  A    between atoms: CB_26  and  CG_27
REMARK   13  A    between atoms: CG_27  and  OD2_29
REMARK   14  A    between atoms: C_30  and  OXT_32
REMARK                            x       y       z     vdW  Elec       q    Type
REMARK                         _______ _______ _______ _____ _____    ______ ____
ROOT
ATOM      1  C   UNK A   0       2.292   7.422  19.136  0.00  0.00    +0.000 A 
ATOM      2  C   UNK A   0       2.479   7.933  17.868  0.00  0.00    +0.000 A 
ATOM      3  C   UNK A   0       1.891   9.218  17.718  0.00  0.00    +0.000 A 
ATOM      4  C   UNK A   0       1.307   9.673  18.887  0.00  0.00    +0.000 A 
ATOM      5  S   UNK A   0       1.516   8.554  20.158  0.00  0.00    +0.000 S 
ENDROOT
BRANCH   4   6
ATOM      6  C   UNK A   0       0.657  10.941  19.154  0.00  0.00    +0.000 C 
ATOM      7  O   UNK A   0       0.969  12.044  18.715  0.00  0.00    +0.000 OA
BRANCH   6   8
ATOM      8  O   UNK A   0      -0.477  10.704  19.919  0.00  0.00    +0.000 OA
BRANCH   8   9
ATOM      9  C   UNK A   0      -1.679  11.073  19.296  0.00  0.00    +0.000 A 
ATOM     10  C   UNK A   0      -2.189  10.306  18.243  0.00  0.00    +0.000 A 
ATOM     11  C   UNK A   0      -3.444  10.599  17.721  0.00  0.00    +0.000 A 
ATOM     12  C   UNK A   0      -4.203  11.639  18.266  0.00  0.00    +0.000 A 
ATOM     13  C   UNK A   0      -3.697  12.402  19.327  0.00  0.00    +0.000 A 
ATOM     14  C   UNK A   0      -2.433  12.114  19.844  0.00  0.00    +0.000 A 
ATOM     15 CL   UNK A   0      -1.844  13.050  21.168  0.00  0.00    +0.000 Cl
BRANCH  12  16
ATOM     16  C   UNK A   0      -5.549  11.914  17.701  0.00  0.00    +0.000 C 
ATOM     17  N   UNK A   0      -5.806  12.948  16.967  0.00  0.00    +0.000 NA
ATOM     18  N   UNK A   0      -6.583  11.061  17.951  0.00  0.00    +0.000 N 
ATOM     19  H   UNK A   0      -4.993  13.561  16.870  0.00  0.00    +0.000 HD
ATOM     20  H   UNK A   0      -6.353  10.074  17.980  0.00  0.00    +0.000 HD
ATOM     21  H   UNK A   0      -7.373  11.260  17.345  0.00  0.00    +0.000 HD
ENDBRANCH  12  16
ENDBRANCH   8   9
ENDBRANCH   6   8
ENDBRANCH   4   6
BRANCH   1  22
ATOM     22  C   UNK A   0       2.680   6.065  19.650  0.00  0.00    +0.000 C 
BRANCH  22  24
ATOM     23  C   UNK A   0       1.236   3.969  19.658  0.00  0.00    +0.000 C 
ATOM     24  C   UNK A   0       2.106   4.907  18.813  0.00  0.00    +0.000 C 
BRANCH  24  25
ATOM     25  C   UNK A   0       3.172   4.110  18.060  0.00  0.00    +0.000 C 
ATOM     26  O   UNK A   0       2.948   3.041  17.499  0.00  0.00    +0.000 OA
ATOM     27  N   ASP A   1       4.404   4.713  17.986  0.00  0.00    +0.000 N 
ATOM     28  H   ASP A   1       4.605   5.559  18.512  0.00  0.00    +0.000 HD
BRANCH  27  29
ATOM     29  CA  ASP A   1       5.559   4.037  17.384  0.00  0.00    +0.000 C 
BRANCH  29  30
ATOM     30  C   ASP A   1       6.805   4.679  18.005  0.00  0.00    +0.000 C 
ATOM     31  O   ASP A   1       6.756   5.711  18.668  0.00  0.00    +0.000 OA
BRANCH  30  32
ATOM     32  OXT ASP A   1       7.965   4.034  17.763  0.00  0.00    +0.000 OA
ATOM     33  HXT ASP A   1       8.094   3.768  16.820  0.00  0.00    +0.000 HD
ENDBRANCH  30  32
ENDBRANCH  29  30
BRANCH  29  34
ATOM     34  CB  ASP A   1       5.533   4.223  15.872  0.00  0.00    +0.000 C 
BRANCH  34  35
ATOM     35  CG  ASP A   1       6.045   5.584  15.500  0.00  0.00    +0.000 C 
ATOM     36  OD1 ASP A   1       5.370   6.603  15.543  0.00  0.00    +0.000 OA
BRANCH  35  37
ATOM     37  OD2 ASP A   1       7.332   5.573  15.098  0.00  0.00    +0.000 OA
ATOM     38  HD2 ASP A   1       7.882   6.291  15.471  0.00  0.00    +0.000 HD
ENDBRANCH  35  37
ENDBRANCH  34  35
ENDBRANCH  29  34
ENDBRANCH  27  29
ENDBRANCH  24  25
ENDBRANCH  22  24
ENDBRANCH   1  22
TORSDOF 13
ENDMDL
MODEL 3
REMARK VINA RESULT:      -7.4      2.718      3.346
REMARK  Name = 
REMARK  14 active torsions:
REMARK  status: ('A' for Active; 'I' for Inactive)
REMARK    1  A    between atoms: C_1  and  C_2
REMARK    2  A    between atoms: C_2  and  C_3
REMARK    3  A    between atoms: C_2  and  C_22
REMARK    4  A    between atoms: C_3  and  C_4
REMARK    5  A    between atoms: C_7  and  C_8
REMARK    6  A    between atoms: C_8  and  O_10
REMARK    7  A    between atoms: O_10  and  C_11
REMARK    8  A    between atoms: C_14  and  C_15
REMARK    9  A    between atoms: N_24  and  CA_25
REMARK   10  A    between atoms: CA_25  and  CB_26
REMARK   11  A    between atoms: CA_25  and  C_30
REMARK   12  A    between atoms: CB_26  and  CG_27
REMARK   13  A    between atoms: CG_27  and  OD2_29
REMARK   14  A    between atoms: C_30  and  OXT_32
REMARK                            x       y       z     vdW  Elec       q    Type
REMARK                         _______ _______ _______ _____ _____    ______ ____
ROOT
ATOM      1  C   UNK A   0       2.331   7.471  19.100  0.00  0.00    +0.000 A 
ATOM      2  C   UNK A   0       2.425   8.185  17.924  0.00  0.00    +0.000 A 
ATOM      3  C   UNK A   0       1.763   9.441  18.007  0.00  0.00    +0.000 A 
ATOM      4  C   UNK A   0       1.220   9.671  19.259  0.00  0.00    +0.000 A 
ATOM      5  S   UNK A   0       1.553   8.380  20.324  0.00  0.00    +0.000 S 
ENDROOT
BRANCH   4   6
ATOM      6  C   UNK A   0       0.520  10.839  19.754  0.00  0.00    +0.000 C 
ATOM      7  O   UNK A   0       0.879  12.010  19.675  0.00  0.00    +0.000 OA
BRANCH   6   8
ATOM      8  O   UNK A   0      -0.713  10.439  20.252  0.00  0.00    +0.000 OA
BRANCH   8   9
ATOM      9  C   UNK A   0      -1.313  11.367  21.117  0.00  0.00    +0.000 A 
ATOM     10  C   UNK A   0      -2.137  12.375  20.604  0.00  0.00    +0.000 A 
ATOM     11  C   UNK A   0      -2.834  13.206  21.475  0.00  0.00    +0.000 A 
ATOM     12  C   UNK A   0      -2.732  13.015  22.856  0.00  0.00    +0.000 A 
ATOM     13  C   UNK A   0      -1.914  12.001  23.370  0.00  0.00    +0.000 A 
ATOM     14  C   UNK A   0      -1.207  11.173  22.497  0.00  0.00    +0.000 A 
ATOM     15 CL   UNK A   0      -0.229   9.913  23.154  0.00  0.00    +0.000 Cl
BRANCH  12  16
ATOM     16  C   UNK A   0      -3.505  13.906  23.759  0.00  0.00    +0.000 C 
ATOM     17  N   UNK A   0      -3.260  15.171  23.878  0.00  0.00    +0.000 NA
ATOM     18  N   UNK A   0      -4.520  13.398  24.514  0.00  0.00    +0.000 N 
ATOM     19  H   UNK A   0      -2.455  15.460  23.319  0.00  0.00    +0.000 HD
ATOM     20  H   UNK A   0      -5.085  12.678  24.079  0.00  0.00    +0.000 HD
ATOM     21  H   UNK A   0      -5.080  14.143  24.918  0.00  0.00    +0.000 HD
ENDBRANCH  12  16
ENDBRANCH   8   9
ENDBRANCH   6   8
ENDBRANCH   4   6
BRANCH   1  22
ATOM     22  C   UNK A   0       2.815   6.076  19.373  0.00  0.00    +0.000 C 
BRANCH  22  24
ATOM     23  C   UNK A   0       1.402   3.984  19.046  0.00  0.00    +0.000 C 
ATOM     24  C   UNK A   0       2.285   5.037  18.367  0.00  0.00    +0.000 C 
BRANCH  24  25
ATOM     25  C   UNK A   0       3.387   4.360  17.549  0.00  0.00    +0.000 C 
ATOM     26  O   UNK A   0       3.386   3.164  17.273  0.00  0.00    +0.000 OA
ATOM     27  N   ASP A   1       4.357   5.205  17.070  0.00  0.00    +0.000 N 
ATOM     28  H   ASP A   1       4.394   6.178  17.362  0.00  0.00    +0.000 HD
BRANCH  27  29
ATOM     29  CA  ASP A   1       5.534   4.701  16.353  0.00  0.00    +0.000 C 
BRANCH  29  30
ATOM     30  C   ASP A   1       6.735   4.937  17.276  0.00  0.00    +0.000 C 
ATOM     31  O   ASP A   1       7.558   5.825  17.075  0.00  0.00    +0.000 OA
BRANCH  30  32
ATOM     32  OXT ASP A   1       6.829   4.092  18.323  0.00  0.00    +0.000 OA
ATOM     33  HXT ASP A   1       6.940   4.538  19.198  0.00  0.00    +0.000 HD
ENDBRANCH  30  32
ENDBRANCH  29  30
BRANCH  29  34
ATOM     34  CB  ASP A   1       5.691   5.449  15.034  0.00  0.00    +0.000 C 
BRANCH  34  35
ATOM     35  CG  ASP A   1       6.657   4.734  14.135  0.00  0.00    +0.000 C 
ATOM     36  OD1 ASP A   1       6.403   3.690  13.552  0.00  0.00    +0.000 OA
BRANCH  35  37
ATOM     37  OD2 ASP A   1       7.851   5.355  14.042  0.00  0.00    +0.000 OA
ATOM     38  HD2 ASP A   1       8.441   5.000  13.347  0.00  0.00    +0.000 HD
ENDBRANCH  35  37
ENDBRANCH  34  35
ENDBRANCH  29  34
ENDBRANCH  27  29
ENDBRANCH  24  25
ENDBRANCH  22  24
ENDBRANCH   1  22
TORSDOF 13
ENDMDL
MODEL 4
REMARK VINA RESULT:      -7.3      4.051     10.758
REMARK  Name = 
REMARK  14 active torsions:
REMARK  status: ('A' for Active; 'I' for Inactive)
REMARK    1  A    between atoms: C_1  and  C_2
REMARK    2  A    between atoms: C_2  and  C_3
REMARK    3  A    between atoms: C_2  and  C_22
REMARK    4  A    between atoms: C_3  and  C_4
REMARK    5  A    between atoms: C_7  and  C_8
REMARK    6  A    between atoms: C_8  and  O_10
REMARK    7  A    between atoms: O_10  and  C_11
REMARK    8  A    between atoms: C_14  and  C_15
REMARK    9  A    between atoms: N_24  and  CA_25
REMARK   10  A    between atoms: CA_25  and  CB_26
REMARK   11  A    between atoms: CA_25  and  C_30
REMARK   12  A    between atoms: CB_26  and  CG_27
REMARK   13  A    between atoms: CG_27  and  OD2_29
REMARK   14  A    between atoms: C_30  and  OXT_32
REMARK                            x       y       z     vdW  Elec       q    Type
REMARK                         _______ _______ _______ _____ _____    ______ ____
ROOT
ATOM      1  C   UNK A   0       1.209   9.788  19.817  0.00  0.00    +0.000 A 
ATOM      2  C   UNK A   0       1.467   9.724  18.463  0.00  0.00    +0.000 A 
ATOM      3  C   UNK A   0       1.972   8.454  18.075  0.00  0.00    +0.000 A 
ATOM      4  C   UNK A   0       2.046   7.567  19.134  0.00  0.00    +0.000 A 
ATOM      5  S   UNK A   0       1.465   8.275  20.574  0.00  0.00    +0.000 S 
ENDROOT
BRANCH   4   6
ATOM      6  C   UNK A   0       2.455   6.177  19.139  0.00  0.00    +0.000 C 
ATOM      7  O   UNK A   0       1.735   5.189  19.029  0.00  0.00    +0.000 OA
BRANCH   6   8
ATOM      8  O   UNK A   0       3.842   6.124  19.179  0.00  0.00    +0.000 OA
BRANCH   8   9
ATOM      9  C   UNK A   0       4.438   5.732  17.971  0.00  0.00    +0.000 A 
ATOM     10  C   UNK A   0       4.722   6.684  16.985  0.00  0.00    +0.000 A 
ATOM     11  C   UNK A   0       5.432   6.310  15.849  0.00  0.00    +0.000 A 
ATOM     12  C   UNK A   0       5.885   4.995  15.709  0.00  0.00    +0.000 A 
ATOM     13  C   UNK A   0       5.609   4.043  16.699  0.00  0.00    +0.000 A 
ATOM     14  C   UNK A   0       4.887   4.416  17.834  0.00  0.00    +0.000 A 
ATOM     15 CL   UNK A   0       4.585   3.232  19.052  0.00  0.00    +0.000 Cl
BRANCH  12  16
ATOM     16  C   UNK A   0       6.659   4.631  14.494  0.00  0.00    +0.000 C 
ATOM     17  N   UNK A   0       7.640   5.346  14.046  0.00  0.00    +0.000 NA
ATOM     18  N   UNK A   0       6.345   3.504  13.795  0.00  0.00    +0.000 N 
ATOM     19  H   UNK A   0       7.778   6.197  14.596  0.00  0.00    +0.000 HD
ATOM     20  H   UNK A   0       6.058   2.702  14.344  0.00  0.00    +0.000 HD
ATOM     21  H   UNK A   0       7.072   3.278  13.124  0.00  0.00    +0.000 HD
ENDBRANCH  12  16
ENDBRANCH   8   9
ENDBRANCH   6   8
ENDBRANCH   4   6
BRANCH   1  22
ATOM     22  C   UNK A   0       0.760  10.978  20.615  0.00  0.00    +0.000 C 
BRANCH  22  24
ATOM     23  C   UNK A   0      -1.503  11.859  19.851  0.00  0.00    +0.000 C 
ATOM     24  C   UNK A   0      -0.758  11.000  20.879  0.00  0.00    +0.000 C 
BRANCH  24  25
ATOM     25  C   UNK A   0      -1.124  11.431  22.300  0.00  0.00    +0.000 C 
ATOM     26  O   UNK A   0      -0.537  11.030  23.301  0.00  0.00    +0.000 OA
ATOM     27  N   ASP A   1      -2.122  12.371  22.383  0.00  0.00    +0.000 N 
ATOM     28  H   ASP A   1      -2.654  12.644  21.561  0.00  0.00    +0.000 HD
BRANCH  27  29
ATOM     29  CA  ASP A   1      -2.657  12.816  23.675  0.00  0.00    +0.000 C 
BRANCH  29  30
ATOM     30  C   ASP A   1      -4.121  12.361  23.714  0.00  0.00    +0.000 C 
ATOM     31  O   ASP A   1      -4.882  12.503  22.762  0.00  0.00    +0.000 OA
BRANCH  30  32
ATOM     32  OXT ASP A   1      -4.517  11.800  24.875  0.00  0.00    +0.000 OA
ATOM     33  HXT ASP A   1      -5.337  11.253  24.804  0.00  0.00    +0.000 HD
ENDBRANCH  30  32
ENDBRANCH  29  30
BRANCH  29  34
ATOM     34  CB  ASP A   1      -2.544  14.332  23.783  0.00  0.00    +0.000 C 
BRANCH  34  35
ATOM     35  CG  ASP A   1      -1.112  14.739  23.979  0.00  0.00    +0.000 C 
ATOM     36  OD1 ASP A   1      -0.265  14.705  23.097  0.00  0.00    +0.000 OA
BRANCH  35  37
ATOM     37  OD2 ASP A   1      -0.844  15.141  25.239  0.00  0.00    +0.000 OA
ATOM     38  HD2 ASP A   1      -0.019  15.657  25.335  0.00  0.00    +0.000 HD
ENDBRANCH  35  37
ENDBRANCH  34  35
ENDBRANCH  29  34
ENDBRANCH  27  29
ENDBRANCH  24  25
ENDBRANCH  22  24
ENDBRANCH   1  22
TORSDOF 13
ENDMDL
MODEL 5
REMARK VINA RESULT:      -7.3      3.240      3.803
REMARK  Name = 
REMARK  14 active torsions:
REMARK  status: ('A' for Active; 'I' for Inactive)
REMARK    1  A    between atoms: C_1  and  C_2
REMARK    2  A    between atoms: C_2  and  C_3
REMARK    3  A    between atoms: C_2  and  C_22
REMARK    4  A    between atoms: C_3  and  C_4
REMARK    5  A    between atoms: C_7  and  C_8
REMARK    6  A    between atoms: C_8  and  O_10
REMARK    7  A    between atoms: O_10  and  C_11
REMARK    8  A    between atoms: C_14  and  C_15
REMARK    9  A    between atoms: N_24  and  CA_25
REMARK   10  A    between atoms: CA_25  and  CB_26
REMARK   11  A    between atoms: CA_25  and  C_30
REMARK   12  A    between atoms: CB_26  and  CG_27
REMARK   13  A    between atoms: CG_27  and  OD2_29
REMARK   14  A    between atoms: C_30  and  OXT_32
REMARK                            x       y       z     vdW  Elec       q    Type
REMARK                         _______ _______ _______ _____ _____    ______ ____
ROOT
ATOM      1  C   UNK A   0       2.239   7.349  19.225  0.00  0.00    +0.000 A 
ATOM      2  C   UNK A   0       2.308   8.036  18.030  0.00  0.00    +0.000 A 
ATOM      3  C   UNK A   0       1.734   9.333  18.126  0.00  0.00    +0.000 A 
ATOM      4  C   UNK A   0       1.282   9.619  19.402  0.00  0.00    +0.000 A 
ATOM      5  S   UNK A   0       1.595   8.328  20.472  0.00  0.00    +0.000 S 
ENDROOT
BRANCH   4   6
ATOM      6  C   UNK A   0       0.689  10.839  19.912  0.00  0.00    +0.000 C 
ATOM      7  O   UNK A   0       0.590  11.184  21.086  0.00  0.00    +0.000 OA
BRANCH   6   8
ATOM      8  O   UNK A   0       0.333  11.641  18.836  0.00  0.00    +0.000 OA
BRANCH   8   9
ATOM      9  C   UNK A   0       1.035  12.854  18.765  0.00  0.00    +0.000 A 
ATOM     10  C   UNK A   0       2.324  12.890  18.221  0.00  0.00    +0.000 A 
ATOM     11  C   UNK A   0       2.960  14.113  18.032  0.00  0.00    +0.000 A 
ATOM     12  C   UNK A   0       2.300  15.302  18.358  0.00  0.00    +0.000 A 
ATOM     13  C   UNK A   0       1.006  15.267  18.895  0.00  0.00    +0.000 A 
ATOM     14  C   UNK A   0       0.373  14.040  19.094  0.00  0.00    +0.000 A 
ATOM     15 CL   UNK A   0      -1.231  14.026  19.729  0.00  0.00    +0.000 Cl
BRANCH  12  16
ATOM     16  C   UNK A   0       2.997  16.592  18.124  0.00  0.00    +0.000 C 
ATOM     17  N   UNK A   0       3.871  17.079  18.944  0.00  0.00    +0.000 NA
ATOM     18  N   UNK A   0       2.723  17.324  17.007  0.00  0.00    +0.000 N 
ATOM     19  H   UNK A   0       3.980  16.496  19.778  0.00  0.00    +0.000 HD
ATOM     20  H   UNK A   0       2.554  16.799  16.157  0.00  0.00    +0.000 HD
ATOM     21  H   UNK A   0       3.407  18.063  16.880  0.00  0.00    +0.000 HD
ENDBRANCH  12  16
ENDBRANCH   8   9
ENDBRANCH   6   8
ENDBRANCH   4   6
BRANCH   1  22
ATOM     22  C   UNK A   0       2.649   5.930  19.498  0.00  0.00    +0.000 C 
BRANCH  22  24
ATOM     23  C   UNK A   0       1.758   3.902  18.244  0.00  0.00    +0.000 C 
ATOM     24  C   UNK A   0       2.753   5.068  18.225  0.00  0.00    +0.000 C 
BRANCH  24  25
ATOM     25  C   UNK A   0       4.168   4.558  17.948  0.00  0.00    +0.000 C 
ATOM     26  O   UNK A   0       4.428   3.381  17.715  0.00  0.00    +0.000 OA
ATOM     27  N   ASP A   1       5.137   5.528  17.900  0.00  0.00    +0.000 N 
ATOM     28  H   ASP A   1       4.931   6.487  18.166  0.00  0.00    +0.000 HD
BRANCH  27  29
ATOM     29  CA  ASP A   1       6.557   5.194  17.742  0.00  0.00    +0.000 C 
BRANCH  29  30
ATOM     30  C   ASP A   1       7.258   5.677  19.017  0.00  0.00    +0.000 C 
ATOM     31  O   ASP A   1       7.015   5.205  20.124  0.00  0.00    +0.000 OA
BRANCH  30  32
ATOM     32  OXT ASP A   1       8.157   6.666  18.839  0.00  0.00    +0.000 OA
ATOM     33  HXT ASP A   1       8.476   6.764  17.908  0.00  0.00    +0.000 HD
ENDBRANCH  30  32
ENDBRANCH  29  30
BRANCH  29  34
ATOM     34  CB  ASP A   1       7.114   5.888  16.505  0.00  0.00    +0.000 C 
BRANCH  34  35
ATOM     35  CG  ASP A   1       7.038   4.979  15.313  0.00  0.00    +0.000 C 
ATOM     36  OD1 ASP A   1       6.376   3.951  15.278  0.00  0.00    +0.000 OA
BRANCH  35  37
ATOM     37  OD2 ASP A   1       7.790   5.403  14.276  0.00  0.00    +0.000 OA
ATOM     38  HD2 ASP A   1       7.912   4.743  13.564  0.00  0.00    +0.000 HD
ENDBRANCH  35  37
ENDBRANCH  34  35
ENDBRANCH  29  34
ENDBRANCH  27  29
ENDBRANCH  24  25
ENDBRANCH  22  24
ENDBRANCH   1  22
TORSDOF 13
ENDMDL
MODEL 6
REMARK VINA RESULT:      -7.2      2.008      3.801
REMARK  Name = 
REMARK  14 active torsions:
REMARK  status: ('A' for Active; 'I' for Inactive)
REMARK    1  A    between atoms: C_1  and  C_2
REMARK    2  A    between atoms: C_2  and  C_3
REMARK    3  A    between atoms: C_2  and  C_22
REMARK    4  A    between atoms: C_3  and  C_4
REMARK    5  A    between atoms: C_7  and  C_8
REMARK    6  A    between atoms: C_8  and  O_10
REMARK    7  A    between atoms: O_10  and  C_11
REMARK    8  A    between atoms: C_14  and  C_15
REMARK    9  A    between atoms: N_24  and  CA_25
REMARK   10  A    between atoms: CA_25  and  CB_26
REMARK   11  A    between atoms: CA_25  and  C_30
REMARK   12  A    between atoms: CB_26  and  CG_27
REMARK   13  A    between atoms: CG_27  and  OD2_29
REMARK   14  A    between atoms: C_30  and  OXT_32
REMARK                            x       y       z     vdW  Elec       q    Type
REMARK                         _______ _______ _______ _____ _____    ______ ____
ROOT
ATOM      1  C   UNK A   0       2.385   7.259  18.841  0.00  0.00    +0.000 A 
ATOM      2  C   UNK A   0       1.984   7.091  20.151  0.00  0.00    +0.000 A 
ATOM      3  C   UNK A   0       1.357   8.256  20.671  0.00  0.00    +0.000 A 
ATOM      4  C   UNK A   0       1.256   9.267  19.731  0.00  0.00    +0.000 A 
ATOM      5  S   UNK A   0       1.887   8.775  18.224  0.00  0.00    +0.000 S 
ENDROOT
BRANCH   4   6
ATOM      6  C   UNK A   0       0.642  10.574  19.854  0.00  0.00    +0.000 C 
ATOM      7  O   UNK A   0       0.503  11.237  20.878  0.00  0.00    +0.000 OA
BRANCH   6   8
ATOM      8  O   UNK A   0       0.321  11.033  18.584  0.00  0.00    +0.000 OA
BRANCH   8   9
ATOM      9  C   UNK A   0      -1.056  11.078  18.320  0.00  0.00    +0.000 A 
ATOM     10  C   UNK A   0      -1.714   9.948  17.819  0.00  0.00    +0.000 A 
ATOM     11  C   UNK A   0      -3.098   9.957  17.686  0.00  0.00    +0.000 A 
ATOM     12  C   UNK A   0      -3.831  11.081  18.079  0.00  0.00    +0.000 A 
ATOM     13  C   UNK A   0      -3.175  12.209  18.589  0.00  0.00    +0.000 A 
ATOM     14  C   UNK A   0      -1.785  12.204  18.713  0.00  0.00    +0.000 A 
ATOM     15 CL   UNK A   0      -1.004  13.594  19.370  0.00  0.00    +0.000 Cl
BRANCH  12  16
ATOM     16  C   UNK A   0      -5.310  11.052  17.946  0.00  0.00    +0.000 C 
ATOM     17  N   UNK A   0      -6.077  10.402  18.759  0.00  0.00    +0.000 NA
ATOM     18  N   UNK A   0      -5.917  11.726  16.928  0.00  0.00    +0.000 N 
ATOM     19  H   UNK A   0      -5.543   9.885  19.460  0.00  0.00    +0.000 HD
ATOM     20  H   UNK A   0      -5.508  12.618  16.673  0.00  0.00    +0.000 HD
ATOM     21  H   UNK A   0      -6.920  11.786  17.079  0.00  0.00    +0.000 HD
ENDBRANCH  12  16
ENDBRANCH   8   9
ENDBRANCH   6   8
ENDBRANCH   4   6
BRANCH   1  22
ATOM     22  C   UNK A   0       3.159   6.300  17.984  0.00  0.00    +0.000 C 
BRANCH  22  24
ATOM     23  C   UNK A   0       5.639   6.369  17.413  0.00  0.00    +0.000 C 
ATOM     24  C   UNK A   0       4.593   6.049  18.488  0.00  0.00    +0.000 C 
BRANCH  24  25
ATOM     25  C   UNK A   0       4.810   4.639  19.039  0.00  0.00    +0.000 C 
ATOM     26  O   UNK A   0       5.918   4.175  19.292  0.00  0.00    +0.000 OA
ATOM     27  N   ASP A   1       3.661   3.938  19.309  0.00  0.00    +0.000 N 
ATOM     28  H   ASP A   1       2.752   4.295  19.030  0.00  0.00    +0.000 HD
BRANCH  27  29
ATOM     29  CA  ASP A   1       3.697   2.538  19.749  0.00  0.00    +0.000 C 
BRANCH  29  30
ATOM     30  C   ASP A   1       3.132   1.708  18.590  0.00  0.00    +0.000 C 
ATOM     31  O   ASP A   1       3.809   1.381  17.620  0.00  0.00    +0.000 OA
BRANCH  30  32
ATOM     32  OXT ASP A   1       1.832   1.369  18.707  0.00  0.00    +0.000 OA
ATOM     33  HXT ASP A   1       1.677   0.493  19.139  0.00  0.00    +0.000 HD
ENDBRANCH  30  32
ENDBRANCH  29  30
BRANCH  29  34
ATOM     34  CB  ASP A   1       2.858   2.375  21.010  0.00  0.00    +0.000 C 
BRANCH  34  35
ATOM     35  CG  ASP A   1       1.974   3.571  21.213  0.00  0.00    +0.000 C 
ATOM     36  OD1 ASP A   1       2.301   4.562  21.851  0.00  0.00    +0.000 OA
BRANCH  35  37
ATOM     37  OD2 ASP A   1       0.766   3.441  20.627  0.00  0.00    +0.000 OA
ATOM     38  HD2 ASP A   1       0.228   2.696  20.963  0.00  0.00    +0.000 HD
ENDBRANCH  35  37
ENDBRANCH  34  35
ENDBRANCH  29  34
ENDBRANCH  27  29
ENDBRANCH  24  25
ENDBRANCH  22  24
ENDBRANCH   1  22
TORSDOF 13
ENDMDL
MODEL 7
REMARK VINA RESULT:      -7.2      3.044      4.874
REMARK  Name = 
REMARK  14 active torsions:
REMARK  status: ('A' for Active; 'I' for Inactive)
REMARK    1  A    between atoms: C_1  and  C_2
REMARK    2  A    between atoms: C_2  and  C_3
REMARK    3  A    between atoms: C_2  and  C_22
REMARK    4  A    between atoms: C_3  and  C_4
REMARK    5  A    between atoms: C_7  and  C_8
REMARK    6  A    between atoms: C_8  and  O_10
REMARK    7  A    between atoms: O_10  and  C_11
REMARK    8  A    between atoms: C_14  and  C_15
REMARK    9  A    between atoms: N_24  and  CA_25
REMARK   10  A    between atoms: CA_25  and  CB_26
REMARK   11  A    between atoms: CA_25  and  C_30
REMARK   12  A    between atoms: CB_26  and  CG_27
REMARK   13  A    between atoms: CG_27  and  OD2_29
REMARK   14  A    between atoms: C_30  and  OXT_32
REMARK                            x       y       z     vdW  Elec       q    Type
REMARK                         _______ _______ _______ _____ _____    ______ ____
ROOT
ATOM      1  C   UNK A   0       2.493   7.492  18.672  0.00  0.00    +0.000 A 
ATOM      2  C   UNK A   0       2.123   7.400  19.998  0.00  0.00    +0.000 A 
ATOM      3  C   UNK A   0       1.392   8.541  20.429  0.00  0.00    +0.000 A 
ATOM      4  C   UNK A   0       1.186   9.454  19.410  0.00  0.00    +0.000 A 
ATOM      5  S   UNK A   0       1.846   8.897  17.939  0.00  0.00    +0.000 S 
ENDROOT
BRANCH   4   6
ATOM      6  C   UNK A   0       0.451  10.703  19.433  0.00  0.00    +0.000 C 
ATOM      7  O   UNK A   0      -0.390  11.087  18.626  0.00  0.00    +0.000 OA
BRANCH   6   8
ATOM      8  O   UNK A   0       0.770  11.381  20.602  0.00  0.00    +0.000 OA
BRANCH   8   9
ATOM      9  C   UNK A   0      -0.341  11.735  21.383  0.00  0.00    +0.000 A 
ATOM     10  C   UNK A   0      -0.823  10.855  22.359  0.00  0.00    +0.000 A 
ATOM     11  C   UNK A   0      -1.837  11.265  23.218  0.00  0.00    +0.000 A 
ATOM     12  C   UNK A   0      -2.352  12.561  23.124  0.00  0.00    +0.000 A 
ATOM     13  C   UNK A   0      -1.864  13.446  22.153  0.00  0.00    +0.000 A 
ATOM     14  C   UNK A   0      -0.854  13.030  21.284  0.00  0.00    +0.000 A 
ATOM     15 CL   UNK A   0      -0.251  14.148  20.117  0.00  0.00    +0.000 Cl
BRANCH  12  16
ATOM     16  C   UNK A   0      -3.420  12.977  24.069  0.00  0.00    +0.000 C 
ATOM     17  N   UNK A   0      -3.429  14.129  24.657  0.00  0.00    +0.000 NA
ATOM     18  N   UNK A   0      -4.447  12.128  24.355  0.00  0.00    +0.000 N 
ATOM     19  H   UNK A   0      -2.601  14.683  24.429  0.00  0.00    +0.000 HD
ATOM     20  H   UNK A   0      -4.788  11.562  23.587  0.00  0.00    +0.000 HD
ATOM     21  H   UNK A   0      -5.193  12.612  24.845  0.00  0.00    +0.000 HD
ENDBRANCH  12  16
ENDBRANCH   8   9
ENDBRANCH   6   8
ENDBRANCH   4   6
BRANCH   1  22
ATOM     22  C   UNK A   0       3.347   6.541  17.885  0.00  0.00    +0.000 C 
BRANCH  22  24
ATOM     23  C   UNK A   0       5.887   6.379  17.932  0.00  0.00    +0.000 C 
ATOM     24  C   UNK A   0       4.581   6.041  18.660  0.00  0.00    +0.000 C 
BRANCH  24  25
ATOM     25  C   UNK A   0       4.529   4.550  18.997  0.00  0.00    +0.000 C 
ATOM     26  O   UNK A   0       5.529   3.849  19.118  0.00  0.00    +0.000 OA
ATOM     27  N   ASP A   1       3.272   4.051  19.234  0.00  0.00    +0.000 N 
ATOM     28  H   ASP A   1       2.444   4.615  19.060  0.00  0.00    +0.000 HD
BRANCH  27  29
ATOM     29  CA  ASP A   1       3.041   2.622  19.472  0.00  0.00    +0.000 C 
BRANCH  29  30
ATOM     30  C   ASP A   1       3.067   1.946  18.096  0.00  0.00    +0.000 C 
ATOM     31  O   ASP A   1       2.158   2.073  17.280  0.00  0.00    +0.000 OA
BRANCH  30  32
ATOM     32  OXT ASP A   1       4.156   1.193  17.846  0.00  0.00    +0.000 OA
ATOM     33  HXT ASP A   1       3.997   0.218  17.891  0.00  0.00    +0.000 HD
ENDBRANCH  30  32
ENDBRANCH  29  30
BRANCH  29  34
ATOM     34  CB  ASP A   1       1.696   2.427  20.162  0.00  0.00    +0.000 C 
BRANCH  34  35
ATOM     35  CG  ASP A   1       1.864   2.438  21.653  0.00  0.00    +0.000 C 
ATOM     36  OD1 ASP A   1       0.934   2.513  22.445  0.00  0.00    +0.000 OA
BRANCH  35  37
ATOM     37  OD2 ASP A   1       3.154   2.368  22.041  0.00  0.00    +0.000 OA
ATOM     38  HD2 ASP A   1       3.284   2.259  23.004  0.00  0.00    +0.000 HD
ENDBRANCH  35  37
ENDBRANCH  34  35
ENDBRANCH  29  34
ENDBRANCH  27  29
ENDBRANCH  24  25
ENDBRANCH  22  24
ENDBRANCH   1  22
TORSDOF 13
ENDMDL
MODEL 8
REMARK VINA RESULT:      -7.2      2.626      4.418
REMARK  Name = 
REMARK  14 active torsions:
REMARK  status: ('A' for Active; 'I' for Inactive)
REMARK    1  A    between atoms: C_1  and  C_2
REMARK    2  A    between atoms: C_2  and  C_3
REMARK    3  A    between atoms: C_2  and  C_22
REMARK    4  A    between atoms: C_3  and  C_4
REMARK    5  A    between atoms: C_7  and  C_8
REMARK    6  A    between atoms: C_8  and  O_10
REMARK    7  A    between atoms: O_10  and  C_11
REMARK    8  A    between atoms: C_14  and  C_15
REMARK    9  A    between atoms: N_24  and  CA_25
REMARK   10  A    between atoms: CA_25  and  CB_26
REMARK   11  A    between atoms: CA_25  and  C_30
REMARK   12  A    between atoms: CB_26  and  CG_27
REMARK   13  A    between atoms: CG_27  and  OD2_29
REMARK   14  A    between atoms: C_30  and  OXT_32
REMARK                            x       y       z     vdW  Elec       q    Type
REMARK                         _______ _______ _______ _____ _____    ______ ____
ROOT
ATOM      1  C   UNK A   0       2.517   7.490  18.329  0.00  0.00    +0.000 A 
ATOM      2  C   UNK A   0       2.183   8.691  17.738  0.00  0.00    +0.000 A 
ATOM      3  C   UNK A   0       1.437   9.527  18.613  0.00  0.00    +0.000 A 
ATOM      4  C   UNK A   0       1.258   8.961  19.863  0.00  0.00    +0.000 A 
ATOM      5  S   UNK A   0       2.031   7.443  19.969  0.00  0.00    +0.000 S 
ENDROOT
BRANCH   4   6
ATOM      6  C   UNK A   0       0.605   9.511  21.033  0.00  0.00    +0.000 C 
ATOM      7  O   UNK A   0       0.302   8.918  22.064  0.00  0.00    +0.000 OA
BRANCH   6   8
ATOM      8  O   UNK A   0       0.462  10.881  20.857  0.00  0.00    +0.000 OA
BRANCH   8   9
ATOM      9  C   UNK A   0      -0.779  11.388  21.270  0.00  0.00    +0.000 A 
ATOM     10  C   UNK A   0      -1.061  11.536  22.633  0.00  0.00    +0.000 A 
ATOM     11  C   UNK A   0      -2.237  12.163  23.030  0.00  0.00    +0.000 A 
ATOM     12  C   UNK A   0      -3.120  12.667  22.070  0.00  0.00    +0.000 A 
ATOM     13  C   UNK A   0      -2.835  12.526  20.706  0.00  0.00    +0.000 A 
ATOM     14  C   UNK A   0      -1.659  11.889  20.307  0.00  0.00    +0.000 A 
ATOM     15 CL   UNK A   0      -1.318  11.754  18.621  0.00  0.00    +0.000 Cl
BRANCH  12  16
ATOM     16  C   UNK A   0      -4.358  13.349  22.526  0.00  0.00    +0.000 C 
ATOM     17  N   UNK A   0      -4.425  14.626  22.724  0.00  0.00    +0.000 NA
ATOM     18  N   UNK A   0      -5.490  12.627  22.761  0.00  0.00    +0.000 N 
ATOM     19  H   UNK A   0      -3.524  15.085  22.575  0.00  0.00    +0.000 HD
ATOM     20  H   UNK A   0      -5.667  11.853  22.131  0.00  0.00    +0.000 HD
ATOM     21  H   UNK A   0      -6.295  13.236  22.866  0.00  0.00    +0.000 HD
ENDBRANCH  12  16
ENDBRANCH   8   9
ENDBRANCH   6   8
ENDBRANCH   4   6
BRANCH   1  22
ATOM     22  C   UNK A   0       3.215   6.317  17.703  0.00  0.00    +0.000 C 
BRANCH  22  24
ATOM     23  C   UNK A   0       5.709   6.342  17.194  0.00  0.00    +0.000 C 
ATOM     24  C   UNK A   0       4.634   6.083  18.256  0.00  0.00    +0.000 C 
BRANCH  24  25
ATOM     25  C   UNK A   0       4.825   4.701  18.882  0.00  0.00    +0.000 C 
ATOM     26  O   UNK A   0       5.926   4.224  19.145  0.00  0.00    +0.000 OA
ATOM     27  N   ASP A   1       3.665   4.044  19.206  0.00  0.00    +0.000 N 
ATOM     28  H   ASP A   1       2.760   4.407  18.920  0.00  0.00    +0.000 HD
BRANCH  27  29
ATOM     29  CA  ASP A   1       3.674   2.670  19.723  0.00  0.00    +0.000 C 
BRANCH  29  30
ATOM     30  C   ASP A   1       3.133   1.782  18.596  0.00  0.00    +0.000 C 
ATOM     31  O   ASP A   1       3.866   1.136  17.854  0.00  0.00    +0.000 OA
BRANCH  30  32
ATOM     32  OXT ASP A   1       1.790   1.768  18.471  0.00  0.00    +0.000 OA
ATOM     33  HXT ASP A   1       1.327   2.492  18.960  0.00  0.00    +0.000 HD
ENDBRANCH  30  32
ENDBRANCH  29  30
BRANCH  29  34
ATOM     34  CB  ASP A   1       2.799   2.583  20.968  0.00  0.00    +0.000 C 
BRANCH  34  35
ATOM     35  CG  ASP A   1       1.933   3.804  21.088  0.00  0.00    +0.000 C 
ATOM     36  OD1 ASP A   1       0.848   3.929  20.537  0.00  0.00    +0.000 OA
BRANCH  35  37
ATOM     37  OD2 ASP A   1       2.478   4.765  21.861  0.00  0.00    +0.000 OA
ATOM     38  HD2 ASP A   1       3.343   5.099  21.548  0.00  0.00    +0.000 HD
ENDBRANCH  35  37
ENDBRANCH  34  35
ENDBRANCH  29  34
ENDBRANCH  27  29
ENDBRANCH  24  25
ENDBRANCH  22  24
ENDBRANCH   1  22
TORSDOF 13
ENDMDL
MODEL 9
REMARK VINA RESULT:      -7.2      1.118      1.601
REMARK  Name = 
REMARK  14 active torsions:
REMARK  status: ('A' for Active; 'I' for Inactive)
REMARK    1  A    between atoms: C_1  and  C_2
REMARK    2  A    between atoms: C_2  and  C_3
REMARK    3  A    between atoms: C_2  and  C_22
REMARK    4  A    between atoms: C_3  and  C_4
REMARK    5  A    between atoms: C_7  and  C_8
REMARK    6  A    between atoms: C_8  and  O_10
REMARK    7  A    between atoms: O_10  and  C_11
REMARK    8  A    between atoms: C_14  and  C_15
REMARK    9  A    between atoms: N_24  and  CA_25
REMARK   10  A    between atoms: CA_25  and  CB_26
REMARK   11  A    between atoms: CA_25  and  C_30
REMARK   12  A    between atoms: CB_26  and  CG_27
REMARK   13  A    between atoms: CG_27  and  OD2_29
REMARK   14  A    between atoms: C_30  and  OXT_32
REMARK                            x       y       z     vdW  Elec       q    Type
REMARK                         _______ _______ _______ _____ _____    ______ ____
ROOT
ATOM      1  C   UNK A   0       2.132   6.523  19.989  0.00  0.00    +0.000 A 
ATOM      2  C   UNK A   0       1.459   7.217  20.973  0.00  0.00    +0.000 A 
ATOM      3  C   UNK A   0       1.207   8.565  20.598  0.00  0.00    +0.000 A 
ATOM      4  C   UNK A   0       1.656   8.853  19.322  0.00  0.00    +0.000 A 
ATOM      5  S   UNK A   0       2.340   7.475  18.583  0.00  0.00    +0.000 S 
ENDROOT
BRANCH   4   6
ATOM      6  C   UNK A   0       1.544  10.084  18.566  0.00  0.00    +0.000 C 
ATOM      7  O   UNK A   0       1.992  10.314  17.447  0.00  0.00    +0.000 OA
BRANCH   6   8
ATOM      8  O   UNK A   0       0.733  10.964  19.271  0.00  0.00    +0.000 OA
BRANCH   8   9
ATOM      9  C   UNK A   0      -0.580  11.053  18.784  0.00  0.00    +0.000 A 
ATOM     10  C   UNK A   0      -1.055  10.110  17.865  0.00  0.00    +0.000 A 
ATOM     11  C   UNK A   0      -2.394  10.126  17.490  0.00  0.00    +0.000 A 
ATOM     12  C   UNK A   0      -3.266  11.064  18.050  0.00  0.00    +0.000 A 
ATOM     13  C   UNK A   0      -2.794  12.003  18.976  0.00  0.00    +0.000 A 
ATOM     14  C   UNK A   0      -1.448  11.993  19.345  0.00  0.00    +0.000 A 
ATOM     15 CL   UNK A   0      -0.897  13.142  20.509  0.00  0.00    +0.000 Cl
BRANCH  12  16
ATOM     16  C   UNK A   0      -4.695  11.042  17.645  0.00  0.00    +0.000 C 
ATOM     17  N   UNK A   0      -5.091  11.333  16.448  0.00  0.00    +0.000 NA
ATOM     18  N   UNK A   0      -5.657  10.708  18.551  0.00  0.00    +0.000 N 
ATOM     19  H   UNK A   0      -4.316  11.621  15.847  0.00  0.00    +0.000 HD
ATOM     20  H   UNK A   0      -5.416   9.980  19.213  0.00  0.00    +0.000 HD
ATOM     21  H   UNK A   0      -6.546  10.538  18.091  0.00  0.00    +0.000 HD
ENDBRANCH  12  16
ENDBRANCH   8   9
ENDBRANCH   6   8
ENDBRANCH   4   6
BRANCH   1  22
ATOM     22  C   UNK A   0       2.656   5.117  20.047  0.00  0.00    +0.000 C 
BRANCH  22  24
ATOM     23  C   UNK A   0       2.575   3.357  18.209  0.00  0.00    +0.000 C 
ATOM     24  C   UNK A   0       3.258   4.634  18.714  0.00  0.00    +0.000 C 
BRANCH  24  25
ATOM     25  C   UNK A   0       4.775   4.443  18.762  0.00  0.00    +0.000 C 
ATOM     26  O   UNK A   0       5.326   3.573  19.430  0.00  0.00    +0.000 OA
ATOM     27  N   ASP A   1       5.492   5.274  17.937  0.00  0.00    +0.000 N 
ATOM     28  H   ASP A   1       5.039   6.039  17.444  0.00  0.00    +0.000 HD
BRANCH  27  29
ATOM     29  CA  ASP A   1       6.959   5.285  17.939  0.00  0.00    +0.000 C 
BRANCH  29  30
ATOM     30  C   ASP A   1       7.379   6.754  17.807  0.00  0.00    +0.000 C 
ATOM     31  O   ASP A   1       8.215   7.271  18.543  0.00  0.00    +0.000 OA
BRANCH  30  32
ATOM     32  OXT ASP A   1       6.757   7.443  16.829  0.00  0.00    +0.000 OA
ATOM     33  HXT ASP A   1       5.828   7.704  17.042  0.00  0.00    +0.000 HD
ENDBRANCH  30  32
ENDBRANCH  29  30
BRANCH  29  34
ATOM     34  CB  ASP A   1       7.481   4.451  16.775  0.00  0.00    +0.000 C 
BRANCH  34  35
ATOM     35  CG  ASP A   1       6.884   4.922  15.481  0.00  0.00    +0.000 C 
ATOM     36  OD1 ASP A   1       5.699   4.816  15.196  0.00  0.00    +0.000 OA
BRANCH  35  37
ATOM     37  OD2 ASP A   1       7.793   5.470  14.648  0.00  0.00    +0.000 OA
ATOM     38  HD2 ASP A   1       8.716   5.428  14.968  0.00  0.00    +0.000 HD
ENDBRANCH  35  37
ENDBRANCH  34  35
ENDBRANCH  29  34
ENDBRANCH  27  29
ENDBRANCH  24  25
ENDBRANCH  22  24
ENDBRANCH   1  22
TORSDOF 13
ENDMDL
