MODEL 1
REMARK VINA RESULT:      -8.5      0.000      0.000
REMARK  Name = 
REMARK  9 active torsions:
REMARK  status: ('A' for Active; 'I' for Inactive)
REMARK    1  A    between atoms: C_1  and  O_2
REMARK    2  A    between atoms: O_2  and  C_3
REMARK    3  A    between atoms: C_5  and  C_6
REMARK    4  A    between atoms: C_9  and  C_10
REMARK    5  A    between atoms: N_11  and  C_12
REMARK    6  A    between atoms: C_15  and  N_16
REMARK    7  A    between atoms: C_21  and  C_22
REMARK    8  A    between atoms: C_24  and  C_25
REMARK    9  A    between atoms: C_27  and  C_28
REMARK                            x       y       z     vdW  Elec       q    Type
REMARK                         _______ _______ _______ _____ _____    ______ ____
ROOT
ATOM      1  N   UNL     1       8.992   8.833  19.287  0.00  0.00    +0.000 N 
ATOM      2  C   UNL     1       8.342   7.904  18.412  0.00  0.00    +0.000 A 
ATOM      3  C   UNL     1       7.830   6.794  19.045  0.00  0.00    +0.000 A 
ATOM      4  C   UNL     1       6.749   6.153  18.453  0.00  0.00    +0.000 A 
ATOM      5  C   UNL     1       5.798   5.540  19.272  0.00  0.00    +0.000 A 
ATOM      6  C   UNL     1       4.657   4.902  18.760  0.00  0.00    +0.000 A 
ATOM      7  C   UNL     1       4.586   4.759  17.371  0.00  0.00    +0.000 A 
ATOM      8  C   UNL     1       5.504   5.437  16.530  0.00  0.00    +0.000 A 
ATOM      9  C   UNL     1       6.519   6.248  17.079  0.00  0.00    +0.000 A 
ATOM     10  C   UNL     1       7.300   7.217  16.437  0.00  0.00    +0.000 A 
ATOM     11  N   UNL     1       8.124   8.101  17.090  0.00  0.00    +0.000 NA
ATOM     12  H   UNL     1       8.597   8.747  20.226  0.00  0.00    +0.000 HD
ENDROOT
BRANCH   6  13
ATOM     13  C   UNL     1       3.580   4.504  19.694  0.00  0.00    +0.000 A 
ATOM     14  S   UNL     1       3.448   2.865  20.237  0.00  0.00    +0.000 S 
ATOM     15  C   UNL     1       2.019   3.243  21.099  0.00  0.00    +0.000 A 
ATOM     16  C   UNL     1       1.312   2.228  21.927  0.00  0.00    +0.000 C 
ATOM     17  N   UNL     1       1.612   4.484  20.987  0.00  0.00    +0.000 NA
ATOM     18  C   UNL     1       2.486   5.212  20.198  0.00  0.00    +0.000 A 
ATOM     19  C   UNL     1       2.141   6.647  19.996  0.00  0.00    +0.000 C 
ENDBRANCH   6  13
BRANCH   1  25
ATOM     20  C   UNL     1       9.171  11.134  20.169  0.00  0.00    +0.000 A 
ATOM     21  C   UNL     1       9.387  12.505  19.944  0.00  0.00    +0.000 A 
ATOM     22  C   UNL     1       9.563  13.000  18.649  0.00  0.00    +0.000 A 
ATOM     23  C   UNL     1       9.686  12.091  17.600  0.00  0.00    +0.000 A 
ATOM     24  C   UNL     1       9.506  10.725  17.818  0.00  0.00    +0.000 A 
ATOM     25  C   UNL     1       9.205  10.231  19.075  0.00  0.00    +0.000 A 
BRANCH  22  26
ATOM     26  C   UNL     1       9.550  14.459  18.429  0.00  0.00    +0.000 A 
ATOM     27  C   UNL     1       8.485  15.347  18.369  0.00  0.00    +0.000 A 
ATOM     28  N   UNL     1       8.885  16.602  18.000  0.00  0.00    +0.000 NA
ATOM     29  C   UNL     1      10.184  16.516  17.807  0.00  0.00    +0.000 A 
ATOM     30  C   UNL     1      11.057  17.625  17.341  0.00  0.00    +0.000 C 
ATOM     31  N   UNL     1      10.635  15.239  18.063  0.00  0.00    +0.000 N 
ATOM     32  C   UNL     1      11.997  14.785  17.889  0.00  0.00    +0.000 C 
ENDBRANCH  22  26
BRANCH  20  34
ATOM     33  C   UNL     1       8.376  11.575  22.363  0.00  0.00    +0.000 C 
ATOM     34  O   UNL     1       8.886  10.627  21.422  0.00  0.00    +0.000 OA
ENDBRANCH  20  34
ENDBRANCH   1  25
TORSDOF 4
ENDMDL
MODEL 2
REMARK VINA RESULT:      -8.2      0.721      1.198
REMARK  Name = 
REMARK  9 active torsions:
REMARK  status: ('A' for Active; 'I' for Inactive)
REMARK    1  A    between atoms: C_1  and  O_2
REMARK    2  A    between atoms: O_2  and  C_3
REMARK    3  A    between atoms: C_5  and  C_6
REMARK    4  A    between atoms: C_9  and  C_10
REMARK    5  A    between atoms: N_11  and  C_12
REMARK    6  A    between atoms: C_15  and  N_16
REMARK    7  A    between atoms: C_21  and  C_22
REMARK    8  A    between atoms: C_24  and  C_25
REMARK    9  A    between atoms: C_27  and  C_28
REMARK                            x       y       z     vdW  Elec       q    Type
REMARK                         _______ _______ _______ _____ _____    ______ ____
ROOT
ATOM      1  N   UNL     1       9.026   8.769  19.287  0.00  0.00    +0.000 N 
ATOM      2  C   UNL     1       8.338   7.880  18.399  0.00  0.00    +0.000 A 
ATOM      3  C   UNL     1       7.816   6.763  19.010  0.00  0.00    +0.000 A 
ATOM      4  C   UNL     1       6.709   6.162  18.424  0.00  0.00    +0.000 A 
ATOM      5  C   UNL     1       5.763   5.545  19.246  0.00  0.00    +0.000 A 
ATOM      6  C   UNL     1       4.598   4.946  18.740  0.00  0.00    +0.000 A 
ATOM      7  C   UNL     1       4.495   4.845  17.350  0.00  0.00    +0.000 A 
ATOM      8  C   UNL     1       5.409   5.528  16.509  0.00  0.00    +0.000 A 
ATOM      9  C   UNL     1       6.452   6.302  17.059  0.00  0.00    +0.000 A 
ATOM     10  C   UNL     1       7.240   7.273  16.428  0.00  0.00    +0.000 A 
ATOM     11  N   UNL     1       8.096   8.120  17.088  0.00  0.00    +0.000 NA
ATOM     12  H   UNL     1       8.649   8.664  20.231  0.00  0.00    +0.000 HD
ENDROOT
BRANCH   6  13
ATOM     13  C   UNL     1       3.532   4.543  19.686  0.00  0.00    +0.000 A 
ATOM     14  S   UNL     1       3.410   2.901  20.225  0.00  0.00    +0.000 S 
ATOM     15  C   UNL     1       1.991   3.275  21.105  0.00  0.00    +0.000 A 
ATOM     16  C   UNL     1       1.295   2.255  21.937  0.00  0.00    +0.000 C 
ATOM     17  N   UNL     1       1.580   4.515  21.002  0.00  0.00    +0.000 NA
ATOM     18  C   UNL     1       2.444   5.248  20.205  0.00  0.00    +0.000 A 
ATOM     19  C   UNL     1       2.094   6.683  20.012  0.00  0.00    +0.000 C 
ENDBRANCH   6  13
BRANCH   1  25
ATOM     20  C   UNL     1       9.216  11.048  20.222  0.00  0.00    +0.000 A 
ATOM     21  C   UNL     1       9.456  12.420  20.033  0.00  0.00    +0.000 A 
ATOM     22  C   UNL     1       9.672  12.940  18.754  0.00  0.00    +0.000 A 
ATOM     23  C   UNL     1       9.808  12.052  17.689  0.00  0.00    +0.000 A 
ATOM     24  C   UNL     1       9.603  10.685  17.872  0.00  0.00    +0.000 A 
ATOM     25  C   UNL     1       9.264  10.168  19.111  0.00  0.00    +0.000 A 
BRANCH  22  26
ATOM     26  C   UNL     1       9.685  14.403  18.566  0.00  0.00    +0.000 A 
ATOM     27  C   UNL     1      10.741  15.303  18.610  0.00  0.00    +0.000 A 
ATOM     28  N   UNL     1      10.312  16.599  18.528  0.00  0.00    +0.000 NA
ATOM     29  C   UNL     1       9.001  16.534  18.453  0.00  0.00    +0.000 A 
ATOM     30  C   UNL     1       8.085  17.703  18.400  0.00  0.00    +0.000 C 
ATOM     31  N   UNL     1       8.572  15.224  18.463  0.00  0.00    +0.000 N 
ATOM     32  C   UNL     1       7.191  14.797  18.457  0.00  0.00    +0.000 C 
ENDBRANCH  22  26
BRANCH  20  34
ATOM     33  C   UNL     1       8.411  11.460  22.418  0.00  0.00    +0.000 C 
ATOM     34  O   UNL     1       8.893  10.518  21.457  0.00  0.00    +0.000 OA
ENDBRANCH  20  34
ENDBRANCH   1  25
TORSDOF 4
ENDMDL
MODEL 3
REMARK VINA RESULT:      -8.1      6.005      8.175
REMARK  Name = 
REMARK  9 active torsions:
REMARK  status: ('A' for Active; 'I' for Inactive)
REMARK    1  A    between atoms: C_1  and  O_2
REMARK    2  A    between atoms: O_2  and  C_3
REMARK    3  A    between atoms: C_5  and  C_6
REMARK    4  A    between atoms: C_9  and  C_10
REMARK    5  A    between atoms: N_11  and  C_12
REMARK    6  A    between atoms: C_15  and  N_16
REMARK    7  A    between atoms: C_21  and  C_22
REMARK    8  A    between atoms: C_24  and  C_25
REMARK    9  A    between atoms: C_27  and  C_28
REMARK                            x       y       z     vdW  Elec       q    Type
REMARK                         _______ _______ _______ _____ _____    ______ ____
ROOT
ATOM      1  N   UNL     1       0.721  10.497  17.993  0.00  0.00    +0.000 N 
ATOM      2  C   UNL     1       1.102   9.268  18.623  0.00  0.00    +0.000 A 
ATOM      3  C   UNL     1       1.556   8.304  17.751  0.00  0.00    +0.000 A 
ATOM      4  C   UNL     1       2.441   7.352  18.244  0.00  0.00    +0.000 A 
ATOM      5  C   UNL     1       3.419   6.836  17.391  0.00  0.00    +0.000 A 
ATOM      6  C   UNL     1       4.374   5.898  17.816  0.00  0.00    +0.000 A 
ATOM      7  C   UNL     1       4.210   5.370  19.099  0.00  0.00    +0.000 A 
ATOM      8  C   UNL     1       3.269   5.936  19.996  0.00  0.00    +0.000 A 
ATOM      9  C   UNL     1       2.466   7.026  19.601  0.00  0.00    +0.000 A 
ATOM     10  C   UNL     1       1.727   7.899  20.410  0.00  0.00    +0.000 A 
ATOM     11  N   UNL     1       1.136   9.054  19.959  0.00  0.00    +0.000 NA
ATOM     12  H   UNL     1       1.243  10.606  17.121  0.00  0.00    +0.000 HD
ENDROOT
BRANCH   6  13
ATOM     13  C   UNL     1       5.522   5.595  16.931  0.00  0.00    +0.000 A 
ATOM     14  S   UNL     1       5.288   5.387  15.228  0.00  0.00    +0.000 S 
ATOM     15  C   UNL     1       6.943   5.000  15.027  0.00  0.00    +0.000 A 
ATOM     16  C   UNL     1       7.526   4.727  13.685  0.00  0.00    +0.000 C 
ATOM     17  N   UNL     1       7.649   4.978  16.131  0.00  0.00    +0.000 NA
ATOM     18  C   UNL     1       6.860   5.317  17.218  0.00  0.00    +0.000 A 
ATOM     19  C   UNL     1       7.546   5.337  18.540  0.00  0.00    +0.000 C 
ENDBRANCH   6  13
BRANCH   1  25
ATOM     20  C   UNL     1      -0.560  12.289  19.111  0.00  0.00    +0.000 A 
ATOM     21  C   UNL     1      -0.601  13.569  19.692  0.00  0.00    +0.000 A 
ATOM     22  C   UNL     1       0.529  14.392  19.692  0.00  0.00    +0.000 A 
ATOM     23  C   UNL     1       1.740  13.860  19.255  0.00  0.00    +0.000 A 
ATOM     24  C   UNL     1       1.798  12.580  18.706  0.00  0.00    +0.000 A 
ATOM     25  C   UNL     1       0.662  11.798  18.583  0.00  0.00    +0.000 A 
BRANCH  22  26
ATOM     26  C   UNL     1       0.388  15.805  20.093  0.00  0.00    +0.000 A 
ATOM     27  C   UNL     1       0.375  16.959  19.322  0.00  0.00    +0.000 A 
ATOM     28  N   UNL     1       0.370  18.089  20.092  0.00  0.00    +0.000 NA
ATOM     29  C   UNL     1       0.401  17.668  21.338  0.00  0.00    +0.000 A 
ATOM     30  C   UNL     1       0.462  18.543  22.538  0.00  0.00    +0.000 C 
ATOM     31  N   UNL     1       0.404  16.291  21.391  0.00  0.00    +0.000 N 
ATOM     32  C   UNL     1       0.496  15.502  22.600  0.00  0.00    +0.000 C 
ENDBRANCH  22  26
BRANCH  20  34
ATOM     33  C   UNL     1      -2.540  11.802  17.894  0.00  0.00    +0.000 C 
ATOM     34  O   UNL     1      -1.684  11.494  18.997  0.00  0.00    +0.000 OA
ENDBRANCH  20  34
ENDBRANCH   1  25
TORSDOF 4
ENDMDL
MODEL 4
REMARK VINA RESULT:      -8.0      5.793      7.942
REMARK  Name = 
REMARK  9 active torsions:
REMARK  status: ('A' for Active; 'I' for Inactive)
REMARK    1  A    between atoms: C_1  and  O_2
REMARK    2  A    between atoms: O_2  and  C_3
REMARK    3  A    between atoms: C_5  and  C_6
REMARK    4  A    between atoms: C_9  and  C_10
REMARK    5  A    between atoms: N_11  and  C_12
REMARK    6  A    between atoms: C_15  and  N_16
REMARK    7  A    between atoms: C_21  and  C_22
REMARK    8  A    between atoms: C_24  and  C_25
REMARK    9  A    between atoms: C_27  and  C_28
REMARK                            x       y       z     vdW  Elec       q    Type
REMARK                         _______ _______ _______ _____ _____    ______ ____
ROOT
ATOM      1  N   UNL     1       1.054  11.052  18.599  0.00  0.00    +0.000 N 
ATOM      2  C   UNL     1       1.272   9.685  18.968  0.00  0.00    +0.000 A 
ATOM      3  C   UNL     1       1.672   8.876  17.928  0.00  0.00    +0.000 A 
ATOM      4  C   UNL     1       2.427   7.751  18.237  0.00  0.00    +0.000 A 
ATOM      5  C   UNL     1       3.391   7.316  17.326  0.00  0.00    +0.000 A 
ATOM      6  C   UNL     1       4.221   6.210  17.573  0.00  0.00    +0.000 A 
ATOM      7  C   UNL     1       3.936   5.452  18.712  0.00  0.00    +0.000 A 
ATOM      8  C   UNL     1       3.011   5.922  19.678  0.00  0.00    +0.000 A 
ATOM      9  C   UNL     1       2.346   7.153  19.496  0.00  0.00    +0.000 A 
ATOM     10  C   UNL     1       1.658   7.918  20.447  0.00  0.00    +0.000 A 
ATOM     11  N   UNL     1       1.213   9.199  20.230  0.00  0.00    +0.000 NA
ATOM     12  H   UNL     1       1.630  11.279  17.785  0.00  0.00    +0.000 HD
ENDROOT
BRANCH   6  13
ATOM     13  C   UNL     1       5.378   5.970  16.681  0.00  0.00    +0.000 A 
ATOM     14  S   UNL     1       5.172   5.127  15.182  0.00  0.00    +0.000 S 
ATOM     15  C   UNL     1       6.857   5.196  14.888  0.00  0.00    +0.000 A 
ATOM     16  C   UNL     1       7.455   4.659  13.635  0.00  0.00    +0.000 C 
ATOM     17  N   UNL     1       7.565   5.766  15.832  0.00  0.00    +0.000 NA
ATOM     18  C   UNL     1       6.743   6.213  16.853  0.00  0.00    +0.000 A 
ATOM     19  C   UNL     1       7.426   6.889  17.991  0.00  0.00    +0.000 C 
ENDBRANCH   6  13
BRANCH   1  25
ATOM     20  C   UNL     1       2.043  13.232  19.210  0.00  0.00    +0.000 A 
ATOM     21  C   UNL     1       2.070  14.359  20.050  0.00  0.00    +0.000 A 
ATOM     22  C   UNL     1       1.223  14.446  21.158  0.00  0.00    +0.000 A 
ATOM     23  C   UNL     1       0.238  13.474  21.321  0.00  0.00    +0.000 A 
ATOM     24  C   UNL     1       0.183  12.368  20.474  0.00  0.00    +0.000 A 
ATOM     25  C   UNL     1       1.096  12.203  19.447  0.00  0.00    +0.000 A 
BRANCH  22  26
ATOM     26  C   UNL     1       1.438  15.522  22.144  0.00  0.00    +0.000 A 
ATOM     27  C   UNL     1       2.583  15.883  22.841  0.00  0.00    +0.000 A 
ATOM     28  N   UNL     1       2.329  16.849  23.775  0.00  0.00    +0.000 NA
ATOM     29  C   UNL     1       1.039  17.091  23.694  0.00  0.00    +0.000 A 
ATOM     30  C   UNL     1       0.286  18.038  24.557  0.00  0.00    +0.000 C 
ATOM     31  N   UNL     1       0.455  16.317  22.713  0.00  0.00    +0.000 N 
ATOM     32  C   UNL     1      -0.957  16.288  22.403  0.00  0.00    +0.000 C 
ENDBRANCH  22  26
BRANCH  20  34
ATOM     33  C   UNL     1       3.875  14.130  17.993  0.00  0.00    +0.000 C 
ATOM     34  O   UNL     1       2.939  13.063  18.171  0.00  0.00    +0.000 OA
ENDBRANCH  20  34
ENDBRANCH   1  25
TORSDOF 4
ENDMDL
MODEL 5
REMARK VINA RESULT:      -8.0      7.357     11.315
REMARK  Name = 
REMARK  9 active torsions:
REMARK  status: ('A' for Active; 'I' for Inactive)
REMARK    1  A    between atoms: C_1  and  O_2
REMARK    2  A    between atoms: O_2  and  C_3
REMARK    3  A    between atoms: C_5  and  C_6
REMARK    4  A    between atoms: C_9  and  C_10
REMARK    5  A    between atoms: N_11  and  C_12
REMARK    6  A    between atoms: C_15  and  N_16
REMARK    7  A    between atoms: C_21  and  C_22
REMARK    8  A    between atoms: C_24  and  C_25
REMARK    9  A    between atoms: C_27  and  C_28
REMARK                            x       y       z     vdW  Elec       q    Type
REMARK                         _______ _______ _______ _____ _____    ______ ____
ROOT
ATOM      1  N   UNL     1       0.687  10.574  18.507  0.00  0.00    +0.000 N 
ATOM      2  C   UNL     1       0.927  11.797  19.213  0.00  0.00    +0.000 A 
ATOM      3  C   UNL     1      -0.157  12.644  19.261  0.00  0.00    +0.000 A 
ATOM      4  C   UNL     1      -0.240  13.530  20.328  0.00  0.00    +0.000 A 
ATOM      5  C   UNL     1      -1.500  13.879  20.818  0.00  0.00    +0.000 A 
ATOM      6  C   UNL     1      -1.674  14.738  21.915  0.00  0.00    +0.000 A 
ATOM      7  C   UNL     1      -0.528  15.369  22.408  0.00  0.00    +0.000 A 
ATOM      8  C   UNL     1       0.759  14.970  21.968  0.00  0.00    +0.000 A 
ATOM      9  C   UNL     1       0.906  13.945  21.010  0.00  0.00    +0.000 A 
ATOM     10  C   UNL     1       2.056  13.214  20.688  0.00  0.00    +0.000 A 
ATOM     11  N   UNL     1       2.062  12.099  19.886  0.00  0.00    +0.000 NA
ATOM     12  H   UNL     1      -0.309  10.349  18.548  0.00  0.00    +0.000 HD
ENDROOT
BRANCH   6  13
ATOM     13  C   UNL     1      -3.018  14.855  22.526  0.00  0.00    +0.000 A 
ATOM     14  S   UNL     1      -3.894  16.346  22.443  0.00  0.00    +0.000 S 
ATOM     15  C   UNL     1      -5.151  15.684  23.397  0.00  0.00    +0.000 A 
ATOM     16  C   UNL     1      -6.380  16.460  23.720  0.00  0.00    +0.000 C 
ATOM     17  N   UNL     1      -4.955  14.453  23.803  0.00  0.00    +0.000 NA
ATOM     18  C   UNL     1      -3.753  13.968  23.315  0.00  0.00    +0.000 A 
ATOM     19  C   UNL     1      -3.412  12.569  23.699  0.00  0.00    +0.000 C 
ENDBRANCH   6  13
BRANCH   1  25
ATOM     20  C   UNL     1       1.282   8.597  19.865  0.00  0.00    +0.000 A 
ATOM     21  C   UNL     1       1.964   7.375  19.993  0.00  0.00    +0.000 A 
ATOM     22  C   UNL     1       2.793   6.907  18.970  0.00  0.00    +0.000 A 
ATOM     23  C   UNL     1       2.803   7.590  17.756  0.00  0.00    +0.000 A 
ATOM     24  C   UNL     1       2.104   8.788  17.608  0.00  0.00    +0.000 A 
ATOM     25  C   UNL     1       1.379   9.330  18.655  0.00  0.00    +0.000 A 
BRANCH  22  26
ATOM     26  C   UNL     1       3.671   5.750  19.229  0.00  0.00    +0.000 A 
ATOM     27  C   UNL     1       5.053   5.639  19.159  0.00  0.00    +0.000 A 
ATOM     28  N   UNL     1       5.472   4.349  19.334  0.00  0.00    +0.000 NA
ATOM     29  C   UNL     1       4.376   3.639  19.494  0.00  0.00    +0.000 A 
ATOM     30  C   UNL     1       4.327   2.164  19.666  0.00  0.00    +0.000 C 
ATOM     31  N   UNL     1       3.258   4.444  19.447  0.00  0.00    +0.000 N 
ATOM     32  C   UNL     1       1.891   3.980  19.526  0.00  0.00    +0.000 C 
ENDBRANCH  22  26
BRANCH  20  34
ATOM     33  C   UNL     1       1.215   9.221  22.156  0.00  0.00    +0.000 C 
ATOM     34  O   UNL     1       0.541   9.141  20.897  0.00  0.00    +0.000 OA
ENDBRANCH  20  34
ENDBRANCH   1  25
TORSDOF 4
ENDMDL
MODEL 6
REMARK VINA RESULT:      -8.0      5.425      7.535
REMARK  Name = 
REMARK  9 active torsions:
REMARK  status: ('A' for Active; 'I' for Inactive)
REMARK    1  A    between atoms: C_1  and  O_2
REMARK    2  A    between atoms: O_2  and  C_3
REMARK    3  A    between atoms: C_5  and  C_6
REMARK    4  A    between atoms: C_9  and  C_10
REMARK    5  A    between atoms: N_11  and  C_12
REMARK    6  A    between atoms: C_15  and  N_16
REMARK    7  A    between atoms: C_21  and  C_22
REMARK    8  A    between atoms: C_24  and  C_25
REMARK    9  A    between atoms: C_27  and  C_28
REMARK                            x       y       z     vdW  Elec       q    Type
REMARK                         _______ _______ _______ _____ _____    ______ ____
ROOT
ATOM      1  N   UNL     1       1.087  11.078  18.583  0.00  0.00    +0.000 N 
ATOM      2  C   UNL     1       1.297   9.710  18.951  0.00  0.00    +0.000 A 
ATOM      3  C   UNL     1       1.695   8.900  17.911  0.00  0.00    +0.000 A 
ATOM      4  C   UNL     1       2.442   7.770  18.220  0.00  0.00    +0.000 A 
ATOM      5  C   UNL     1       3.406   7.330  17.311  0.00  0.00    +0.000 A 
ATOM      6  C   UNL     1       4.229   6.219  17.559  0.00  0.00    +0.000 A 
ATOM      7  C   UNL     1       3.937   5.461  18.696  0.00  0.00    +0.000 A 
ATOM      8  C   UNL     1       3.012   5.936  19.661  0.00  0.00    +0.000 A 
ATOM      9  C   UNL     1       2.355   7.171  19.479  0.00  0.00    +0.000 A 
ATOM     10  C   UNL     1       1.669   7.939  20.429  0.00  0.00    +0.000 A 
ATOM     11  N   UNL     1       1.233   9.223  20.212  0.00  0.00    +0.000 NA
ATOM     12  H   UNL     1       1.666  11.303  17.771  0.00  0.00    +0.000 HD
ENDROOT
BRANCH   6  13
ATOM     13  C   UNL     1       5.387   5.973  16.669  0.00  0.00    +0.000 A 
ATOM     14  S   UNL     1       5.177   5.144  15.163  0.00  0.00    +0.000 S 
ATOM     15  C   UNL     1       6.863   5.197  14.876  0.00  0.00    +0.000 A 
ATOM     16  C   UNL     1       7.460   4.663  13.621  0.00  0.00    +0.000 C 
ATOM     17  N   UNL     1       7.574   5.751  15.827  0.00  0.00    +0.000 NA
ATOM     18  C   UNL     1       6.753   6.199  16.849  0.00  0.00    +0.000 A 
ATOM     19  C   UNL     1       7.439   6.860  17.994  0.00  0.00    +0.000 C 
ENDBRANCH   6  13
BRANCH   1  25
ATOM     20  C   UNL     1       2.093  13.248  19.203  0.00  0.00    +0.000 A 
ATOM     21  C   UNL     1       2.124  14.374  20.044  0.00  0.00    +0.000 A 
ATOM     22  C   UNL     1       1.270  14.468  21.146  0.00  0.00    +0.000 A 
ATOM     23  C   UNL     1       0.275  13.506  21.301  0.00  0.00    +0.000 A 
ATOM     24  C   UNL     1       0.216  12.400  20.453  0.00  0.00    +0.000 A 
ATOM     25  C   UNL     1       1.135  12.228  19.432  0.00  0.00    +0.000 A 
BRANCH  22  26
ATOM     26  C   UNL     1       1.488  15.541  22.134  0.00  0.00    +0.000 A 
ATOM     27  C   UNL     1       0.627  16.529  22.591  0.00  0.00    +0.000 A 
ATOM     28  N   UNL     1       1.262  17.426  23.406  0.00  0.00    +0.000 NA
ATOM     29  C   UNL     1       2.516  17.032  23.456  0.00  0.00    +0.000 A 
ATOM     30  C   UNL     1       3.607  17.731  24.184  0.00  0.00    +0.000 C 
ATOM     31  N   UNL     1       2.702  15.888  22.708  0.00  0.00    +0.000 N 
ATOM     32  C   UNL     1       3.970  15.226  22.497  0.00  0.00    +0.000 C 
ENDBRANCH  22  26
BRANCH  20  34
ATOM     33  C   UNL     1       3.919  14.146  17.977  0.00  0.00    +0.000 C 
ATOM     34  O   UNL     1       2.995  13.072  18.170  0.00  0.00    +0.000 OA
ENDBRANCH  20  34
ENDBRANCH   1  25
TORSDOF 4
ENDMDL
MODEL 7
REMARK VINA RESULT:      -7.9      6.021      8.115
REMARK  Name = 
REMARK  9 active torsions:
REMARK  status: ('A' for Active; 'I' for Inactive)
REMARK    1  A    between atoms: C_1  and  O_2
REMARK    2  A    between atoms: O_2  and  C_3
REMARK    3  A    between atoms: C_5  and  C_6
REMARK    4  A    between atoms: C_9  and  C_10
REMARK    5  A    between atoms: N_11  and  C_12
REMARK    6  A    between atoms: C_15  and  N_16
REMARK    7  A    between atoms: C_21  and  C_22
REMARK    8  A    between atoms: C_24  and  C_25
REMARK    9  A    between atoms: C_27  and  C_28
REMARK                            x       y       z     vdW  Elec       q    Type
REMARK                         _______ _______ _______ _____ _____    ______ ____
ROOT
ATOM      1  N   UNL     1       0.991  10.174  18.227  0.00  0.00    +0.000 N 
ATOM      2  C   UNL     1       1.353   8.882  18.728  0.00  0.00    +0.000 A 
ATOM      3  C   UNL     1       1.778   7.999  17.761  0.00  0.00    +0.000 A 
ATOM      4  C   UNL     1       2.648   6.986  18.147  0.00  0.00    +0.000 A 
ATOM      5  C   UNL     1       3.606   6.538  17.236  0.00  0.00    +0.000 A 
ATOM      6  C   UNL     1       4.546   5.544  17.554  0.00  0.00    +0.000 A 
ATOM      7  C   UNL     1       4.385   4.896  18.782  0.00  0.00    +0.000 A 
ATOM      8  C   UNL     1       3.465   5.389  19.741  0.00  0.00    +0.000 A 
ATOM      9  C   UNL     1       2.680   6.529  19.466  0.00  0.00    +0.000 A 
ATOM     10  C   UNL     1       1.968   7.332  20.365  0.00  0.00    +0.000 A 
ATOM     11  N   UNL     1       1.397   8.537  20.037  0.00  0.00    +0.000 NA
ATOM     12  H   UNL     1       1.506  10.358  17.363  0.00  0.00    +0.000 HD
ENDROOT
BRANCH   6  13
ATOM     13  C   UNL     1       5.679   5.307  16.630  0.00  0.00    +0.000 A 
ATOM     14  S   UNL     1       5.427   5.297  14.917  0.00  0.00    +0.000 S 
ATOM     15  C   UNL     1       7.068   4.885  14.658  0.00  0.00    +0.000 A 
ATOM     16  C   UNL     1       7.633   4.745  13.288  0.00  0.00    +0.000 C 
ATOM     17  N   UNL     1       7.780   4.720  15.746  0.00  0.00    +0.000 NA
ATOM     18  C   UNL     1       7.009   4.959  16.871  0.00  0.00    +0.000 A 
ATOM     19  C   UNL     1       7.705   4.813  18.180  0.00  0.00    +0.000 C 
ENDBRANCH   6  13
BRANCH   1  25
ATOM     20  C   UNL     1      -0.185  11.785  19.684  0.00  0.00    +0.000 A 
ATOM     21  C   UNL     1      -0.194  13.004  20.386  0.00  0.00    +0.000 A 
ATOM     22  C   UNL     1       0.888  13.885  20.304  0.00  0.00    +0.000 A 
ATOM     23  C   UNL     1       2.043  13.462  19.650  0.00  0.00    +0.000 A 
ATOM     24  C   UNL     1       2.073  12.241  18.977  0.00  0.00    +0.000 A 
ATOM     25  C   UNL     1       0.965  11.412  18.943  0.00  0.00    +0.000 A 
BRANCH  22  26
ATOM     26  C   UNL     1       0.749  15.246  20.856  0.00  0.00    +0.000 A 
ATOM     27  C   UNL     1       1.137  15.759  22.086  0.00  0.00    +0.000 A 
ATOM     28  N   UNL     1       0.694  17.040  22.269  0.00  0.00    +0.000 NA
ATOM     29  C   UNL     1       0.015  17.338  21.183  0.00  0.00    +0.000 A 
ATOM     30  C   UNL     1      -0.705  18.616  20.945  0.00  0.00    +0.000 C 
ATOM     31  N   UNL     1       0.026  16.286  20.292  0.00  0.00    +0.000 N 
ATOM     32  C   UNL     1      -0.674  16.256  19.028  0.00  0.00    +0.000 C 
ENDBRANCH  22  26
BRANCH  20  34
ATOM     33  C   UNL     1      -2.332  11.338  18.771  0.00  0.00    +0.000 C 
ATOM     34  O   UNL     1      -1.279  10.942  19.655  0.00  0.00    +0.000 OA
ENDBRANCH  20  34
ENDBRANCH   1  25
TORSDOF 4
ENDMDL
MODEL 8
REMARK VINA RESULT:      -7.8      5.930      8.089
REMARK  Name = 
REMARK  9 active torsions:
REMARK  status: ('A' for Active; 'I' for Inactive)
REMARK    1  A    between atoms: C_1  and  O_2
REMARK    2  A    between atoms: O_2  and  C_3
REMARK    3  A    between atoms: C_5  and  C_6
REMARK    4  A    between atoms: C_9  and  C_10
REMARK    5  A    between atoms: N_11  and  C_12
REMARK    6  A    between atoms: C_15  and  N_16
REMARK    7  A    between atoms: C_21  and  C_22
REMARK    8  A    between atoms: C_24  and  C_25
REMARK    9  A    between atoms: C_27  and  C_28
REMARK                            x       y       z     vdW  Elec       q    Type
REMARK                         _______ _______ _______ _____ _____    ______ ____
ROOT
ATOM      1  N   UNL     1       1.051  10.814  18.554  0.00  0.00    +0.000 N 
ATOM      2  C   UNL     1       1.322   9.462  18.942  0.00  0.00    +0.000 A 
ATOM      3  C   UNL     1       1.689   8.639  17.902  0.00  0.00    +0.000 A 
ATOM      4  C   UNL     1       2.487   7.540  18.197  0.00  0.00    +0.000 A 
ATOM      5  C   UNL     1       3.415   7.106  17.248  0.00  0.00    +0.000 A 
ATOM      6  C   UNL     1       4.284   6.027  17.478  0.00  0.00    +0.000 A 
ATOM      7  C   UNL     1       4.075   5.289  18.646  0.00  0.00    +0.000 A 
ATOM      8  C   UNL     1       3.188   5.760  19.647  0.00  0.00    +0.000 A 
ATOM      9  C   UNL     1       2.484   6.970  19.472  0.00  0.00    +0.000 A 
ATOM     10  C   UNL     1       1.825   7.740  20.438  0.00  0.00    +0.000 A 
ATOM     11  N   UNL     1       1.338   9.005  20.216  0.00  0.00    +0.000 NA
ATOM     12  H   UNL     1       1.579  11.036  17.707  0.00  0.00    +0.000 HD
ENDROOT
BRANCH   6  13
ATOM     13  C   UNL     1       5.401   5.794  16.534  0.00  0.00    +0.000 A 
ATOM     14  S   UNL     1       5.160   4.845  15.105  0.00  0.00    +0.000 S 
ATOM     15  C   UNL     1       6.818   4.988  14.706  0.00  0.00    +0.000 A 
ATOM     16  C   UNL     1       7.375   4.404  13.456  0.00  0.00    +0.000 C 
ATOM     17  N   UNL     1       7.544   5.656  15.570  0.00  0.00    +0.000 NA
ATOM     18  C   UNL     1       6.756   6.122  16.609  0.00  0.00    +0.000 A 
ATOM     19  C   UNL     1       7.461   6.907  17.659  0.00  0.00    +0.000 C 
ENDBRANCH   6  13
BRANCH   1  25
ATOM     20  C   UNL     1       0.202  12.146  20.453  0.00  0.00    +0.000 A 
ATOM     21  C   UNL     1       0.272  13.301  21.251  0.00  0.00    +0.000 A 
ATOM     22  C   UNL     1       1.174  14.326  20.950  0.00  0.00    +0.000 A 
ATOM     23  C   UNL     1       2.115  14.111  19.946  0.00  0.00    +0.000 A 
ATOM     24  C   UNL     1       2.074  12.954  19.168  0.00  0.00    +0.000 A 
ATOM     25  C   UNL     1       1.106  11.985  19.372  0.00  0.00    +0.000 A 
BRANCH  22  26
ATOM     26  C   UNL     1       1.060  15.615  21.660  0.00  0.00    +0.000 A 
ATOM     27  C   UNL     1       1.846  16.156  22.667  0.00  0.00    +0.000 A 
ATOM     28  N   UNL     1       1.317  17.317  23.160  0.00  0.00    +0.000 NA
ATOM     29  C   UNL     1       0.199  17.508  22.494  0.00  0.00    +0.000 A 
ATOM     30  C   UNL     1      -0.756  18.624  22.722  0.00  0.00    +0.000 C 
ATOM     31  N   UNL     1       0.003  16.507  21.567  0.00  0.00    +0.000 N 
ATOM     32  C   UNL     1      -1.156  16.377  20.711  0.00  0.00    +0.000 C 
ENDBRANCH  22  26
BRANCH  20  34
ATOM     33  C   UNL     1      -1.028  10.860  22.025  0.00  0.00    +0.000 C 
ATOM     34  O   UNL     1      -0.749  11.165  20.656  0.00  0.00    +0.000 OA
ENDBRANCH  20  34
ENDBRANCH   1  25
TORSDOF 4
ENDMDL
MODEL 9
REMARK VINA RESULT:      -7.8      5.584      7.635
REMARK  Name = 
REMARK  9 active torsions:
REMARK  status: ('A' for Active; 'I' for Inactive)
REMARK    1  A    between atoms: C_1  and  O_2
REMARK    2  A    between atoms: O_2  and  C_3
REMARK    3  A    between atoms: C_5  and  C_6
REMARK    4  A    between atoms: C_9  and  C_10
REMARK    5  A    between atoms: N_11  and  C_12
REMARK    6  A    between atoms: C_15  and  N_16
REMARK    7  A    between atoms: C_21  and  C_22
REMARK    8  A    between atoms: C_24  and  C_25
REMARK    9  A    between atoms: C_27  and  C_28
REMARK                            x       y       z     vdW  Elec       q    Type
REMARK                         _______ _______ _______ _____ _____    ______ ____
ROOT
ATOM      1  N   UNL     1       1.196  11.142  18.602  0.00  0.00    +0.000 N 
ATOM      2  C   UNL     1       1.372   9.772  18.980  0.00  0.00    +0.000 A 
ATOM      3  C   UNL     1       1.708   8.937  17.939  0.00  0.00    +0.000 A 
ATOM      4  C   UNL     1       2.428   7.786  18.237  0.00  0.00    +0.000 A 
ATOM      5  C   UNL     1       3.345   7.304  17.302  0.00  0.00    +0.000 A 
ATOM      6  C   UNL     1       4.139   6.170  17.537  0.00  0.00    +0.000 A 
ATOM      7  C   UNL     1       3.861   5.435  18.692  0.00  0.00    +0.000 A 
ATOM      8  C   UNL     1       2.985   5.952  19.680  0.00  0.00    +0.000 A 
ATOM      9  C   UNL     1       2.363   7.205  19.505  0.00  0.00    +0.000 A 
ATOM     10  C   UNL     1       1.735   8.007  20.467  0.00  0.00    +0.000 A 
ATOM     11  N   UNL     1       1.334   9.302  20.249  0.00  0.00    +0.000 NA
ATOM     12  H   UNL     1       1.754  11.338  17.769  0.00  0.00    +0.000 HD
ENDROOT
BRANCH   6  13
ATOM     13  C   UNL     1       5.258   5.875  16.612  0.00  0.00    +0.000 A 
ATOM     14  S   UNL     1       5.016   4.845  15.241  0.00  0.00    +0.000 S 
ATOM     15  C   UNL     1       6.676   4.955  14.840  0.00  0.00    +0.000 A 
ATOM     16  C   UNL     1       7.234   4.295  13.628  0.00  0.00    +0.000 C 
ATOM     17  N   UNL     1       7.403   5.669  15.664  0.00  0.00    +0.000 NA
ATOM     18  C   UNL     1       6.615   6.200  16.671  0.00  0.00    +0.000 A 
ATOM     19  C   UNL     1       7.321   7.043  17.676  0.00  0.00    +0.000 C 
ENDBRANCH   6  13
BRANCH   1  25
ATOM     20  C   UNL     1       0.300  12.599  20.385  0.00  0.00    +0.000 A 
ATOM     21  C   UNL     1       0.428  13.737  21.199  0.00  0.00    +0.000 A 
ATOM     22  C   UNL     1       1.501  14.618  21.035  0.00  0.00    +0.000 A 
ATOM     23  C   UNL     1       2.528  14.260  20.165  0.00  0.00    +0.000 A 
ATOM     24  C   UNL     1       2.425  13.116  19.375  0.00  0.00    +0.000 A 
ATOM     25  C   UNL     1       1.309  12.299  19.435  0.00  0.00    +0.000 A 
BRANCH  22  26
ATOM     26  C   UNL     1       1.480  15.915  21.738  0.00  0.00    +0.000 A 
ATOM     27  C   UNL     1       0.568  16.959  21.666  0.00  0.00    +0.000 A 
ATOM     28  N   UNL     1       0.987  18.054  22.370  0.00  0.00    +0.000 NA
ATOM     29  C   UNL     1       2.159  17.726  22.870  0.00  0.00    +0.000 A 
ATOM     30  C   UNL     1       3.031  18.623  23.673  0.00  0.00    +0.000 C 
ATOM     31  N   UNL     1       2.498  16.436  22.522  0.00  0.00    +0.000 N 
ATOM     32  C   UNL     1       3.744  15.782  22.853  0.00  0.00    +0.000 C 
ENDBRANCH  22  26
BRANCH  20  34
ATOM     33  C   UNL     1      -1.298  11.506  21.762  0.00  0.00    +0.000 C 
ATOM     34  O   UNL     1      -0.802  11.767  20.447  0.00  0.00    +0.000 OA
ENDBRANCH  20  34
ENDBRANCH   1  25
TORSDOF 4
ENDMDL
