MODEL 1
REMARK VINA RESULT:      -7.1      0.000      0.000
REMARK  Name = 
REMARK  0 active torsions:
REMARK  status: ('A' for Active; 'I' for Inactive)
REMARK                            x       y       z     vdW  Elec       q    Type
REMARK                         _______ _______ _______ _____ _____    ______ ____
ROOT
ATOM      1 CL   UNL     1       2.348   7.315  19.514  0.00  0.00    +0.000 Cl
ATOM      2  C   UNL     1       2.816   5.775  18.876  0.00  0.00    +0.000 A 
ATOM      3  C   UNL     1       2.261   4.635  19.428  0.00  0.00    +0.000 A 
ATOM      4  C   UNL     1       2.638   3.413  18.920  0.00  0.00    +0.000 A 
ATOM      5  N   UNL     1       3.501   3.240  17.907  0.00  0.00    +0.000 NA
ATOM      6  C   UNL     1       4.019   4.347  17.347  0.00  0.00    +0.000 A 
ATOM      7  C   UNL     1       4.868   4.188  16.259  0.00  0.00    +0.000 A 
ATOM      8  C   UNL     1       5.427   5.279  15.591  0.00  0.00    +0.000 A 
ATOM      9  C   UNL     1       5.156   6.567  16.029  0.00  0.00    +0.000 A 
ATOM     10  C   UNL     1       4.319   6.758  17.128  0.00  0.00    +0.000 A 
ATOM     11  C   UNL     1       3.722   5.658  17.794  0.00  0.00    +0.000 A 
ATOM     12  C   UNL     1       1.940   2.276  19.598  0.00  0.00    +0.000 C 
ATOM     13  C   UNL     1       1.043   2.979  20.625  0.00  0.00    +0.000 C 
ATOM     14  C   UNL     1       1.243   4.498  20.506  0.00  0.00    +0.000 C 
ENDROOT
TORSDOF 0
ENDMDL
MODEL 2
REMARK VINA RESULT:      -7.1      0.792      4.414
REMARK  Name = 
REMARK  0 active torsions:
REMARK  status: ('A' for Active; 'I' for Inactive)
REMARK                            x       y       z     vdW  Elec       q    Type
REMARK                         _______ _______ _______ _____ _____    ______ ____
ROOT
ATOM      1 CL   UNL     1       2.873   7.389  18.274  0.00  0.00    +0.000 Cl
ATOM      2  C   UNL     1       3.264   5.720  18.033  0.00  0.00    +0.000 A 
ATOM      3  C   UNL     1       4.220   5.395  17.086  0.00  0.00    +0.000 A 
ATOM      4  C   UNL     1       4.525   4.067  16.896  0.00  0.00    +0.000 A 
ATOM      5  N   UNL     1       3.974   3.050  17.577  0.00  0.00    +0.000 NA
ATOM      6  C   UNL     1       3.068   3.364  18.520  0.00  0.00    +0.000 A 
ATOM      7  C   UNL     1       2.531   2.329  19.274  0.00  0.00    +0.000 A 
ATOM      8  C   UNL     1       1.609   2.560  20.297  0.00  0.00    +0.000 A 
ATOM      9  C   UNL     1       1.188   3.854  20.566  0.00  0.00    +0.000 A 
ATOM     10  C   UNL     1       1.698   4.912  19.814  0.00  0.00    +0.000 A 
ATOM     11  C   UNL     1       2.658   4.692  18.794  0.00  0.00    +0.000 A 
ATOM     12  C   UNL     1       5.589   3.872  15.862  0.00  0.00    +0.000 C 
ATOM     13  C   UNL     1       5.920   5.305  15.425  0.00  0.00    +0.000 C 
ATOM     14  C   UNL     1       5.045   6.284  16.223  0.00  0.00    +0.000 C 
ENDROOT
TORSDOF 0
ENDMDL
MODEL 3
REMARK VINA RESULT:      -7.0      1.607      4.595
REMARK  Name = 
REMARK  0 active torsions:
REMARK  status: ('A' for Active; 'I' for Inactive)
REMARK                            x       y       z     vdW  Elec       q    Type
REMARK                         _______ _______ _______ _____ _____    ______ ____
ROOT
ATOM      1 CL   UNL     1       2.618   7.203  18.019  0.00  0.00    +0.000 Cl
ATOM      2  C   UNL     1       3.569   5.830  18.476  0.00  0.00    +0.000 A 
ATOM      3  C   UNL     1       4.885   5.767  18.055  0.00  0.00    +0.000 A 
ATOM      4  C   UNL     1       5.636   4.673  18.419  0.00  0.00    +0.000 A 
ATOM      5  N   UNL     1       5.190   3.657  19.175  0.00  0.00    +0.000 NA
ATOM      6  C   UNL     1       3.920   3.730  19.612  0.00  0.00    +0.000 A 
ATOM      7  C   UNL     1       3.462   2.716  20.442  0.00  0.00    +0.000 A 
ATOM      8  C   UNL     1       2.170   2.722  20.974  0.00  0.00    +0.000 A 
ATOM      9  C   UNL     1       1.298   3.752  20.652  0.00  0.00    +0.000 A 
ATOM     10  C   UNL     1       1.726   4.776  19.808  0.00  0.00    +0.000 A 
ATOM     11  C   UNL     1       3.045   4.796  19.288  0.00  0.00    +0.000 A 
ATOM     12  C   UNL     1       7.041   4.756  17.913  0.00  0.00    +0.000 C 
ATOM     13  C   UNL     1       7.067   6.096  17.167  0.00  0.00    +0.000 C 
ATOM     14  C   UNL     1       5.680   6.750  17.269  0.00  0.00    +0.000 C 
ENDROOT
TORSDOF 0
ENDMDL
MODEL 4
REMARK VINA RESULT:      -6.8      1.879      2.600
REMARK  Name = 
REMARK  0 active torsions:
REMARK  status: ('A' for Active; 'I' for Inactive)
REMARK                            x       y       z     vdW  Elec       q    Type
REMARK                         _______ _______ _______ _____ _____    ______ ____
ROOT
ATOM      1 CL   UNL     1       3.764   1.563  17.698  0.00  0.00    +0.000 Cl
ATOM      2  C   UNL     1       3.450   3.217  18.103  0.00  0.00    +0.000 A 
ATOM      3  C   UNL     1       2.639   3.489  19.190  0.00  0.00    +0.000 A 
ATOM      4  C   UNL     1       2.391   4.805  19.506  0.00  0.00    +0.000 A 
ATOM      5  N   UNL     1       2.894   5.858  18.843  0.00  0.00    +0.000 NA
ATOM      6  C   UNL     1       3.708   5.598  17.805  0.00  0.00    +0.000 A 
ATOM      7  C   UNL     1       4.282   6.676  17.145  0.00  0.00    +0.000 A 
ATOM      8  C   UNL     1       5.167   6.504  16.078  0.00  0.00    +0.000 A 
ATOM      9  C   UNL     1       5.472   5.226  15.635  0.00  0.00    +0.000 A 
ATOM     10  C   UNL     1       4.897   4.124  16.269  0.00  0.00    +0.000 A 
ATOM     11  C   UNL     1       4.023   4.286  17.373  0.00  0.00    +0.000 A 
ATOM     12  C   UNL     1       1.521   4.943  20.715  0.00  0.00    +0.000 C 
ATOM     13  C   UNL     1       1.258   3.489  21.127  0.00  0.00    +0.000 C 
ATOM     14  C   UNL     1       1.989   2.554  20.149  0.00  0.00    +0.000 C 
ENDROOT
TORSDOF 0
ENDMDL
MODEL 5
REMARK VINA RESULT:      -6.7      1.591      4.376
REMARK  Name = 
REMARK  0 active torsions:
REMARK  status: ('A' for Active; 'I' for Inactive)
REMARK                            x       y       z     vdW  Elec       q    Type
REMARK                         _______ _______ _______ _____ _____    ______ ____
ROOT
ATOM      1 CL   UNL     1       2.912   7.411  17.883  0.00  0.00    +0.000 Cl
ATOM      2  C   UNL     1       3.742   5.899  17.729  0.00  0.00    +0.000 A 
ATOM      3  C   UNL     1       5.100   5.915  17.464  0.00  0.00    +0.000 A 
ATOM      4  C   UNL     1       5.754   4.711  17.340  0.00  0.00    +0.000 A 
ATOM      5  N   UNL     1       5.175   3.508  17.473  0.00  0.00    +0.000 NA
ATOM      6  C   UNL     1       3.861   3.489  17.761  0.00  0.00    +0.000 A 
ATOM      7  C   UNL     1       3.259   2.254  17.960  0.00  0.00    +0.000 A 
ATOM      8  C   UNL     1       1.909   2.135  18.297  0.00  0.00    +0.000 A 
ATOM      9  C   UNL     1       1.126   3.273  18.416  0.00  0.00    +0.000 A 
ATOM     10  C   UNL     1       1.700   4.527  18.206  0.00  0.00    +0.000 A 
ATOM     11  C   UNL     1       3.077   4.661  17.895  0.00  0.00    +0.000 A 
ATOM     12  C   UNL     1       7.217   4.885  17.078  0.00  0.00    +0.000 C 
ATOM     13  C   UNL     1       7.392   6.410  17.064  0.00  0.00    +0.000 C 
ATOM     14  C   UNL     1       6.028   7.070  17.323  0.00  0.00    +0.000 C 
ENDROOT
TORSDOF 0
ENDMDL
MODEL 6
REMARK VINA RESULT:      -6.6      2.694      4.846
REMARK  Name = 
REMARK  0 active torsions:
REMARK  status: ('A' for Active; 'I' for Inactive)
REMARK                            x       y       z     vdW  Elec       q    Type
REMARK                         _______ _______ _______ _____ _____    ______ ____
ROOT
ATOM      1 CL   UNL     1       4.842   6.063  15.478  0.00  0.00    +0.000 Cl
ATOM      2  C   UNL     1       5.217   5.327  17.000  0.00  0.00    +0.000 A 
ATOM      3  C   UNL     1       6.301   5.803  17.715  0.00  0.00    +0.000 A 
ATOM      4  C   UNL     1       6.596   5.214  18.923  0.00  0.00    +0.000 A 
ATOM      5  N   UNL     1       5.896   4.211  19.476  0.00  0.00    +0.000 NA
ATOM      6  C   UNL     1       4.823   3.766  18.798  0.00  0.00    +0.000 A 
ATOM      7  C   UNL     1       4.054   2.769  19.383  0.00  0.00    +0.000 A 
ATOM      8  C   UNL     1       2.902   2.268  18.772  0.00  0.00    +0.000 A 
ATOM      9  C   UNL     1       2.515   2.752  17.531  0.00  0.00    +0.000 A 
ATOM     10  C   UNL     1       3.277   3.743  16.912  0.00  0.00    +0.000 A 
ATOM     11  C   UNL     1       4.430   4.281  17.538  0.00  0.00    +0.000 A 
ATOM     12  C   UNL     1       7.776   5.847  19.590  0.00  0.00    +0.000 C 
ATOM     13  C   UNL     1       8.184   6.952  18.607  0.00  0.00    +0.000 C 
ATOM     14  C   UNL     1       7.226   6.928  17.405  0.00  0.00    +0.000 C 
ENDROOT
TORSDOF 0
ENDMDL
MODEL 7
REMARK VINA RESULT:      -6.6      1.980      4.984
REMARK  Name = 
REMARK  0 active torsions:
REMARK  status: ('A' for Active; 'I' for Inactive)
REMARK                            x       y       z     vdW  Elec       q    Type
REMARK                         _______ _______ _______ _____ _____    ______ ____
ROOT
ATOM      1 CL   UNL     1       3.719   1.892  17.748  0.00  0.00    +0.000 Cl
ATOM      2  C   UNL     1       3.734   3.620  17.849  0.00  0.00    +0.000 A 
ATOM      3  C   UNL     1       4.467   4.330  16.915  0.00  0.00    +0.000 A 
ATOM      4  C   UNL     1       4.477   5.704  17.000  0.00  0.00    +0.000 A 
ATOM      5  N   UNL     1       3.810   6.418  17.920  0.00  0.00    +0.000 NA
ATOM      6  C   UNL     1       3.071   5.732  18.810  0.00  0.00    +0.000 A 
ATOM      7  C   UNL     1       2.329   6.458  19.732  0.00  0.00    +0.000 A 
ATOM      8  C   UNL     1       1.505   5.836  20.673  0.00  0.00    +0.000 A 
ATOM      9  C   UNL     1       1.435   4.452  20.718  0.00  0.00    +0.000 A 
ATOM     10  C   UNL     1       2.182   3.696  19.814  0.00  0.00    +0.000 A 
ATOM     11  C   UNL     1       2.996   4.318  18.835  0.00  0.00    +0.000 A 
ATOM     12  C   UNL     1       5.290   6.333  15.913  0.00  0.00    +0.000 C 
ATOM     13  C   UNL     1       5.795   5.128  15.109  0.00  0.00    +0.000 C 
ATOM     14  C   UNL     1       5.254   3.840  15.750  0.00  0.00    +0.000 C 
ENDROOT
TORSDOF 0
ENDMDL
MODEL 8
REMARK VINA RESULT:      -6.5      2.032      4.513
REMARK  Name = 
REMARK  0 active torsions:
REMARK  status: ('A' for Active; 'I' for Inactive)
REMARK                            x       y       z     vdW  Elec       q    Type
REMARK                         _______ _______ _______ _____ _____    ______ ____
ROOT
ATOM      1 CL   UNL     1       3.256   7.414  17.075  0.00  0.00    +0.000 Cl
ATOM      2  C   UNL     1       4.098   6.068  17.764  0.00  0.00    +0.000 A 
ATOM      3  C   UNL     1       5.473   6.143  17.891  0.00  0.00    +0.000 A 
ATOM      4  C   UNL     1       6.138   5.069  18.438  0.00  0.00    +0.000 A 
ATOM      5  N   UNL     1       5.547   3.947  18.877  0.00  0.00    +0.000 NA
ATOM      6  C   UNL     1       4.207   3.883  18.784  0.00  0.00    +0.000 A 
ATOM      7  C   UNL     1       3.575   2.754  19.288  0.00  0.00    +0.000 A 
ATOM      8  C   UNL     1       2.186   2.612  19.267  0.00  0.00    +0.000 A 
ATOM      9  C   UNL     1       1.400   3.609  18.708  0.00  0.00    +0.000 A 
ATOM     10  C   UNL     1       2.008   4.748  18.180  0.00  0.00    +0.000 A 
ATOM     11  C   UNL     1       3.415   4.916  18.224  0.00  0.00    +0.000 A 
ATOM     12  C   UNL     1       7.613   5.303  18.533  0.00  0.00    +0.000 C 
ATOM     13  C   UNL     1       7.781   6.717  17.961  0.00  0.00    +0.000 C 
ATOM     14  C   UNL     1       6.400   7.259  17.559  0.00  0.00    +0.000 C 
ENDROOT
TORSDOF 0
ENDMDL
MODEL 9
REMARK VINA RESULT:      -6.5      1.600      1.600
REMARK  Name = 
REMARK  0 active torsions:
REMARK  status: ('A' for Active; 'I' for Inactive)
REMARK                            x       y       z     vdW  Elec       q    Type
REMARK                         _______ _______ _______ _____ _____    ______ ____
ROOT
ATOM      1 CL   UNL     1       2.187   6.963  18.155  0.00  0.00    +0.000 Cl
ATOM      2  C   UNL     1       3.310   5.727  18.611  0.00  0.00    +0.000 A 
ATOM      3  C   UNL     1       2.856   4.674  19.385  0.00  0.00    +0.000 A 
ATOM      4  C   UNL     1       3.753   3.695  19.747  0.00  0.00    +0.000 A 
ATOM      5  N   UNL     1       5.047   3.675  19.391  0.00  0.00    +0.000 NA
ATOM      6  C   UNL     1       5.485   4.681  18.613  0.00  0.00    +0.000 A 
ATOM      7  C   UNL     1       6.806   4.644  18.187  0.00  0.00    +0.000 A 
ATOM      8  C   UNL     1       7.342   5.625  17.350  0.00  0.00    +0.000 A 
ATOM      9  C   UNL     1       6.551   6.689  16.942  0.00  0.00    +0.000 A 
ATOM     10  C   UNL     1       5.224   6.761  17.367  0.00  0.00    +0.000 A 
ATOM     11  C   UNL     1       4.661   5.754  18.191  0.00  0.00    +0.000 A 
ATOM     12  C   UNL     1       3.115   2.613  20.559  0.00  0.00    +0.000 C 
ATOM     13  C   UNL     1       1.650   3.060  20.650  0.00  0.00    +0.000 C 
ATOM     14  C   UNL     1       1.484   4.381  19.883  0.00  0.00    +0.000 C 
ENDROOT
TORSDOF 0
ENDMDL
