MODEL 1
REMARK VINA RESULT:      -8.0      0.000      0.000
REMARK  Name = 
REMARK  7 active torsions:
REMARK  status: ('A' for Active; 'I' for Inactive)
REMARK    1  A    between atoms: C_1  and  O_2
REMARK    2  A    between atoms: O_2  and  C_3
REMARK    3  A    between atoms: C_12  and  O_13
REMARK    4  A    between atoms: C_15  and  O_16
REMARK    5  A    between atoms: O_16  and  C_17
REMARK    6  A    between atoms: C_19  and  N_20
REMARK    7  A    between atoms: C_25  and  C_26
REMARK                            x       y       z     vdW  Elec       q    Type
REMARK                         _______ _______ _______ _____ _____    ______ ____
ROOT
ATOM      1  C   UNL     1      -1.029  13.611  22.663  0.00  0.00    +0.000 A 
ATOM      2  C   UNL     1      -0.646  14.267  21.497  0.00  0.00    +0.000 A 
ATOM      3  C   UNL     1      -0.092  13.545  20.428  0.00  0.00    +0.000 A 
ATOM      4  C   UNL     1       0.091  12.167  20.492  0.00  0.00    +0.000 A 
ATOM      5  N   UNL     1       0.646  11.518  19.454  0.00  0.00    +0.000 NA
ATOM      6  C   UNL     1       0.818  10.192  19.570  0.00  0.00    +0.000 A 
ATOM      7  N   UNL     1       1.485   9.550  18.542  0.00  0.00    +0.000 N 
ATOM      8  C   UNL     1       2.114   8.320  18.605  0.00  0.00    +0.000 A 
ATOM      9  N   UNL     1       3.065   8.098  17.705  0.00  0.00    +0.000 NA
ATOM     10  C   UNL     1       3.693   6.912  17.788  0.00  0.00    +0.000 A 
ATOM     11  C   UNL     1       3.447   5.864  18.705  0.00  0.00    +0.000 A 
ATOM     12  C   UNL     1       4.020   4.555  18.896  0.00  0.00    +0.000 A 
ATOM     13  C   UNL     1       3.547   3.730  19.938  0.00  0.00    +0.000 A 
ATOM     14  C   UNL     1       2.514   4.119  20.774  0.00  0.00    +0.000 A 
ATOM     15  C   UNL     1       2.014   5.403  20.612  0.00  0.00    +0.000 A 
ATOM     16  C   UNL     1       2.431   6.246  19.589  0.00  0.00    +0.000 A 
ATOM     17  N   UNL     1       1.798   7.417  19.534  0.00  0.00    +0.000 NA
ATOM     18  N   UNL     1       0.428   9.496  20.639  0.00  0.00    +0.000 NA
ATOM     19  C   UNL     1      -0.112  10.142  21.678  0.00  0.00    +0.000 A 
ATOM     20  C   UNL     1      -0.453   9.273  22.850  0.00  0.00    +0.000 C 
ATOM     21  C   UNL     1      -0.306  11.515  21.662  0.00  0.00    +0.000 A 
ATOM     22  C   UNL     1      -0.859  12.236  22.741  0.00  0.00    +0.000 A 
ATOM     23  H   UNL     1       1.887  10.182  17.877  0.00  0.00    +0.000 HD
ENDROOT
BRANCH  14  24
ATOM     24  N   UNL     1       2.157   3.340  21.879  0.00  0.00    +0.000 N 
ATOM     25  H   UNL     1       2.102   3.859  22.751  0.00  0.00    +0.000 HD
ATOM     26  H   UNL     1       2.693   2.483  21.976  0.00  0.00    +0.000 HD
ENDBRANCH  14  24
BRANCH   1  28
ATOM     27  C   UNL     1      -2.893  14.113  24.038  0.00  0.00    +0.000 C 
ATOM     28  O   UNL     1      -1.551  14.398  23.652  0.00  0.00    +0.000 OA
ENDBRANCH   1  28
BRANCH  10  29
ATOM     29  O   UNL     1       4.655   6.874  16.840  0.00  0.00    +0.000 OA
ATOM     30  H   UNL     1       4.493   5.986  16.473  0.00  0.00    +0.000 HD
ENDBRANCH  10  29
BRANCH  12  31
ATOM     31  O   UNL     1       5.003   3.885  18.223  0.00  0.00    +0.000 OA
ATOM     32  C   UNL     1       4.877   3.532  16.865  0.00  0.00    +0.000 C 
ENDBRANCH  12  31
TORSDOF 4
ENDMDL
MODEL 2
REMARK VINA RESULT:      -7.8      1.023      1.094
REMARK  Name = 
REMARK  7 active torsions:
REMARK  status: ('A' for Active; 'I' for Inactive)
REMARK    1  A    between atoms: C_1  and  O_2
REMARK    2  A    between atoms: O_2  and  C_3
REMARK    3  A    between atoms: C_12  and  O_13
REMARK    4  A    between atoms: C_15  and  O_16
REMARK    5  A    between atoms: O_16  and  C_17
REMARK    6  A    between atoms: C_19  and  N_20
REMARK    7  A    between atoms: C_25  and  C_26
REMARK                            x       y       z     vdW  Elec       q    Type
REMARK                         _______ _______ _______ _____ _____    ______ ____
ROOT
ATOM      1  C   UNL     1      -1.074  12.781  22.416  0.00  0.00    +0.000 A 
ATOM      2  C   UNL     1      -0.714  13.570  21.328  0.00  0.00    +0.000 A 
ATOM      3  C   UNL     1      -0.072  12.996  20.219  0.00  0.00    +0.000 A 
ATOM      4  C   UNL     1       0.223  11.637  20.166  0.00  0.00    +0.000 A 
ATOM      5  N   UNL     1       0.859  11.133  19.095  0.00  0.00    +0.000 NA
ATOM      6  C   UNL     1       1.137   9.820  19.098  0.00  0.00    +0.000 A 
ATOM      7  N   UNL     1       1.884   9.331  18.041  0.00  0.00    +0.000 N 
ATOM      8  C   UNL     1       2.610   8.154  18.016  0.00  0.00    +0.000 A 
ATOM      9  N   UNL     1       3.602   8.093  17.134  0.00  0.00    +0.000 NA
ATOM     10  C   UNL     1       4.322   6.959  17.133  0.00  0.00    +0.000 A 
ATOM     11  C   UNL     1       4.139   5.815  17.943  0.00  0.00    +0.000 A 
ATOM     12  C   UNL     1       4.813   4.543  18.037  0.00  0.00    +0.000 A 
ATOM     13  C   UNL     1       4.382   3.591  18.984  0.00  0.00    +0.000 A 
ATOM     14  C   UNL     1       3.297   3.817  19.814  0.00  0.00    +0.000 A 
ATOM     15  C   UNL     1       2.697   5.067  19.750  0.00  0.00    +0.000 A 
ATOM     16  C   UNL     1       3.071   6.031  18.822  0.00  0.00    +0.000 A 
ATOM     17  N   UNL     1       2.344   7.147  18.849  0.00  0.00    +0.000 NA
ATOM     18  N   UNL     1       0.777   8.999  20.086  0.00  0.00    +0.000 NA
ATOM     19  C   UNL     1       0.155   9.502  21.159  0.00  0.00    +0.000 A 
ATOM     20  C   UNL     1      -0.145   8.505  22.236  0.00  0.00    +0.000 C 
ATOM     21  C   UNL     1      -0.151  10.851  21.259  0.00  0.00    +0.000 A 
ATOM     22  C   UNL     1      -0.792  11.423  22.377  0.00  0.00    +0.000 A 
ATOM     23  H   UNL     1       2.250  10.052  17.450  0.00  0.00    +0.000 HD
ENDROOT
BRANCH  14  24
ATOM     24  N   UNL     1       2.975   2.914  20.831  0.00  0.00    +0.000 N 
ATOM     25  H   UNL     1       3.772   2.405  21.201  0.00  0.00    +0.000 HD
ATOM     26  H   UNL     1       2.196   2.300  20.612  0.00  0.00    +0.000 HD
ENDBRANCH  14  24
BRANCH   1  28
ATOM     27  C   UNL     1      -1.168  14.717  23.780  0.00  0.00    +0.000 C 
ATOM     28  O   UNL     1      -1.686  13.430  23.453  0.00  0.00    +0.000 OA
ENDBRANCH   1  28
BRANCH  10  29
ATOM     29  O   UNL     1       5.311   7.085  16.220  0.00  0.00    +0.000 OA
ATOM     30  H   UNL     1       5.786   7.851  16.593  0.00  0.00    +0.000 HD
ENDBRANCH  10  29
BRANCH  12  31
ATOM     31  O   UNL     1       5.867   4.019  17.342  0.00  0.00    +0.000 OA
ATOM     32  C   UNL     1       7.174   4.531  17.462  0.00  0.00    +0.000 C 
ENDBRANCH  12  31
TORSDOF 4
ENDMDL
MODEL 3
REMARK VINA RESULT:      -7.7      1.149      1.259
REMARK  Name = 
REMARK  7 active torsions:
REMARK  status: ('A' for Active; 'I' for Inactive)
REMARK    1  A    between atoms: C_1  and  O_2
REMARK    2  A    between atoms: O_2  and  C_3
REMARK    3  A    between atoms: C_12  and  O_13
REMARK    4  A    between atoms: C_15  and  O_16
REMARK    5  A    between atoms: O_16  and  C_17
REMARK    6  A    between atoms: C_19  and  N_20
REMARK    7  A    between atoms: C_25  and  C_26
REMARK                            x       y       z     vdW  Elec       q    Type
REMARK                         _______ _______ _______ _____ _____    ______ ____
ROOT
ATOM      1  C   UNL     1      -0.118  13.498  21.740  0.00  0.00    +0.000 A 
ATOM      2  C   UNL     1       0.456  13.946  20.555  0.00  0.00    +0.000 A 
ATOM      3  C   UNL     1       0.959  13.027  19.620  0.00  0.00    +0.000 A 
ATOM      4  C   UNL     1       0.902  11.654  19.839  0.00  0.00    +0.000 A 
ATOM      5  N   UNL     1       1.415  10.810  18.927  0.00  0.00    +0.000 NA
ATOM      6  C   UNL     1       1.352   9.496  19.191  0.00  0.00    +0.000 A 
ATOM      7  N   UNL     1       1.976   8.642  18.300  0.00  0.00    +0.000 N 
ATOM      8  C   UNL     1       2.382   7.343  18.544  0.00  0.00    +0.000 A 
ATOM      9  N   UNL     1       3.347   6.870  17.763  0.00  0.00    +0.000 NA
ATOM     10  C   UNL     1       3.757   5.617  18.022  0.00  0.00    +0.000 A 
ATOM     11  C   UNL     1       3.270   4.734  19.013  0.00  0.00    +0.000 A 
ATOM     12  C   UNL     1       3.597   3.380  19.388  0.00  0.00    +0.000 A 
ATOM     13  C   UNL     1       2.916   2.767  20.459  0.00  0.00    +0.000 A 
ATOM     14  C   UNL     1       1.903   3.409  21.152  0.00  0.00    +0.000 A 
ATOM     15  C   UNL     1       1.641   4.729  20.817  0.00  0.00    +0.000 A 
ATOM     16  C   UNL     1       2.269   5.371  19.757  0.00  0.00    +0.000 A 
ATOM     17  N   UNL     1       1.849   6.614  19.526  0.00  0.00    +0.000 NA
ATOM     18  N   UNL     1       0.771   8.998  20.284  0.00  0.00    +0.000 NA
ATOM     19  C   UNL     1       0.271   9.837  21.198  0.00  0.00    +0.000 A 
ATOM     20  C   UNL     1      -0.299   9.174  22.415  0.00  0.00    +0.000 C 
ATOM     21  C   UNL     1       0.313  11.213  21.027  0.00  0.00    +0.000 A 
ATOM     22  C   UNL     1      -0.189  12.131  21.971  0.00  0.00    +0.000 A 
ATOM     23  H   UNL     1       2.527   9.122  17.615  0.00  0.00    +0.000 HD
ENDROOT
BRANCH  14  24
ATOM     24  N   UNL     1       1.338   2.829  22.292  0.00  0.00    +0.000 N 
ATOM     25  H   UNL     1       1.049   3.499  22.998  0.00  0.00    +0.000 HD
ATOM     26  H   UNL     1       1.883   2.067  22.686  0.00  0.00    +0.000 HD
ENDBRANCH  14  24
BRANCH   1  28
ATOM     27  C   UNL     1      -1.373  14.016  23.683  0.00  0.00    +0.000 C 
ATOM     28  O   UNL     1      -0.572  14.466  22.592  0.00  0.00    +0.000 OA
ENDBRANCH   1  28
BRANCH  10  29
ATOM     29  O   UNL     1       4.767   5.318  17.177  0.00  0.00    +0.000 OA
ATOM     30  H   UNL     1       4.775   4.346  17.264  0.00  0.00    +0.000 HD
ENDBRANCH  10  29
BRANCH  12  31
ATOM     31  O   UNL     1       4.501   2.490  18.880  0.00  0.00    +0.000 OA
ATOM     32  C   UNL     1       4.104   1.296  18.246  0.00  0.00    +0.000 C 
ENDBRANCH  12  31
TORSDOF 4
ENDMDL
MODEL 4
REMARK VINA RESULT:      -7.6      1.865      2.492
REMARK  Name = 
REMARK  7 active torsions:
REMARK  status: ('A' for Active; 'I' for Inactive)
REMARK    1  A    between atoms: C_1  and  O_2
REMARK    2  A    between atoms: O_2  and  C_3
REMARK    3  A    between atoms: C_12  and  O_13
REMARK    4  A    between atoms: C_15  and  O_16
REMARK    5  A    between atoms: O_16  and  C_17
REMARK    6  A    between atoms: C_19  and  N_20
REMARK    7  A    between atoms: C_25  and  C_26
REMARK                            x       y       z     vdW  Elec       q    Type
REMARK                         _______ _______ _______ _____ _____    ______ ____
ROOT
ATOM      1  C   UNL     1       0.253  13.349  19.967  0.00  0.00    +0.000 A 
ATOM      2  C   UNL     1       1.110  13.621  18.905  0.00  0.00    +0.000 A 
ATOM      3  C   UNL     1       1.779  12.576  18.249  0.00  0.00    +0.000 A 
ATOM      4  C   UNL     1       1.613  11.248  18.629  0.00  0.00    +0.000 A 
ATOM      5  N   UNL     1       2.291  10.280  17.988  0.00  0.00    +0.000 NA
ATOM      6  C   UNL     1       2.110   9.016  18.402  0.00  0.00    +0.000 A 
ATOM      7  N   UNL     1       2.890   8.040  17.808  0.00  0.00    +0.000 N 
ATOM      8  C   UNL     1       3.170   6.784  18.314  0.00  0.00    +0.000 A 
ATOM      9  N   UNL     1       4.271   6.197  17.858  0.00  0.00    +0.000 NA
ATOM     10  C   UNL     1       4.554   4.988  18.373  0.00  0.00    +0.000 A 
ATOM     11  C   UNL     1       3.809   4.257  19.326  0.00  0.00    +0.000 A 
ATOM     12  C   UNL     1       3.980   2.966  19.945  0.00  0.00    +0.000 A 
ATOM     13  C   UNL     1       3.039   2.515  20.894  0.00  0.00    +0.000 A 
ATOM     14  C   UNL     1       1.920   3.257  21.232  0.00  0.00    +0.000 A 
ATOM     15  C   UNL     1       1.801   4.520  20.670  0.00  0.00    +0.000 A 
ATOM     16  C   UNL     1       2.690   5.002  19.716  0.00  0.00    +0.000 A 
ATOM     17  N   UNL     1       2.389   6.205  19.228  0.00  0.00    +0.000 NA
ATOM     18  N   UNL     1       1.266   8.681  19.381  0.00  0.00    +0.000 NA
ATOM     19  C   UNL     1       0.601   9.645  20.027  0.00  0.00    +0.000 A 
ATOM     20  C   UNL     1      -0.268   9.164  21.150  0.00  0.00    +0.000 C 
ATOM     21  C   UNL     1       0.742  10.983  19.689  0.00  0.00    +0.000 A 
ATOM     22  C   UNL     1       0.071  12.029  20.354  0.00  0.00    +0.000 A 
ATOM     23  H   UNL     1       3.608   8.414  17.218  0.00  0.00    +0.000 HD
ENDROOT
BRANCH  14  24
ATOM     24  N   UNL     1       1.077   2.848  22.270  0.00  0.00    +0.000 N 
ATOM     25  H   UNL     1       1.225   1.889  22.570  0.00  0.00    +0.000 HD
ATOM     26  H   UNL     1       0.094   3.053  22.114  0.00  0.00    +0.000 HD
ENDBRANCH  14  24
BRANCH   1  28
ATOM     27  C   UNL     1      -0.730  15.484  19.667  0.00  0.00    +0.000 C 
ATOM     28  O   UNL     1      -0.347  14.431  20.548  0.00  0.00    +0.000 OA
ENDBRANCH   1  28
BRANCH  10  29
ATOM     29  O   UNL     1       5.721   4.563  17.842  0.00  0.00    +0.000 OA
ATOM     30  H   UNL     1       5.967   3.886  18.499  0.00  0.00    +0.000 HD
ENDBRANCH  10  29
BRANCH  12  31
ATOM     31  O   UNL     1       4.939   2.004  19.792  0.00  0.00    +0.000 OA
ATOM     32  C   UNL     1       5.259   1.093  20.818  0.00  0.00    +0.000 C 
ENDBRANCH  12  31
TORSDOF 4
ENDMDL
MODEL 5
REMARK VINA RESULT:      -7.6      1.767      3.284
REMARK  Name = 
REMARK  7 active torsions:
REMARK  status: ('A' for Active; 'I' for Inactive)
REMARK    1  A    between atoms: C_1  and  O_2
REMARK    2  A    between atoms: O_2  and  C_3
REMARK    3  A    between atoms: C_12  and  O_13
REMARK    4  A    between atoms: C_15  and  O_16
REMARK    5  A    between atoms: O_16  and  C_17
REMARK    6  A    between atoms: C_19  and  N_20
REMARK    7  A    between atoms: C_25  and  C_26
REMARK                            x       y       z     vdW  Elec       q    Type
REMARK                         _______ _______ _______ _____ _____    ______ ____
ROOT
ATOM      1  C   UNL     1      -1.425  13.446  20.705  0.00  0.00    +0.000 A 
ATOM      2  C   UNL     1      -1.930  12.786  21.821  0.00  0.00    +0.000 A 
ATOM      3  C   UNL     1      -1.442  11.519  22.175  0.00  0.00    +0.000 A 
ATOM      4  C   UNL     1      -0.448  10.884  21.436  0.00  0.00    +0.000 A 
ATOM      5  N   UNL     1      -0.025   9.660  21.797  0.00  0.00    +0.000 NA
ATOM      6  C   UNL     1       0.923   9.083  21.043  0.00  0.00    +0.000 A 
ATOM      7  N   UNL     1       1.276   7.783  21.359  0.00  0.00    +0.000 N 
ATOM      8  C   UNL     1       1.902   6.870  20.530  0.00  0.00    +0.000 A 
ATOM      9  N   UNL     1       1.733   5.588  20.831  0.00  0.00    +0.000 NA
ATOM     10  C   UNL     1       2.320   4.704  20.006  0.00  0.00    +0.000 A 
ATOM     11  C   UNL     1       3.115   4.977  18.869  0.00  0.00    +0.000 A 
ATOM     12  C   UNL     1       3.810   4.145  17.919  0.00  0.00    +0.000 A 
ATOM     13  C   UNL     1       4.526   4.740  16.860  0.00  0.00    +0.000 A 
ATOM     14  C   UNL     1       4.620   6.114  16.715  0.00  0.00    +0.000 A 
ATOM     15  C   UNL     1       3.898   6.898  17.604  0.00  0.00    +0.000 A 
ATOM     16  C   UNL     1       3.195   6.361  18.675  0.00  0.00    +0.000 A 
ATOM     17  N   UNL     1       2.617   7.258  19.473  0.00  0.00    +0.000 NA
ATOM     18  N   UNL     1       1.484   9.680  19.990  0.00  0.00    +0.000 NA
ATOM     19  C   UNL     1       1.055  10.893  19.622  0.00  0.00    +0.000 A 
ATOM     20  C   UNL     1       1.707  11.442  18.390  0.00  0.00    +0.000 C 
ATOM     21  C   UNL     1       0.061  11.559  20.323  0.00  0.00    +0.000 A 
ATOM     22  C   UNL     1      -0.429  12.830  19.961  0.00  0.00    +0.000 A 
ATOM     23  H   UNL     1       0.677   7.368  22.048  0.00  0.00    +0.000 HD
ENDROOT
BRANCH  14  24
ATOM     24  N   UNL     1       5.222   6.675  15.585  0.00  0.00    +0.000 N 
ATOM     25  H   UNL     1       5.810   6.030  15.066  0.00  0.00    +0.000 HD
ATOM     26  H   UNL     1       5.686   7.563  15.757  0.00  0.00    +0.000 HD
ENDBRANCH  14  24
BRANCH   1  28
ATOM     27  C   UNL     1      -2.996  15.111  21.319  0.00  0.00    +0.000 C 
ATOM     28  O   UNL     1      -1.968  14.671  20.434  0.00  0.00    +0.000 OA
ENDBRANCH   1  28
BRANCH  10  29
ATOM     29  O   UNL     1       2.006   3.459  20.425  0.00  0.00    +0.000 OA
ATOM     30  H   UNL     1       2.755   2.961  20.047  0.00  0.00    +0.000 HD
ENDBRANCH  10  29
BRANCH  12  31
ATOM     31  O   UNL     1       3.937   2.787  17.820  0.00  0.00    +0.000 OA
ATOM     32  C   UNL     1       2.834   1.947  17.572  0.00  0.00    +0.000 C 
ENDBRANCH  12  31
TORSDOF 4
ENDMDL
MODEL 6
REMARK VINA RESULT:      -7.5      1.953      9.070
REMARK  Name = 
REMARK  7 active torsions:
REMARK  status: ('A' for Active; 'I' for Inactive)
REMARK    1  A    between atoms: C_1  and  O_2
REMARK    2  A    between atoms: O_2  and  C_3
REMARK    3  A    between atoms: C_12  and  O_13
REMARK    4  A    between atoms: C_15  and  O_16
REMARK    5  A    between atoms: O_16  and  C_17
REMARK    6  A    between atoms: C_19  and  N_20
REMARK    7  A    between atoms: C_25  and  C_26
REMARK                            x       y       z     vdW  Elec       q    Type
REMARK                         _______ _______ _______ _____ _____    ______ ____
ROOT
ATOM      1  C   UNL     1       6.324   4.984  17.121  0.00  0.00    +0.000 A 
ATOM      2  C   UNL     1       6.283   4.256  18.306  0.00  0.00    +0.000 A 
ATOM      3  C   UNL     1       5.302   4.530  19.272  0.00  0.00    +0.000 A 
ATOM      4  C   UNL     1       4.347   5.525  19.084  0.00  0.00    +0.000 A 
ATOM      5  N   UNL     1       3.439   5.770  20.044  0.00  0.00    +0.000 NA
ATOM      6  C   UNL     1       2.550   6.750  19.824  0.00  0.00    +0.000 A 
ATOM      7  N   UNL     1       1.688   7.065  20.859  0.00  0.00    +0.000 N 
ATOM      8  C   UNL     1       0.986   8.246  21.021  0.00  0.00    +0.000 A 
ATOM      9  N   UNL     1       0.606   8.540  22.259  0.00  0.00    +0.000 NA
ATOM     10  C   UNL     1      -0.052   9.701  22.415  0.00  0.00    +0.000 A 
ATOM     11  C   UNL     1      -0.407  10.637  21.417  0.00  0.00    +0.000 A 
ATOM     12  C   UNL     1      -1.115  11.893  21.436  0.00  0.00    +0.000 A 
ATOM     13  C   UNL     1      -1.301  12.610  20.236  0.00  0.00    +0.000 A 
ATOM     14  C   UNL     1      -0.857  12.131  19.015  0.00  0.00    +0.000 A 
ATOM     15  C   UNL     1      -0.128  10.950  19.023  0.00  0.00    +0.000 A 
ATOM     16  C   UNL     1       0.065  10.196  20.174  0.00  0.00    +0.000 A 
ATOM     17  N   UNL     1       0.726   9.054  19.992  0.00  0.00    +0.000 NA
ATOM     18  N   UNL     1       2.503   7.453  18.690  0.00  0.00    +0.000 NA
ATOM     19  C   UNL     1       3.414   7.219  17.739  0.00  0.00    +0.000 A 
ATOM     20  C   UNL     1       3.310   8.108  16.537  0.00  0.00    +0.000 C 
ATOM     21  C   UNL     1       4.389   6.244  17.886  0.00  0.00    +0.000 A 
ATOM     22  C   UNL     1       5.375   5.976  16.915  0.00  0.00    +0.000 A 
ATOM     23  H   UNL     1       1.920   6.605  21.719  0.00  0.00    +0.000 HD
ENDROOT
BRANCH  14  24
ATOM     24  N   UNL     1      -0.936  12.921  17.865  0.00  0.00    +0.000 N 
ATOM     25  H   UNL     1      -0.754  13.907  18.027  0.00  0.00    +0.000 HD
ATOM     26  H   UNL     1      -1.775  12.772  17.313  0.00  0.00    +0.000 HD
ENDBRANCH  14  24
BRANCH   1  28
ATOM     27  C   UNL     1       7.003   4.775  14.860  0.00  0.00    +0.000 C 
ATOM     28  O   UNL     1       7.320   4.652  16.245  0.00  0.00    +0.000 OA
ENDBRANCH   1  28
BRANCH  10  29
ATOM     29  O   UNL     1      -0.315   9.867  23.730  0.00  0.00    +0.000 OA
ATOM     30  H   UNL     1       0.507  10.311  24.011  0.00  0.00    +0.000 HD
ENDBRANCH  10  29
BRANCH  12  31
ATOM     31  O   UNL     1      -1.697  12.593  22.456  0.00  0.00    +0.000 OA
ATOM     32  C   UNL     1      -2.896  12.175  23.065  0.00  0.00    +0.000 C 
ENDBRANCH  12  31
TORSDOF 4
ENDMDL
MODEL 7
REMARK VINA RESULT:      -7.5      1.984      3.592
REMARK  Name = 
REMARK  7 active torsions:
REMARK  status: ('A' for Active; 'I' for Inactive)
REMARK    1  A    between atoms: C_1  and  O_2
REMARK    2  A    between atoms: O_2  and  C_3
REMARK    3  A    between atoms: C_12  and  O_13
REMARK    4  A    between atoms: C_15  and  O_16
REMARK    5  A    between atoms: O_16  and  C_17
REMARK    6  A    between atoms: C_19  and  N_20
REMARK    7  A    between atoms: C_25  and  C_26
REMARK                            x       y       z     vdW  Elec       q    Type
REMARK                         _______ _______ _______ _____ _____    ______ ____
ROOT
ATOM      1  C   UNL     1      -0.754  13.097  20.300  0.00  0.00    +0.000 A 
ATOM      2  C   UNL     1      -1.359  12.536  21.421  0.00  0.00    +0.000 A 
ATOM      3  C   UNL     1      -1.027  11.235  21.828  0.00  0.00    +0.000 A 
ATOM      4  C   UNL     1      -0.094  10.467  21.138  0.00  0.00    +0.000 A 
ATOM      5  N   UNL     1       0.177   9.216  21.549  0.00  0.00    +0.000 NA
ATOM      6  C   UNL     1       1.071   8.510  20.841  0.00  0.00    +0.000 A 
ATOM      7  N   UNL     1       1.266   7.190  21.208  0.00  0.00    +0.000 N 
ATOM      8  C   UNL     1       1.805   6.185  20.426  0.00  0.00    +0.000 A 
ATOM      9  N   UNL     1       1.483   4.940  20.761  0.00  0.00    +0.000 NA
ATOM     10  C   UNL     1       1.986   3.969  19.982  0.00  0.00    +0.000 A 
ATOM     11  C   UNL     1       2.834   4.110  18.860  0.00  0.00    +0.000 A 
ATOM     12  C   UNL     1       3.454   3.172  17.956  0.00  0.00    +0.000 A 
ATOM     13  C   UNL     1       4.259   3.647  16.900  0.00  0.00    +0.000 A 
ATOM     14  C   UNL     1       4.513   4.996  16.716  0.00  0.00    +0.000 A 
ATOM     15  C   UNL     1       3.863   5.886  17.559  0.00  0.00    +0.000 A 
ATOM     16  C   UNL     1       3.077   5.469  18.626  0.00  0.00    +0.000 A 
ATOM     17  N   UNL     1       2.585   6.453  19.378  0.00  0.00    +0.000 NA
ATOM     18  N   UNL     1       1.723   9.004  19.787  0.00  0.00    +0.000 NA
ATOM     19  C   UNL     1       1.444  10.243  19.369  0.00  0.00    +0.000 A 
ATOM     20  C   UNL     1       2.185  10.673  18.139  0.00  0.00    +0.000 C 
ATOM     21  C   UNL     1       0.516  11.042  20.020  0.00  0.00    +0.000 A 
ATOM     22  C   UNL     1       0.183  12.347  19.604  0.00  0.00    +0.000 A 
ATOM     23  H   UNL     1       0.607   6.870  21.891  0.00  0.00    +0.000 HD
ENDROOT
BRANCH  14  24
ATOM     24  N   UNL     1       5.203   5.446  15.586  0.00  0.00    +0.000 N 
ATOM     25  H   UNL     1       5.183   4.798  14.804  0.00  0.00    +0.000 HD
ATOM     26  H   UNL     1       6.141   5.785  15.779  0.00  0.00    +0.000 HD
ENDBRANCH  14  24
BRANCH   1  28
ATOM     27  C   UNL     1      -0.339  15.047  19.019  0.00  0.00    +0.000 C 
ATOM     28  O   UNL     1      -1.147  14.365  19.975  0.00  0.00    +0.000 OA
ENDBRANCH   1  28
BRANCH  10  29
ATOM     29  O   UNL     1       1.521   2.781  20.430  0.00  0.00    +0.000 OA
ATOM     30  H   UNL     1       1.117   3.067  21.271  0.00  0.00    +0.000 HD
ENDBRANCH  10  29
BRANCH  12  31
ATOM     31  O   UNL     1       3.428   1.807  17.904  0.00  0.00    +0.000 OA
ATOM     32  C   UNL     1       4.085   1.006  18.858  0.00  0.00    +0.000 C 
ENDBRANCH  12  31
TORSDOF 4
ENDMDL
MODEL 8
REMARK VINA RESULT:      -7.1      3.254      9.454
REMARK  Name = 
REMARK  7 active torsions:
REMARK  status: ('A' for Active; 'I' for Inactive)
REMARK    1  A    between atoms: C_1  and  O_2
REMARK    2  A    between atoms: O_2  and  C_3
REMARK    3  A    between atoms: C_12  and  O_13
REMARK    4  A    between atoms: C_15  and  O_16
REMARK    5  A    between atoms: O_16  and  C_17
REMARK    6  A    between atoms: C_19  and  N_20
REMARK    7  A    between atoms: C_25  and  C_26
REMARK                            x       y       z     vdW  Elec       q    Type
REMARK                         _______ _______ _______ _____ _____    ______ ____
ROOT
ATOM      1  C   UNL     1       2.542   7.202  19.441  0.00  0.00    +0.000 A 
ATOM      2  C   UNL     1       2.405   7.667  18.137  0.00  0.00    +0.000 A 
ATOM      3  C   UNL     1       1.564   8.755  17.857  0.00  0.00    +0.000 A 
ATOM      4  C   UNL     1       0.846   9.402  18.859  0.00  0.00    +0.000 A 
ATOM      5  N   UNL     1       0.035  10.426  18.544  0.00  0.00    +0.000 NA
ATOM      6  C   UNL     1      -0.650  11.006  19.542  0.00  0.00    +0.000 A 
ATOM      7  N   UNL     1      -1.561  11.987  19.195  0.00  0.00    +0.000 N 
ATOM      8  C   UNL     1      -2.627  12.432  19.955  0.00  0.00    +0.000 A 
ATOM      9  N   UNL     1      -3.625  13.007  19.292  0.00  0.00    +0.000 NA
ATOM     10  C   UNL     1      -4.670  13.412  20.031  0.00  0.00    +0.000 A 
ATOM     11  C   UNL     1      -4.828  13.320  21.433  0.00  0.00    +0.000 A 
ATOM     12  C   UNL     1      -5.869  13.722  22.346  0.00  0.00    +0.000 A 
ATOM     13  C   UNL     1      -5.724  13.471  23.726  0.00  0.00    +0.000 A 
ATOM     14  C   UNL     1      -4.588  12.880  24.252  0.00  0.00    +0.000 A 
ATOM     15  C   UNL     1      -3.622  12.449  23.355  0.00  0.00    +0.000 A 
ATOM     16  C   UNL     1      -3.708  12.689  21.989  0.00  0.00    +0.000 A 
ATOM     17  N   UNL     1      -2.661  12.271  21.279  0.00  0.00    +0.000 NA
ATOM     18  N   UNL     1      -0.528  10.642  20.820  0.00  0.00    +0.000 NA
ATOM     19  C   UNL     1       0.270   9.614  21.133  0.00  0.00    +0.000 A 
ATOM     20  C   UNL     1       0.282   9.249  22.586  0.00  0.00    +0.000 C 
ATOM     21  C   UNL     1       0.998   8.935  20.167  0.00  0.00    +0.000 A 
ATOM     22  C   UNL     1       1.838   7.840  20.453  0.00  0.00    +0.000 A 
ATOM     23  H   UNL     1      -1.703  12.062  18.206  0.00  0.00    +0.000 HD
ENDROOT
BRANCH  14  24
ATOM     24  N   UNL     1      -4.527  12.523  25.603  0.00  0.00    +0.000 N 
ATOM     25  H   UNL     1      -4.302  11.546  25.763  0.00  0.00    +0.000 HD
ATOM     26  H   UNL     1      -5.327  12.827  26.150  0.00  0.00    +0.000 HD
ENDBRANCH  14  24
BRANCH   1  28
ATOM     27  C   UNL     1       2.828   4.853  19.304  0.00  0.00    +0.000 C 
ATOM     28  O   UNL     1       3.376   6.132  19.614  0.00  0.00    +0.000 OA
ENDBRANCH   1  28
BRANCH  10  29
ATOM     29  O   UNL     1      -5.606  13.921  19.200  0.00  0.00    +0.000 OA
ATOM     30  H   UNL     1      -5.463  14.874  19.350  0.00  0.00    +0.000 HD
ENDBRANCH  10  29
BRANCH  12  31
ATOM     31  O   UNL     1      -7.066  14.350  22.141  0.00  0.00    +0.000 OA
ATOM     32  C   UNL     1      -7.785  14.956  23.190  0.00  0.00    +0.000 C 
ENDBRANCH  12  31
TORSDOF 4
ENDMDL
MODEL 9
REMARK VINA RESULT:      -7.1      1.934      8.986
REMARK  Name = 
REMARK  7 active torsions:
REMARK  status: ('A' for Active; 'I' for Inactive)
REMARK    1  A    between atoms: C_1  and  O_2
REMARK    2  A    between atoms: O_2  and  C_3
REMARK    3  A    between atoms: C_12  and  O_13
REMARK    4  A    between atoms: C_15  and  O_16
REMARK    5  A    between atoms: O_16  and  C_17
REMARK    6  A    between atoms: C_19  and  N_20
REMARK    7  A    between atoms: C_25  and  C_26
REMARK                            x       y       z     vdW  Elec       q    Type
REMARK                         _______ _______ _______ _____ _____    ______ ____
ROOT
ATOM      1  C   UNL     1       3.557   3.693  19.488  0.00  0.00    +0.000 A 
ATOM      2  C   UNL     1       2.721   3.432  20.569  0.00  0.00    +0.000 A 
ATOM      3  C   UNL     1       1.887   4.439  21.079  0.00  0.00    +0.000 A 
ATOM      4  C   UNL     1       1.863   5.718  20.531  0.00  0.00    +0.000 A 
ATOM      5  N   UNL     1       1.066   6.659  21.064  0.00  0.00    +0.000 NA
ATOM      6  C   UNL     1       1.091   7.881  20.512  0.00  0.00    +0.000 A 
ATOM      7  N   UNL     1       0.349   8.870  21.132  0.00  0.00    +0.000 N 
ATOM      8  C   UNL     1       0.518  10.236  21.003  0.00  0.00    +0.000 A 
ATOM      9  N   UNL     1       0.052  10.984  21.997  0.00  0.00    +0.000 NA
ATOM     10  C   UNL     1       0.243  12.309  21.880  0.00  0.00    +0.000 A 
ATOM     11  C   UNL     1       0.863  13.004  20.816  0.00  0.00    +0.000 A 
ATOM     12  C   UNL     1       1.119  14.399  20.554  0.00  0.00    +0.000 A 
ATOM     13  C   UNL     1       1.788  14.777  19.371  0.00  0.00    +0.000 A 
ATOM     14  C   UNL     1       2.182  13.851  18.420  0.00  0.00    +0.000 A 
ATOM     15  C   UNL     1       1.980  12.511  18.715  0.00  0.00    +0.000 A 
ATOM     16  C   UNL     1       1.308  12.088  19.855  0.00  0.00    +0.000 A 
ATOM     17  N   UNL     1       1.138  10.770  19.949  0.00  0.00    +0.000 NA
ATOM     18  N   UNL     1       1.832   8.186  19.445  0.00  0.00    +0.000 NA
ATOM     19  C   UNL     1       2.636   7.253  18.920  0.00  0.00    +0.000 A 
ATOM     20  C   UNL     1       3.471   7.720  17.767  0.00  0.00    +0.000 C 
ATOM     21  C   UNL     1       2.698   5.968  19.439  0.00  0.00    +0.000 A 
ATOM     22  C   UNL     1       3.541   4.962  18.925  0.00  0.00    +0.000 A 
ATOM     23  H   UNL     1      -0.026   8.585  22.016  0.00  0.00    +0.000 HD
ENDROOT
BRANCH  14  24
ATOM     24  N   UNL     1       2.959  14.239  17.324  0.00  0.00    +0.000 N 
ATOM     25  H   UNL     1       2.702  15.140  16.933  0.00  0.00    +0.000 HD
ATOM     26  H   UNL     1       3.056  13.525  16.608  0.00  0.00    +0.000 HD
ENDBRANCH  14  24
BRANCH   1  28
ATOM     27  C   UNL     1       3.647   1.512  18.567  0.00  0.00    +0.000 C 
ATOM     28  O   UNL     1       4.339   2.654  19.066  0.00  0.00    +0.000 OA
ENDBRANCH   1  28
BRANCH  10  29
ATOM     29  O   UNL     1      -0.241  12.908  22.990  0.00  0.00    +0.000 OA
ATOM     30  H   UNL     1       0.418  12.607  23.643  0.00  0.00    +0.000 HD
ENDBRANCH  10  29
BRANCH  12  31
ATOM     31  O   UNL     1       0.822  15.527  21.265  0.00  0.00    +0.000 OA
ATOM     32  C   UNL     1       1.705  16.066  22.221  0.00  0.00    +0.000 C 
ENDBRANCH  12  31
TORSDOF 4
ENDMDL
