MODEL 1
REMARK VINA RESULT:      -9.4      0.000      0.000
REMARK  Name = 
REMARK  10 active torsions:
REMARK  status: ('A' for Active; 'I' for Inactive)
REMARK    1  A    between atoms: C_1  and  O_2
REMARK    2  A    between atoms: O_2  and  C_3
REMARK    3  A    between atoms: C_6  and  C_7
REMARK    4  A    between atoms: N_13  and  C_14
REMARK    5  A    between atoms: C_14  and  C_15
REMARK    6  A    between atoms: C_18  and  C_19
REMARK    7  A    between atoms: N_21  and  C_22
REMARK    8  A    between atoms: C_27  and  N_28
REMARK    9  A    between atoms: C_33  and  O_34
REMARK   10  A    between atoms: O_34  and  C_35
REMARK                            x       y       z     vdW  Elec       q    Type
REMARK                         _______ _______ _______ _____ _____    ______ ____
ROOT
ATOM      1  C   UNL     1       8.284   7.851  18.240  0.00  0.00    +0.000 C 
ENDROOT
BRANCH   1   8
ATOM      2  C   UNL     1       5.389   5.033  17.358  0.00  0.00    +0.000 A 
ATOM      3  C   UNL     1       5.449   4.372  16.152  0.00  0.00    +0.000 A 
ATOM      4  C   UNL     1       6.396   4.835  15.280  0.00  0.00    +0.000 A 
ATOM      5 CL   UNL     1       6.601   4.093  13.745  0.00  0.00    +0.000 Cl
ATOM      6  N   UNL     1       7.220   5.864  15.512  0.00  0.00    +0.000 NA
ATOM      7  C   UNL     1       7.075   6.466  16.689  0.00  0.00    +0.000 A 
ATOM      8  N   UNL     1       7.850   7.586  16.889  0.00  0.00    +0.000 N 
ATOM      9  N   UNL     1       6.198   6.080  17.623  0.00  0.00    +0.000 NA
ATOM     10  H   UNL     1       8.573   7.611  16.184  0.00  0.00    +0.000 HD
BRANCH   2  14
ATOM     11  C   UNL     1       2.712   4.061  20.598  0.00  0.00    +0.000 A 
ATOM     12  C   UNL     1       3.541   3.081  20.034  0.00  0.00    +0.000 A 
ATOM     13  C   UNL     1       4.399   3.390  18.974  0.00  0.00    +0.000 A 
ATOM     14  C   UNL     1       4.430   4.676  18.419  0.00  0.00    +0.000 A 
ATOM     15  C   UNL     1       3.513   5.610  18.925  0.00  0.00    +0.000 A 
ATOM     16  C   UNL     1       2.656   5.325  20.001  0.00  0.00    +0.000 A 
BRANCH  11  18
ATOM     17  C   UNL     1       1.490   2.438  21.806  0.00  0.00    +0.000 C 
ATOM     18  O   UNL     1       1.944   3.788  21.697  0.00  0.00    +0.000 OA
ENDBRANCH  11  18
BRANCH  16  19
ATOM     19  O   UNL     1       1.881   6.406  20.323  0.00  0.00    +0.000 OA
ATOM     20  C   UNL     1       2.112   7.643  19.672  0.00  0.00    +0.000 C 
ENDBRANCH  16  19
ENDBRANCH   2  14
ENDBRANCH   1   8
BRANCH   1  21
ATOM     21  C   UNL     1       8.537   9.336  18.357  0.00  0.00    +0.000 A 
ATOM     22  C   UNL     1       9.321   9.798  19.423  0.00  0.00    +0.000 A 
ATOM     23  C   UNL     1       9.574  11.157  19.564  0.00  0.00    +0.000 A 
ATOM     24  C   UNL     1       9.041  12.083  18.656  0.00  0.00    +0.000 A 
ATOM     25  C   UNL     1       8.235  11.639  17.605  0.00  0.00    +0.000 A 
ATOM     26  C   UNL     1       7.983  10.265  17.460  0.00  0.00    +0.000 A 
BRANCH  24  27
ATOM     27  C   UNL     1       9.500  13.485  18.791  0.00  0.00    +0.000 C 
ATOM     28  O   UNL     1      10.270  13.717  19.720  0.00  0.00    +0.000 OA
ATOM     29  N   UNL     1       8.998  14.418  17.894  0.00  0.00    +0.000 N 
ATOM     30  H   UNL     1       8.167  14.173  17.377  0.00  0.00    +0.000 HD
BRANCH  29  31
ATOM     31  C   UNL     1       9.399  15.784  17.838  0.00  0.00    +0.000 A 
ATOM     32  C   UNL     1       8.680  16.782  18.517  0.00  0.00    +0.000 A 
ATOM     33  C   UNL     1       9.023  18.129  18.413  0.00  0.00    +0.000 A 
ATOM     34  C   UNL     1      10.101  18.505  17.627  0.00  0.00    +0.000 A 
ATOM     35  C   UNL     1      10.845  17.527  16.964  0.00  0.00    +0.000 A 
ATOM     36  C   UNL     1      10.545  16.158  17.100  0.00  0.00    +0.000 A 
BRANCH  36  37
ATOM     37  N   UNL     1      11.268  15.241  16.304  0.00  0.00    +0.000 N 
ATOM     38  H   UNL     1      10.851  14.315  16.302  0.00  0.00    +0.000 HD
ATOM     39  H   UNL     1      11.456  15.560  15.367  0.00  0.00    +0.000 HD
ENDBRANCH  36  37
ENDBRANCH  29  31
ENDBRANCH  24  27
ENDBRANCH   1  21
TORSDOF 8
ENDMDL
MODEL 2
REMARK VINA RESULT:      -9.3      6.372      9.948
REMARK  Name = 
REMARK  10 active torsions:
REMARK  status: ('A' for Active; 'I' for Inactive)
REMARK    1  A    between atoms: C_1  and  O_2
REMARK    2  A    between atoms: O_2  and  C_3
REMARK    3  A    between atoms: C_6  and  C_7
REMARK    4  A    between atoms: N_13  and  C_14
REMARK    5  A    between atoms: C_14  and  C_15
REMARK    6  A    between atoms: C_18  and  C_19
REMARK    7  A    between atoms: N_21  and  C_22
REMARK    8  A    between atoms: C_27  and  N_28
REMARK    9  A    between atoms: C_33  and  O_34
REMARK   10  A    between atoms: O_34  and  C_35
REMARK                            x       y       z     vdW  Elec       q    Type
REMARK                         _______ _______ _______ _____ _____    ______ ____
ROOT
ATOM      1  C   UNL     1       1.691   8.190  20.006  0.00  0.00    +0.000 C 
ENDROOT
BRANCH   1   8
ATOM      2  C   UNL     1       3.717   4.753  18.923  0.00  0.00    +0.000 A 
ATOM      3  C   UNL     1       3.334   3.552  19.474  0.00  0.00    +0.000 A 
ATOM      4  C   UNL     1       2.396   3.640  20.467  0.00  0.00    +0.000 A 
ATOM      5 CL   UNL     1       1.805   2.221  21.232  0.00  0.00    +0.000 Cl
ATOM      6  N   UNL     1       1.867   4.779  20.930  0.00  0.00    +0.000 NA
ATOM      7  C   UNL     1       2.316   5.896  20.362  0.00  0.00    +0.000 A 
ATOM      8  N   UNL     1       1.849   7.072  20.905  0.00  0.00    +0.000 N 
ATOM      9  N   UNL     1       3.212   5.922  19.369  0.00  0.00    +0.000 NA
ATOM     10  H   UNL     1       1.054   6.867  21.493  0.00  0.00    +0.000 HD
BRANCH   2  14
ATOM     11  C   UNL     1       6.522   5.175  15.672  0.00  0.00    +0.000 A 
ATOM     12  C   UNL     1       5.670   4.064  15.745  0.00  0.00    +0.000 A 
ATOM     13  C   UNL     1       4.770   3.918  16.805  0.00  0.00    +0.000 A 
ATOM     14  C   UNL     1       4.718   4.855  17.845  0.00  0.00    +0.000 A 
ATOM     15  C   UNL     1       5.656   5.899  17.809  0.00  0.00    +0.000 A 
ATOM     16  C   UNL     1       6.555   6.074  16.744  0.00  0.00    +0.000 A 
BRANCH  11  18
ATOM     17  C   UNL     1       7.000   4.609  13.428  0.00  0.00    +0.000 C 
ATOM     18  O   UNL     1       7.333   5.373  14.588  0.00  0.00    +0.000 OA
ENDBRANCH  11  18
BRANCH  16  19
ATOM     19  O   UNL     1       7.342   7.177  16.931  0.00  0.00    +0.000 OA
ATOM     20  C   UNL     1       7.950   7.390  18.193  0.00  0.00    +0.000 C 
ENDBRANCH  16  19
ENDBRANCH   2  14
ENDBRANCH   1   8
BRANCH   1  21
ATOM     21  C   UNL     1       0.900   9.253  20.733  0.00  0.00    +0.000 A 
ATOM     22  C   UNL     1       0.654  10.468  20.079  0.00  0.00    +0.000 A 
ATOM     23  C   UNL     1      -0.069  11.470  20.716  0.00  0.00    +0.000 A 
ATOM     24  C   UNL     1      -0.549  11.287  22.020  0.00  0.00    +0.000 A 
ATOM     25  C   UNL     1      -0.288  10.092  22.695  0.00  0.00    +0.000 A 
ATOM     26  C   UNL     1       0.439   9.079  22.049  0.00  0.00    +0.000 A 
BRANCH  24  27
ATOM     27  C   UNL     1      -1.446  12.339  22.551  0.00  0.00    +0.000 C 
ATOM     28  O   UNL     1      -0.971  13.071  23.417  0.00  0.00    +0.000 OA
ATOM     29  N   UNL     1      -2.745  12.386  22.065  0.00  0.00    +0.000 N 
ATOM     30  H   UNL     1      -3.098  11.570  21.590  0.00  0.00    +0.000 HD
BRANCH  29  31
ATOM     31  C   UNL     1      -3.704  13.382  22.412  0.00  0.00    +0.000 A 
ATOM     32  C   UNL     1      -3.789  14.590  21.699  0.00  0.00    +0.000 A 
ATOM     33  C   UNL     1      -4.675  15.599  22.074  0.00  0.00    +0.000 A 
ATOM     34  C   UNL     1      -5.502  15.415  23.171  0.00  0.00    +0.000 A 
ATOM     35  C   UNL     1      -5.451  14.212  23.878  0.00  0.00    +0.000 A 
ATOM     36  C   UNL     1      -4.600  13.163  23.483  0.00  0.00    +0.000 A 
BRANCH  36  37
ATOM     37  N   UNL     1      -4.520  12.026  24.318  0.00  0.00    +0.000 N 
ATOM     38  H   UNL     1      -5.381  11.859  24.832  0.00  0.00    +0.000 HD
ATOM     39  H   UNL     1      -4.202  11.190  23.855  0.00  0.00    +0.000 HD
ENDBRANCH  36  37
ENDBRANCH  29  31
ENDBRANCH  24  27
ENDBRANCH   1  21
TORSDOF 8
ENDMDL
MODEL 3
REMARK VINA RESULT:      -9.2      0.562      1.160
REMARK  Name = 
REMARK  10 active torsions:
REMARK  status: ('A' for Active; 'I' for Inactive)
REMARK    1  A    between atoms: C_1  and  O_2
REMARK    2  A    between atoms: O_2  and  C_3
REMARK    3  A    between atoms: C_6  and  C_7
REMARK    4  A    between atoms: N_13  and  C_14
REMARK    5  A    between atoms: C_14  and  C_15
REMARK    6  A    between atoms: C_18  and  C_19
REMARK    7  A    between atoms: N_21  and  C_22
REMARK    8  A    between atoms: C_27  and  N_28
REMARK    9  A    between atoms: C_33  and  O_34
REMARK   10  A    between atoms: O_34  and  C_35
REMARK                            x       y       z     vdW  Elec       q    Type
REMARK                         _______ _______ _______ _____ _____    ______ ____
ROOT
ATOM      1  C   UNL     1       8.193   7.976  18.341  0.00  0.00    +0.000 C 
ENDROOT
BRANCH   1   8
ATOM      2  C   UNL     1       5.440   5.002  17.522  0.00  0.00    +0.000 A 
ATOM      3  C   UNL     1       5.508   4.347  16.313  0.00  0.00    +0.000 A 
ATOM      4  C   UNL     1       6.406   4.863  15.420  0.00  0.00    +0.000 A 
ATOM      5 CL   UNL     1       6.616   4.135  13.879  0.00  0.00    +0.000 Cl
ATOM      6  N   UNL     1       7.177   5.936  15.634  0.00  0.00    +0.000 NA
ATOM      7  C   UNL     1       7.026   6.527  16.816  0.00  0.00    +0.000 A 
ATOM      8  N   UNL     1       7.743   7.689  17.000  0.00  0.00    +0.000 N 
ATOM      9  N   UNL     1       6.196   6.092  17.770  0.00  0.00    +0.000 NA
ATOM     10  H   UNL     1       8.446   7.755  16.278  0.00  0.00    +0.000 HD
BRANCH   2  14
ATOM     11  C   UNL     1       2.896   3.886  20.822  0.00  0.00    +0.000 A 
ATOM     12  C   UNL     1       3.805   2.970  20.276  0.00  0.00    +0.000 A 
ATOM     13  C   UNL     1       4.621   3.325  19.197  0.00  0.00    +0.000 A 
ATOM     14  C   UNL     1       4.528   4.590  18.605  0.00  0.00    +0.000 A 
ATOM     15  C   UNL     1       3.534   5.452  19.095  0.00  0.00    +0.000 A 
ATOM     16  C   UNL     1       2.718   5.122  20.189  0.00  0.00    +0.000 A 
BRANCH  11  18
ATOM     17  C   UNL     1       1.279   2.467  21.801  0.00  0.00    +0.000 C 
ATOM     18  O   UNL     1       2.167   3.578  21.938  0.00  0.00    +0.000 OA
ENDBRANCH  11  18
BRANCH  16  19
ATOM     19  O   UNL     1       1.851   6.137  20.490  0.00  0.00    +0.000 OA
ATOM     20  C   UNL     1       2.096   7.434  19.975  0.00  0.00    +0.000 C 
ENDBRANCH  16  19
ENDBRANCH   2  14
ENDBRANCH   1   8
BRANCH   1  21
ATOM     21  C   UNL     1       8.532   9.447  18.405  0.00  0.00    +0.000 A 
ATOM     22  C   UNL     1       9.346   9.901  19.451  0.00  0.00    +0.000 A 
ATOM     23  C   UNL     1       9.679  11.247  19.544  0.00  0.00    +0.000 A 
ATOM     24  C   UNL     1       9.196  12.169  18.605  0.00  0.00    +0.000 A 
ATOM     25  C   UNL     1       8.361  11.736  17.573  0.00  0.00    +0.000 A 
ATOM     26  C   UNL     1       8.029  10.375  17.477  0.00  0.00    +0.000 A 
BRANCH  24  27
ATOM     27  C   UNL     1       9.736  13.546  18.689  0.00  0.00    +0.000 C 
ATOM     28  O   UNL     1      10.592  13.741  19.549  0.00  0.00    +0.000 OA
ATOM     29  N   UNL     1       9.209  14.500  17.830  0.00  0.00    +0.000 N 
ATOM     30  H   UNL     1       8.326  14.296  17.387  0.00  0.00    +0.000 HD
BRANCH  29  31
ATOM     31  C   UNL     1       9.674  15.844  17.729  0.00  0.00    +0.000 A 
ATOM     32  C   UNL     1      10.967  16.134  17.264  0.00  0.00    +0.000 A 
ATOM     33  C   UNL     1      11.455  17.439  17.228  0.00  0.00    +0.000 A 
ATOM     34  C   UNL     1      10.652  18.485  17.653  0.00  0.00    +0.000 A 
ATOM     35  C   UNL     1       9.354  18.222  18.096  0.00  0.00    +0.000 A 
ATOM     36  C   UNL     1       8.827  16.916  18.090  0.00  0.00    +0.000 A 
BRANCH  36  37
ATOM     37  N   UNL     1       7.551  16.716  18.664  0.00  0.00    +0.000 N 
ATOM     38  H   UNL     1       7.356  17.371  19.416  0.00  0.00    +0.000 HD
ATOM     39  H   UNL     1       6.795  16.686  17.999  0.00  0.00    +0.000 HD
ENDBRANCH  36  37
ENDBRANCH  29  31
ENDBRANCH  24  27
ENDBRANCH   1  21
TORSDOF 8
ENDMDL
MODEL 4
REMARK VINA RESULT:      -9.2      6.411      9.982
REMARK  Name = 
REMARK  10 active torsions:
REMARK  status: ('A' for Active; 'I' for Inactive)
REMARK    1  A    between atoms: C_1  and  O_2
REMARK    2  A    between atoms: O_2  and  C_3
REMARK    3  A    between atoms: C_6  and  C_7
REMARK    4  A    between atoms: N_13  and  C_14
REMARK    5  A    between atoms: C_14  and  C_15
REMARK    6  A    between atoms: C_18  and  C_19
REMARK    7  A    between atoms: N_21  and  C_22
REMARK    8  A    between atoms: C_27  and  N_28
REMARK    9  A    between atoms: C_33  and  O_34
REMARK   10  A    between atoms: O_34  and  C_35
REMARK                            x       y       z     vdW  Elec       q    Type
REMARK                         _______ _______ _______ _____ _____    ______ ____
ROOT
ATOM      1  C   UNL     1       1.608   8.365  20.135  0.00  0.00    +0.000 C 
ENDROOT
BRANCH   1   8
ATOM      2  C   UNL     1       3.475   4.865  18.971  0.00  0.00    +0.000 A 
ATOM      3  C   UNL     1       3.074   3.676  19.536  0.00  0.00    +0.000 A 
ATOM      4  C   UNL     1       2.180   3.793  20.565  0.00  0.00    +0.000 A 
ATOM      5 CL   UNL     1       1.573   2.393  21.353  0.00  0.00    +0.000 Cl
ATOM      6  N   UNL     1       1.707   4.948  21.049  0.00  0.00    +0.000 NA
ATOM      7  C   UNL     1       2.170   6.050  20.465  0.00  0.00    +0.000 A 
ATOM      8  N   UNL     1       1.765   7.240  21.026  0.00  0.00    +0.000 N 
ATOM      9  N   UNL     1       3.026   6.049  19.437  0.00  0.00    +0.000 NA
ATOM     10  H   UNL     1       0.987   7.060  21.645  0.00  0.00    +0.000 HD
BRANCH   2  14
ATOM     11  C   UNL     1       6.148   5.175  15.599  0.00  0.00    +0.000 A 
ATOM     12  C   UNL     1       5.391   4.014  15.810  0.00  0.00    +0.000 A 
ATOM     13  C   UNL     1       4.535   3.906  16.909  0.00  0.00    +0.000 A 
ATOM     14  C   UNL     1       4.435   4.935  17.854  0.00  0.00    +0.000 A 
ATOM     15  C   UNL     1       5.284   6.040  17.684  0.00  0.00    +0.000 A 
ATOM     16  C   UNL     1       6.138   6.177  16.576  0.00  0.00    +0.000 A 
BRANCH  11  18
ATOM     17  C   UNL     1       6.713   4.337  13.463  0.00  0.00    +0.000 C 
ATOM     18  O   UNL     1       6.912   5.325  14.474  0.00  0.00    +0.000 OA
ENDBRANCH  11  18
BRANCH  16  19
ATOM     19  O   UNL     1       6.839   7.351  16.627  0.00  0.00    +0.000 OA
ATOM     20  C   UNL     1       7.675   7.611  17.741  0.00  0.00    +0.000 C 
ENDBRANCH  16  19
ENDBRANCH   2  14
ENDBRANCH   1   8
BRANCH   1  21
ATOM     21  C   UNL     1       0.756   9.394  20.842  0.00  0.00    +0.000 A 
ATOM     22  C   UNL     1       0.531  10.624  20.210  0.00  0.00    +0.000 A 
ATOM     23  C   UNL     1      -0.246  11.595  20.829  0.00  0.00    +0.000 A 
ATOM     24  C   UNL     1      -0.803  11.366  22.095  0.00  0.00    +0.000 A 
ATOM     25  C   UNL     1      -0.565  10.155  22.749  0.00  0.00    +0.000 A 
ATOM     26  C   UNL     1       0.217   9.172  22.121  0.00  0.00    +0.000 A 
BRANCH  24  27
ATOM     27  C   UNL     1      -1.749  12.388  22.599  0.00  0.00    +0.000 C 
ATOM     28  O   UNL     1      -1.311  13.159  23.450  0.00  0.00    +0.000 OA
ATOM     29  N   UNL     1      -3.046  12.367  22.107  0.00  0.00    +0.000 N 
ATOM     30  H   UNL     1      -3.361  11.526  21.648  0.00  0.00    +0.000 HD
BRANCH  29  31
ATOM     31  C   UNL     1      -4.050  13.327  22.428  0.00  0.00    +0.000 A 
ATOM     32  C   UNL     1      -4.924  13.132  23.510  0.00  0.00    +0.000 A 
ATOM     33  C   UNL     1      -5.953  14.029  23.790  0.00  0.00    +0.000 A 
ATOM     34  C   UNL     1      -6.124  15.149  22.991  0.00  0.00    +0.000 A 
ATOM     35  C   UNL     1      -5.251  15.375  21.925  0.00  0.00    +0.000 A 
ATOM     36  C   UNL     1      -4.175  14.507  21.660  0.00  0.00    +0.000 A 
BRANCH  36  37
ATOM     37  N   UNL     1      -3.410  14.739  20.495  0.00  0.00    +0.000 N 
ATOM     38  H   UNL     1      -3.724  15.558  19.980  0.00  0.00    +0.000 HD
ATOM     39  H   UNL     1      -2.415  14.761  20.647  0.00  0.00    +0.000 HD
ENDBRANCH  36  37
ENDBRANCH  29  31
ENDBRANCH  24  27
ENDBRANCH   1  21
TORSDOF 8
ENDMDL
MODEL 5
REMARK VINA RESULT:      -9.1      0.798      1.148
REMARK  Name = 
REMARK  10 active torsions:
REMARK  status: ('A' for Active; 'I' for Inactive)
REMARK    1  A    between atoms: C_1  and  O_2
REMARK    2  A    between atoms: O_2  and  C_3
REMARK    3  A    between atoms: C_6  and  C_7
REMARK    4  A    between atoms: N_13  and  C_14
REMARK    5  A    between atoms: C_14  and  C_15
REMARK    6  A    between atoms: C_18  and  C_19
REMARK    7  A    between atoms: N_21  and  C_22
REMARK    8  A    between atoms: C_27  and  N_28
REMARK    9  A    between atoms: C_33  and  O_34
REMARK   10  A    between atoms: O_34  and  C_35
REMARK                            x       y       z     vdW  Elec       q    Type
REMARK                         _______ _______ _______ _____ _____    ______ ____
ROOT
ATOM      1  C   UNL     1       7.908   7.451  18.114  0.00  0.00    +0.000 C 
ENDROOT
BRANCH   1   8
ATOM      2  C   UNL     1       5.257   4.630  16.663  0.00  0.00    +0.000 A 
ATOM      3  C   UNL     1       5.487   4.075  15.424  0.00  0.00    +0.000 A 
ATOM      4  C   UNL     1       6.511   4.639  14.714  0.00  0.00    +0.000 A 
ATOM      5 CL   UNL     1       6.928   4.036  13.162  0.00  0.00    +0.000 Cl
ATOM      6  N   UNL     1       7.259   5.670  15.126  0.00  0.00    +0.000 NA
ATOM      7  C   UNL     1       6.950   6.165  16.322  0.00  0.00    +0.000 A 
ATOM      8  N   UNL     1       7.650   7.289  16.703  0.00  0.00    +0.000 N 
ATOM      9  N   UNL     1       5.985   5.675  17.108  0.00  0.00    +0.000 NA
ATOM     10  H   UNL     1       8.450   7.395  16.097  0.00  0.00    +0.000 HD
BRANCH   2  14
ATOM     11  C   UNL     1       2.270   3.271  19.464  0.00  0.00    +0.000 A 
ATOM     12  C   UNL     1       3.058   2.354  18.753  0.00  0.00    +0.000 A 
ATOM     13  C   UNL     1       4.016   2.792  17.835  0.00  0.00    +0.000 A 
ATOM     14  C   UNL     1       4.194   4.155  17.567  0.00  0.00    +0.000 A 
ATOM     15  C   UNL     1       3.319   5.048  18.206  0.00  0.00    +0.000 A 
ATOM     16  C   UNL     1       2.363   4.631  19.146  0.00  0.00    +0.000 A 
BRANCH  11  18
ATOM     17  C   UNL     1       1.917   2.865  21.765  0.00  0.00    +0.000 C 
ATOM     18  O   UNL     1       1.401   2.852  20.433  0.00  0.00    +0.000 OA
ENDBRANCH  11  18
BRANCH  16  19
ATOM     19  O   UNL     1       1.656   5.691  19.644  0.00  0.00    +0.000 OA
ATOM     20  C   UNL     1       2.341   6.887  19.974  0.00  0.00    +0.000 C 
ENDBRANCH  16  19
ENDBRANCH   2  14
ENDBRANCH   1   8
BRANCH   1  21
ATOM     21  C   UNL     1       8.367   8.874  18.334  0.00  0.00    +0.000 A 
ATOM     22  C   UNL     1       7.932   9.862  17.440  0.00  0.00    +0.000 A 
ATOM     23  C   UNL     1       8.334  11.182  17.610  0.00  0.00    +0.000 A 
ATOM     24  C   UNL     1       9.186  11.541  18.663  0.00  0.00    +0.000 A 
ATOM     25  C   UNL     1       9.649  10.562  19.546  0.00  0.00    +0.000 A 
ATOM     26  C   UNL     1       9.240   9.230  19.376  0.00  0.00    +0.000 A 
BRANCH  24  27
ATOM     27  C   UNL     1       9.424  12.990  18.860  0.00  0.00    +0.000 C 
ATOM     28  O   UNL     1       9.917  13.317  19.937  0.00  0.00    +0.000 OA
ATOM     29  N   UNL     1       9.037  13.852  17.843  0.00  0.00    +0.000 N 
ATOM     30  H   UNL     1       8.389  13.504  17.154  0.00  0.00    +0.000 HD
BRANCH  29  31
ATOM     31  C   UNL     1       9.268  15.258  17.843  0.00  0.00    +0.000 A 
ATOM     32  C   UNL     1       8.382  16.142  18.481  0.00  0.00    +0.000 A 
ATOM     33  C   UNL     1       8.562  17.523  18.427  0.00  0.00    +0.000 A 
ATOM     34  C   UNL     1       9.641  18.049  17.735  0.00  0.00    +0.000 A 
ATOM     35  C   UNL     1      10.548  17.188  17.114  0.00  0.00    +0.000 A 
ATOM     36  C   UNL     1      10.411  15.789  17.202  0.00  0.00    +0.000 A 
BRANCH  36  37
ATOM     37  N   UNL     1      11.300  14.989  16.449  0.00  0.00    +0.000 N 
ATOM     38  H   UNL     1      10.888  14.102  16.176  0.00  0.00    +0.000 HD
ATOM     39  H   UNL     1      11.717  15.458  15.662  0.00  0.00    +0.000 HD
ENDBRANCH  36  37
ENDBRANCH  29  31
ENDBRANCH  24  27
ENDBRANCH   1  21
TORSDOF 8
ENDMDL
MODEL 6
REMARK VINA RESULT:      -9.0      6.450      9.862
REMARK  Name = 
REMARK  10 active torsions:
REMARK  status: ('A' for Active; 'I' for Inactive)
REMARK    1  A    between atoms: C_1  and  O_2
REMARK    2  A    between atoms: O_2  and  C_3
REMARK    3  A    between atoms: C_6  and  C_7
REMARK    4  A    between atoms: N_13  and  C_14
REMARK    5  A    between atoms: C_14  and  C_15
REMARK    6  A    between atoms: C_18  and  C_19
REMARK    7  A    between atoms: N_21  and  C_22
REMARK    8  A    between atoms: C_27  and  N_28
REMARK    9  A    between atoms: C_33  and  O_34
REMARK   10  A    between atoms: O_34  and  C_35
REMARK                            x       y       z     vdW  Elec       q    Type
REMARK                         _______ _______ _______ _____ _____    ______ ____
ROOT
ATOM      1  C   UNL     1       1.688   8.256  19.865  0.00  0.00    +0.000 C 
ENDROOT
BRANCH   1   8
ATOM      2  C   UNL     1       3.733   4.759  19.035  0.00  0.00    +0.000 A 
ATOM      3  C   UNL     1       3.326   3.591  19.639  0.00  0.00    +0.000 A 
ATOM      4  C   UNL     1       2.358   3.735  20.595  0.00  0.00    +0.000 A 
ATOM      5 CL   UNL     1       1.737   2.362  21.416  0.00  0.00    +0.000 Cl
ATOM      6  N   UNL     1       1.819   4.900  20.977  0.00  0.00    +0.000 NA
ATOM      7  C   UNL     1       2.291   5.982  20.365  0.00  0.00    +0.000 A 
ATOM      8  N   UNL     1       1.813   7.188  20.828  0.00  0.00    +0.000 N 
ATOM      9  N   UNL     1       3.218   5.952  19.401  0.00  0.00    +0.000 NA
ATOM     10  H   UNL     1       0.999   7.017  21.400  0.00  0.00    +0.000 HD
BRANCH   2  14
ATOM     11  C   UNL     1       6.674   5.043  15.892  0.00  0.00    +0.000 A 
ATOM     12  C   UNL     1       5.580   4.173  15.775  0.00  0.00    +0.000 A 
ATOM     13  C   UNL     1       4.634   4.069  16.798  0.00  0.00    +0.000 A 
ATOM     14  C   UNL     1       4.768   4.799  17.986  0.00  0.00    +0.000 A 
ATOM     15  C   UNL     1       5.928   5.578  18.128  0.00  0.00    +0.000 A 
ATOM     16  C   UNL     1       6.881   5.710  17.105  0.00  0.00    +0.000 A 
BRANCH  11  18
ATOM     17  C   UNL     1       7.079   4.788  13.578  0.00  0.00    +0.000 C 
ATOM     18  O   UNL     1       7.548   5.221  14.855  0.00  0.00    +0.000 OA
ENDBRANCH  11  18
BRANCH  16  19
ATOM     19  O   UNL     1       7.901   6.543  17.477  0.00  0.00    +0.000 OA
ATOM     20  C   UNL     1       7.662   7.937  17.563  0.00  0.00    +0.000 C 
ENDBRANCH  16  19
ENDBRANCH   2  14
ENDBRANCH   1   8
BRANCH   1  21
ATOM     21  C   UNL     1       0.780   9.306  20.462  0.00  0.00    +0.000 A 
ATOM     22  C   UNL     1       0.605   9.327  21.852  0.00  0.00    +0.000 A 
ATOM     23  C   UNL     1      -0.224  10.277  22.437  0.00  0.00    +0.000 A 
ATOM     24  C   UNL     1      -0.903  11.216  21.649  0.00  0.00    +0.000 A 
ATOM     25  C   UNL     1      -0.759  11.191  20.260  0.00  0.00    +0.000 A 
ATOM     26  C   UNL     1       0.081  10.233  19.670  0.00  0.00    +0.000 A 
BRANCH  24  27
ATOM     27  C   UNL     1      -1.627  12.288  22.370  0.00  0.00    +0.000 C 
ATOM     28  O   UNL     1      -1.168  12.613  23.463  0.00  0.00    +0.000 OA
ATOM     29  N   UNL     1      -2.773  12.803  21.781  0.00  0.00    +0.000 N 
ATOM     30  H   UNL     1      -3.206  12.265  21.046  0.00  0.00    +0.000 HD
BRANCH  29  31
ATOM     31  C   UNL     1      -3.535  13.888  22.304  0.00  0.00    +0.000 A 
ATOM     32  C   UNL     1      -2.988  15.177  22.411  0.00  0.00    +0.000 A 
ATOM     33  C   UNL     1      -3.701  16.228  22.986  0.00  0.00    +0.000 A 
ATOM     34  C   UNL     1      -4.984  16.010  23.462  0.00  0.00    +0.000 A 
ATOM     35  C   UNL     1      -5.556  14.741  23.343  0.00  0.00    +0.000 A 
ATOM     36  C   UNL     1      -4.871  13.682  22.719  0.00  0.00    +0.000 A 
BRANCH  36  37
ATOM     37  N   UNL     1      -5.469  12.402  22.744  0.00  0.00    +0.000 N 
ATOM     38  H   UNL     1      -5.628  12.065  23.690  0.00  0.00    +0.000 HD
ATOM     39  H   UNL     1      -6.300  12.319  22.181  0.00  0.00    +0.000 HD
ENDBRANCH  36  37
ENDBRANCH  29  31
ENDBRANCH  24  27
ENDBRANCH   1  21
TORSDOF 8
ENDMDL
MODEL 7
REMARK VINA RESULT:      -9.0      6.229      9.700
REMARK  Name = 
REMARK  10 active torsions:
REMARK  status: ('A' for Active; 'I' for Inactive)
REMARK    1  A    between atoms: C_1  and  O_2
REMARK    2  A    between atoms: O_2  and  C_3
REMARK    3  A    between atoms: C_6  and  C_7
REMARK    4  A    between atoms: N_13  and  C_14
REMARK    5  A    between atoms: C_14  and  C_15
REMARK    6  A    between atoms: C_18  and  C_19
REMARK    7  A    between atoms: N_21  and  C_22
REMARK    8  A    between atoms: C_27  and  N_28
REMARK    9  A    between atoms: C_33  and  O_34
REMARK   10  A    between atoms: O_34  and  C_35
REMARK                            x       y       z     vdW  Elec       q    Type
REMARK                         _______ _______ _______ _____ _____    ______ ____
ROOT
ATOM      1  C   UNL     1       1.843   8.224  19.661  0.00  0.00    +0.000 C 
ENDROOT
BRANCH   1   8
ATOM      2  C   UNL     1       3.950   4.771  18.807  0.00  0.00    +0.000 A 
ATOM      3  C   UNL     1       3.621   3.610  19.469  0.00  0.00    +0.000 A 
ATOM      4  C   UNL     1       2.710   3.752  20.479  0.00  0.00    +0.000 A 
ATOM      5 CL   UNL     1       2.187   2.386  21.378  0.00  0.00    +0.000 Cl
ATOM      6  N   UNL     1       2.156   4.910  20.861  0.00  0.00    +0.000 NA
ATOM      7  C   UNL     1       2.553   5.988  20.189  0.00  0.00    +0.000 A 
ATOM      8  N   UNL     1       2.063   7.191  20.645  0.00  0.00    +0.000 N 
ATOM      9  N   UNL     1       3.419   5.957  19.170  0.00  0.00    +0.000 NA
ATOM     10  H   UNL     1       1.292   7.013  21.272  0.00  0.00    +0.000 HD
BRANCH   2  14
ATOM     11  C   UNL     1       6.663   5.028  15.463  0.00  0.00    +0.000 A 
ATOM     12  C   UNL     1       5.709   4.003  15.536  0.00  0.00    +0.000 A 
ATOM     13  C   UNL     1       4.839   3.909  16.626  0.00  0.00    +0.000 A 
ATOM     14  C   UNL     1       4.916   4.811  17.695  0.00  0.00    +0.000 A 
ATOM     15  C   UNL     1       5.950   5.760  17.653  0.00  0.00    +0.000 A 
ATOM     16  C   UNL     1       6.822   5.883  16.559  0.00  0.00    +0.000 A 
BRANCH  11  18
ATOM     17  C   UNL     1       7.028   4.457  13.199  0.00  0.00    +0.000 C 
ATOM     18  O   UNL     1       7.449   5.182  14.355  0.00  0.00    +0.000 OA
ENDBRANCH  11  18
BRANCH  16  19
ATOM     19  O   UNL     1       7.721   6.898  16.748  0.00  0.00    +0.000 OA
ATOM     20  C   UNL     1       7.417   7.930  17.670  0.00  0.00    +0.000 C 
ENDBRANCH  16  19
ENDBRANCH   2  14
ENDBRANCH   1   8
BRANCH   1  21
ATOM     21  C   UNL     1       0.905   9.242  20.268  0.00  0.00    +0.000 A 
ATOM     22  C   UNL     1       0.735   9.248  21.659  0.00  0.00    +0.000 A 
ATOM     23  C   UNL     1      -0.120  10.168  22.254  0.00  0.00    +0.000 A 
ATOM     24  C   UNL     1      -0.832  11.091  21.474  0.00  0.00    +0.000 A 
ATOM     25  C   UNL     1      -0.693  11.079  20.084  0.00  0.00    +0.000 A 
ATOM     26  C   UNL     1       0.174  10.151  19.485  0.00  0.00    +0.000 A 
BRANCH  24  27
ATOM     27  C   UNL     1      -1.586  12.135  22.205  0.00  0.00    +0.000 C 
ATOM     28  O   UNL     1      -1.063  12.566  23.230  0.00  0.00    +0.000 OA
ATOM     29  N   UNL     1      -2.825  12.508  21.703  0.00  0.00    +0.000 N 
ATOM     30  H   UNL     1      -3.270  11.889  21.042  0.00  0.00    +0.000 HD
BRANCH  29  31
ATOM     31  C   UNL     1      -3.637  13.549  22.240  0.00  0.00    +0.000 A 
ATOM     32  C   UNL     1      -4.459  13.328  23.358  0.00  0.00    +0.000 A 
ATOM     33  C   UNL     1      -5.307  14.319  23.848  0.00  0.00    +0.000 A 
ATOM     34  C   UNL     1      -5.347  15.559  23.229  0.00  0.00    +0.000 A 
ATOM     35  C   UNL     1      -4.521  15.807  22.131  0.00  0.00    +0.000 A 
ATOM     36  C   UNL     1      -3.619  14.836  21.655  0.00  0.00    +0.000 A 
BRANCH  36  37
ATOM     37  N   UNL     1      -2.905  15.121  20.470  0.00  0.00    +0.000 N 
ATOM     38  H   UNL     1      -1.991  15.524  20.654  0.00  0.00    +0.000 HD
ATOM     39  H   UNL     1      -2.843  14.350  19.825  0.00  0.00    +0.000 HD
ENDBRANCH  36  37
ENDBRANCH  29  31
ENDBRANCH  24  27
ENDBRANCH   1  21
TORSDOF 8
ENDMDL
MODEL 8
REMARK VINA RESULT:      -9.0      6.171      9.428
REMARK  Name = 
REMARK  10 active torsions:
REMARK  status: ('A' for Active; 'I' for Inactive)
REMARK    1  A    between atoms: C_1  and  O_2
REMARK    2  A    between atoms: O_2  and  C_3
REMARK    3  A    between atoms: C_6  and  C_7
REMARK    4  A    between atoms: N_13  and  C_14
REMARK    5  A    between atoms: C_14  and  C_15
REMARK    6  A    between atoms: C_18  and  C_19
REMARK    7  A    between atoms: N_21  and  C_22
REMARK    8  A    between atoms: C_27  and  N_28
REMARK    9  A    between atoms: C_33  and  O_34
REMARK   10  A    between atoms: O_34  and  C_35
REMARK                            x       y       z     vdW  Elec       q    Type
REMARK                         _______ _______ _______ _____ _____    ______ ____
ROOT
ATOM      1  C   UNL     1       1.734   8.295  19.105  0.00  0.00    +0.000 C 
ENDROOT
BRANCH   1   8
ATOM      2  C   UNL     1       4.056   4.898  18.700  0.00  0.00    +0.000 A 
ATOM      3  C   UNL     1       3.774   3.802  19.482  0.00  0.00    +0.000 A 
ATOM      4  C   UNL     1       2.827   4.004  20.448  0.00  0.00    +0.000 A 
ATOM      5 CL   UNL     1       2.356   2.719  21.486  0.00  0.00    +0.000 Cl
ATOM      6  N   UNL     1       2.198   5.162  20.682  0.00  0.00    +0.000 NA
ATOM      7  C   UNL     1       2.553   6.179  19.900  0.00  0.00    +0.000 A 
ATOM      8  N   UNL     1       1.983   7.395  20.205  0.00  0.00    +0.000 N 
ATOM      9  N   UNL     1       3.449   6.085  18.911  0.00  0.00    +0.000 NA
ATOM     10  H   UNL     1       1.205   7.243  20.831  0.00  0.00    +0.000 HD
BRANCH   2  14
ATOM     11  C   UNL     1       6.851   4.944  15.413  0.00  0.00    +0.000 A 
ATOM     12  C   UNL     1       5.919   3.905  15.549  0.00  0.00    +0.000 A 
ATOM     13  C   UNL     1       5.022   3.881  16.620  0.00  0.00    +0.000 A 
ATOM     14  C   UNL     1       5.051   4.870  17.612  0.00  0.00    +0.000 A 
ATOM     15  C   UNL     1       6.063   5.838  17.517  0.00  0.00    +0.000 A 
ATOM     16  C   UNL     1       6.962   5.891  16.439  0.00  0.00    +0.000 A 
BRANCH  11  18
ATOM     17  C   UNL     1       7.094   4.549  13.096  0.00  0.00    +0.000 C 
ATOM     18  O   UNL     1       7.664   5.025  14.316  0.00  0.00    +0.000 OA
ENDBRANCH  11  18
BRANCH  16  19
ATOM     19  O   UNL     1       7.832   6.939  16.564  0.00  0.00    +0.000 OA
ATOM     20  C   UNL     1       7.645   7.873  17.613  0.00  0.00    +0.000 C 
ENDBRANCH  16  19
ENDBRANCH   2  14
ENDBRANCH   1   8
BRANCH   1  21
ATOM     21  C   UNL     1       0.916   9.451  19.634  0.00  0.00    +0.000 A 
ATOM     22  C   UNL     1       0.366   9.346  20.919  0.00  0.00    +0.000 A 
ATOM     23  C   UNL     1      -0.393  10.388  21.440  0.00  0.00    +0.000 A 
ATOM     24  C   UNL     1      -0.629  11.546  20.687  0.00  0.00    +0.000 A 
ATOM     25  C   UNL     1      -0.110  11.653  19.394  0.00  0.00    +0.000 A 
ATOM     26  C   UNL     1       0.659  10.602  18.870  0.00  0.00    +0.000 A 
BRANCH  24  27
ATOM     27  C   UNL     1      -1.305  12.665  21.385  0.00  0.00    +0.000 C 
ATOM     28  O   UNL     1      -1.929  13.449  20.675  0.00  0.00    +0.000 OA
ATOM     29  N   UNL     1      -1.145  12.758  22.760  0.00  0.00    +0.000 N 
ATOM     30  H   UNL     1      -0.387  12.243  23.181  0.00  0.00    +0.000 HD
BRANCH  29  31
ATOM     31  C   UNL     1      -1.792  13.723  23.587  0.00  0.00    +0.000 A 
ATOM     32  C   UNL     1      -1.155  14.926  23.936  0.00  0.00    +0.000 A 
ATOM     33  C   UNL     1      -1.750  15.844  24.799  0.00  0.00    +0.000 A 
ATOM     34  C   UNL     1      -3.003  15.577  25.328  0.00  0.00    +0.000 A 
ATOM     35  C   UNL     1      -3.664  14.399  24.975  0.00  0.00    +0.000 A 
ATOM     36  C   UNL     1      -3.101  13.486  24.064  0.00  0.00    +0.000 A 
BRANCH  36  37
ATOM     37  N   UNL     1      -3.777  12.264  23.850  0.00  0.00    +0.000 N 
ATOM     38  H   UNL     1      -4.582  12.152  24.461  0.00  0.00    +0.000 HD
ATOM     39  H   UNL     1      -4.019  12.084  22.889  0.00  0.00    +0.000 HD
ENDBRANCH  36  37
ENDBRANCH  29  31
ENDBRANCH  24  27
ENDBRANCH   1  21
TORSDOF 8
ENDMDL
MODEL 9
REMARK VINA RESULT:      -8.9      6.363     10.451
REMARK  Name = 
REMARK  10 active torsions:
REMARK  status: ('A' for Active; 'I' for Inactive)
REMARK    1  A    between atoms: C_1  and  O_2
REMARK    2  A    between atoms: O_2  and  C_3
REMARK    3  A    between atoms: C_6  and  C_7
REMARK    4  A    between atoms: N_13  and  C_14
REMARK    5  A    between atoms: C_14  and  C_15
REMARK    6  A    between atoms: C_18  and  C_19
REMARK    7  A    between atoms: N_21  and  C_22
REMARK    8  A    between atoms: C_27  and  N_28
REMARK    9  A    between atoms: C_33  and  O_34
REMARK   10  A    between atoms: O_34  and  C_35
REMARK                            x       y       z     vdW  Elec       q    Type
REMARK                         _______ _______ _______ _____ _____    ______ ____
ROOT
ATOM      1  C   UNL     1       2.048   8.968  19.309  0.00  0.00    +0.000 C 
ENDROOT
BRANCH   1   8
ATOM      2  C   UNL     1       3.554   5.160  18.737  0.00  0.00    +0.000 A 
ATOM      3  C   UNL     1       2.949   4.102  19.375  0.00  0.00    +0.000 A 
ATOM      4  C   UNL     1       1.980   4.443  20.279  0.00  0.00    +0.000 A 
ATOM      5 CL   UNL     1       1.122   3.227  21.135  0.00  0.00    +0.000 Cl
ATOM      6  N   UNL     1       1.615   5.695  20.582  0.00  0.00    +0.000 NA
ATOM      7  C   UNL     1       2.272   6.658  19.942  0.00  0.00    +0.000 A 
ATOM      8  N   UNL     1       1.970   7.946  20.325  0.00  0.00    +0.000 N 
ATOM      9  N   UNL     1       3.218   6.435  19.023  0.00  0.00    +0.000 NA
ATOM     10  H   UNL     1       1.118   7.933  20.867  0.00  0.00    +0.000 HD
BRANCH   2  14
ATOM     11  C   UNL     1       6.573   4.766  15.680  0.00  0.00    +0.000 A 
ATOM     12  C   UNL     1       5.605   3.768  15.866  0.00  0.00    +0.000 A 
ATOM     13  C   UNL     1       4.635   3.887  16.865  0.00  0.00    +0.000 A 
ATOM     14  C   UNL     1       4.622   4.985  17.735  0.00  0.00    +0.000 A 
ATOM     15  C   UNL     1       5.665   5.915  17.603  0.00  0.00    +0.000 A 
ATOM     16  C   UNL     1       6.638   5.824  16.594  0.00  0.00    +0.000 A 
BRANCH  11  18
ATOM     17  C   UNL     1       6.905   4.334  13.380  0.00  0.00    +0.000 C 
ATOM     18  O   UNL     1       7.462   4.702  14.643  0.00  0.00    +0.000 OA
ENDBRANCH  11  18
BRANCH  16  19
ATOM     19  O   UNL     1       7.526   6.863  16.660  0.00  0.00    +0.000 OA
ATOM     20  C   UNL     1       7.766   7.491  17.908  0.00  0.00    +0.000 C 
ENDBRANCH  16  19
ENDBRANCH   2  14
ENDBRANCH   1   8
BRANCH   1  21
ATOM     21  C   UNL     1       0.787   9.796  19.394  0.00  0.00    +0.000 A 
ATOM     22  C   UNL     1       0.174  10.204  18.202  0.00  0.00    +0.000 A 
ATOM     23  C   UNL     1      -0.986  10.969  18.240  0.00  0.00    +0.000 A 
ATOM     24  C   UNL     1      -1.550  11.352  19.465  0.00  0.00    +0.000 A 
ATOM     25  C   UNL     1      -0.935  10.975  20.661  0.00  0.00    +0.000 A 
ATOM     26  C   UNL     1       0.235  10.200  20.622  0.00  0.00    +0.000 A 
BRANCH  24  27
ATOM     27  C   UNL     1      -2.871  12.020  19.407  0.00  0.00    +0.000 C 
ATOM     28  O   UNL     1      -2.951  13.114  19.962  0.00  0.00    +0.000 OA
ATOM     29  N   UNL     1      -3.908  11.347  18.775  0.00  0.00    +0.000 N 
ATOM     30  H   UNL     1      -3.802  10.355  18.625  0.00  0.00    +0.000 HD
BRANCH  29  31
ATOM     31  C   UNL     1      -5.212  11.883  18.565  0.00  0.00    +0.000 A 
ATOM     32  C   UNL     1      -5.653  12.240  17.280  0.00  0.00    +0.000 A 
ATOM     33  C   UNL     1      -6.899  12.830  17.073  0.00  0.00    +0.000 A 
ATOM     34  C   UNL     1      -7.734  13.070  18.153  0.00  0.00    +0.000 A 
ATOM     35  C   UNL     1      -7.325  12.701  19.436  0.00  0.00    +0.000 A 
ATOM     36  C   UNL     1      -6.092  12.057  19.657  0.00  0.00    +0.000 A 
BRANCH  36  37
ATOM     37  N   UNL     1      -5.699  11.823  20.994  0.00  0.00    +0.000 N 
ATOM     38  H   UNL     1      -4.835  11.293  21.058  0.00  0.00    +0.000 HD
ATOM     39  H   UNL     1      -5.666  12.650  21.569  0.00  0.00    +0.000 HD
ENDBRANCH  36  37
ENDBRANCH  29  31
ENDBRANCH  24  27
ENDBRANCH   1  21
TORSDOF 8
ENDMDL
