MODEL 1
REMARK VINA RESULT:      -9.1      0.000      0.000
REMARK  Name = 
REMARK  5 active torsions:
REMARK  status: ('A' for Active; 'I' for Inactive)
REMARK    1  A    between atoms: C_2  and  C_21
REMARK    2  A    between atoms: N_3  and  C_4
REMARK    3  A    between atoms: N_6  and  C_7
REMARK    4  A    between atoms: C_14  and  C_15
REMARK    5  A    between atoms: C_24  and  N_25
REMARK                            x       y       z     vdW  Elec       q    Type
REMARK                         _______ _______ _______ _____ _____    ______ ____
ROOT
ATOM      1  C   UNL     1       2.347   7.116  19.315  0.00  0.00    +0.000 A 
ATOM      2  C   UNL     1       1.923   8.388  19.593  0.00  0.00    +0.000 A 
ATOM      3  N   UNL     1       1.110   8.318  20.693  0.00  0.00    +0.000 N 
ATOM      4  N   UNL     1       0.971   7.040  21.128  0.00  0.00    +0.000 NA
ATOM      5  C   UNL     1       1.694   6.291  20.278  0.00  0.00    +0.000 A 
ENDROOT
BRANCH   3   6
ATOM      6  C   UNL     1       0.478   9.401  21.364  0.00  0.00    +0.000 A 
ATOM      7  C   UNL     1      -0.218   9.197  22.564  0.00  0.00    +0.000 A 
ATOM      8  C   UNL     1      -0.842  10.272  23.202  0.00  0.00    +0.000 A 
ATOM      9  C   UNL     1      -0.770  11.548  22.653  0.00  0.00    +0.000 A 
ATOM     10  C   UNL     1      -0.079  11.758  21.461  0.00  0.00    +0.000 A 
ATOM     11  C   UNL     1       0.545  10.690  20.815  0.00  0.00    +0.000 A 
ENDBRANCH   3   6
BRANCH   5  12
ATOM     12  C   UNL     1       1.715   4.828  20.395  0.00  0.00    +0.000 A 
ATOM     13  C   UNL     1       2.278   4.196  21.517  0.00  0.00    +0.000 A 
ATOM     14  C   UNL     1       2.285   2.802  21.623  0.00  0.00    +0.000 A 
ATOM     15  C   UNL     1       1.752   2.024  20.598  0.00  0.00    +0.000 A 
ATOM     16  C   UNL     1       1.216   2.636  19.466  0.00  0.00    +0.000 A 
ATOM     17  C   UNL     1       1.198   4.029  19.365  0.00  0.00    +0.000 A 
ENDBRANCH   5  12
BRANCH   1  20
ATOM     18  O   UNL     1       4.801   5.598  19.629  0.00  0.00    +0.000 OA
ATOM     19  C   UNL     1       4.390   6.005  18.549  0.00  0.00    +0.000 C 
ATOM     20  N   UNL     1       3.243   6.742  18.328  0.00  0.00    +0.000 N 
ATOM     21  H   UNL     1       2.993   7.024  17.390  0.00  0.00    +0.000 HD
BRANCH  19  22
ATOM     22  C   UNL     1       5.181   5.691  17.330  0.00  0.00    +0.000 A 
ATOM     23  C   UNL     1       4.589   4.878  16.351  0.00  0.00    +0.000 A 
ATOM     24  C   UNL     1       5.272   4.588  15.169  0.00  0.00    +0.000 A 
ATOM     25  C   UNL     1       6.558   5.110  14.972  0.00  0.00    +0.000 A 
ATOM     26  C   UNL     1       7.170   5.893  15.958  0.00  0.00    +0.000 A 
ATOM     27  C   UNL     1       6.485   6.175  17.142  0.00  0.00    +0.000 A 
BRANCH  25  28
ATOM     28  N   UNL     1       7.272   4.837  13.719  0.00  0.00    +0.000 N 
ATOM     29  O   UNL     1       6.862   3.905  13.013  0.00  0.00    +0.000 OA
ATOM     30  O   UNL     1       8.235   5.562  13.438  0.00  0.00    +0.000 OA
ENDBRANCH  25  28
ENDBRANCH  19  22
ENDBRANCH   1  20
TORSDOF 5
ENDMDL
MODEL 2
REMARK VINA RESULT:      -9.1      0.076      1.270
REMARK  Name = 
REMARK  5 active torsions:
REMARK  status: ('A' for Active; 'I' for Inactive)
REMARK    1  A    between atoms: C_2  and  C_21
REMARK    2  A    between atoms: N_3  and  C_4
REMARK    3  A    between atoms: N_6  and  C_7
REMARK    4  A    between atoms: C_14  and  C_15
REMARK    5  A    between atoms: C_24  and  N_25
REMARK                            x       y       z     vdW  Elec       q    Type
REMARK                         _______ _______ _______ _____ _____    ______ ____
ROOT
ATOM      1  C   UNL     1       2.358   7.119  19.262  0.00  0.00    +0.000 A 
ATOM      2  C   UNL     1       1.929   8.389  19.538  0.00  0.00    +0.000 A 
ATOM      3  N   UNL     1       1.121   8.318  20.642  0.00  0.00    +0.000 N 
ATOM      4  N   UNL     1       0.990   7.041  21.082  0.00  0.00    +0.000 NA
ATOM      5  C   UNL     1       1.713   6.293  20.230  0.00  0.00    +0.000 A 
ENDROOT
BRANCH   3   6
ATOM      6  C   UNL     1       0.487   9.400  21.313  0.00  0.00    +0.000 A 
ATOM      7  C   UNL     1       0.560  10.704  20.803  0.00  0.00    +0.000 A 
ATOM      8  C   UNL     1      -0.059  11.757  21.483  0.00  0.00    +0.000 A 
ATOM      9  C   UNL     1      -0.753  11.514  22.664  0.00  0.00    +0.000 A 
ATOM     10  C   UNL     1      -0.830  10.219  23.175  0.00  0.00    +0.000 A 
ATOM     11  C   UNL     1      -0.213   9.162  22.504  0.00  0.00    +0.000 A 
ENDBRANCH   3   6
BRANCH   5  12
ATOM     12  C   UNL     1       1.743   4.830  20.351  0.00  0.00    +0.000 A 
ATOM     13  C   UNL     1       1.249   4.005  19.327  0.00  0.00    +0.000 A 
ATOM     14  C   UNL     1       1.289   2.613  19.448  0.00  0.00    +0.000 A 
ATOM     15  C   UNL     1       1.802   2.031  20.604  0.00  0.00    +0.000 A 
ATOM     16  C   UNL     1       2.269   2.836  21.641  0.00  0.00    +0.000 A 
ATOM     17  C   UNL     1       2.239   4.227  21.516  0.00  0.00    +0.000 A 
ENDBRANCH   5  12
BRANCH   1  20
ATOM     18  O   UNL     1       4.809   5.593  19.567  0.00  0.00    +0.000 OA
ATOM     19  C   UNL     1       4.398   6.006  18.488  0.00  0.00    +0.000 C 
ATOM     20  N   UNL     1       3.252   6.746  18.273  0.00  0.00    +0.000 N 
ATOM     21  H   UNL     1       3.001   7.032  17.336  0.00  0.00    +0.000 HD
BRANCH  19  22
ATOM     22  C   UNL     1       5.186   5.694  17.267  0.00  0.00    +0.000 A 
ATOM     23  C   UNL     1       4.644   4.783  16.348  0.00  0.00    +0.000 A 
ATOM     24  C   UNL     1       5.324   4.489  15.164  0.00  0.00    +0.000 A 
ATOM     25  C   UNL     1       6.556   5.106  14.908  0.00  0.00    +0.000 A 
ATOM     26  C   UNL     1       7.120   5.989  15.836  0.00  0.00    +0.000 A 
ATOM     27  C   UNL     1       6.439   6.275  17.021  0.00  0.00    +0.000 A 
BRANCH  25  28
ATOM     28  N   UNL     1       7.263   4.827  13.651  0.00  0.00    +0.000 N 
ATOM     29  O   UNL     1       6.816   3.929  12.925  0.00  0.00    +0.000 OA
ATOM     30  O   UNL     1       8.259   5.514  13.389  0.00  0.00    +0.000 OA
ENDBRANCH  25  28
ENDBRANCH  19  22
ENDBRANCH   1  20
TORSDOF 5
ENDMDL
MODEL 3
REMARK VINA RESULT:      -9.0      0.546      1.266
REMARK  Name = 
REMARK  5 active torsions:
REMARK  status: ('A' for Active; 'I' for Inactive)
REMARK    1  A    between atoms: C_2  and  C_21
REMARK    2  A    between atoms: N_3  and  C_4
REMARK    3  A    between atoms: N_6  and  C_7
REMARK    4  A    between atoms: C_14  and  C_15
REMARK    5  A    between atoms: C_24  and  N_25
REMARK                            x       y       z     vdW  Elec       q    Type
REMARK                         _______ _______ _______ _____ _____    ______ ____
ROOT
ATOM      1  C   UNL     1       2.268   7.080  19.233  0.00  0.00    +0.000 A 
ATOM      2  C   UNL     1       1.856   8.360  19.491  0.00  0.00    +0.000 A 
ATOM      3  N   UNL     1       1.101   8.325  20.634  0.00  0.00    +0.000 N 
ATOM      4  N   UNL     1       0.989   7.062  21.117  0.00  0.00    +0.000 NA
ATOM      5  C   UNL     1       1.668   6.286  20.255  0.00  0.00    +0.000 A 
ENDROOT
BRANCH   3   6
ATOM      6  C   UNL     1       0.503   9.429  21.301  0.00  0.00    +0.000 A 
ATOM      7  C   UNL     1      -0.241   9.244  22.475  0.00  0.00    +0.000 A 
ATOM      8  C   UNL     1      -0.831  10.340  23.109  0.00  0.00    +0.000 A 
ATOM      9  C   UNL     1      -0.679  11.618  22.582  0.00  0.00    +0.000 A 
ATOM     10  C   UNL     1       0.060  11.809  21.416  0.00  0.00    +0.000 A 
ATOM     11  C   UNL     1       0.651  10.720  20.774  0.00  0.00    +0.000 A 
ENDBRANCH   3   6
BRANCH   5  12
ATOM     12  C   UNL     1       1.699   4.827  20.419  0.00  0.00    +0.000 A 
ATOM     13  C   UNL     1       1.132   3.975  19.457  0.00  0.00    +0.000 A 
ATOM     14  C   UNL     1       1.175   2.587  19.617  0.00  0.00    +0.000 A 
ATOM     15  C   UNL     1       1.764   2.036  20.753  0.00  0.00    +0.000 A 
ATOM     16  C   UNL     1       2.305   2.870  21.730  0.00  0.00    +0.000 A 
ATOM     17  C   UNL     1       2.272   4.257  21.564  0.00  0.00    +0.000 A 
ENDBRANCH   5  12
BRANCH   1  20
ATOM     18  O   UNL     1       4.767   5.622  19.473  0.00  0.00    +0.000 OA
ATOM     19  C   UNL     1       4.286   5.969  18.400  0.00  0.00    +0.000 C 
ATOM     20  N   UNL     1       3.113   6.674  18.214  0.00  0.00    +0.000 N 
ATOM     21  H   UNL     1       2.802   6.906  17.280  0.00  0.00    +0.000 HD
BRANCH  19  22
ATOM     22  C   UNL     1       5.010   5.610  17.153  0.00  0.00    +0.000 A 
ATOM     23  C   UNL     1       4.950   6.506  16.075  0.00  0.00    +0.000 A 
ATOM     24  C   UNL     1       5.649   6.237  14.896  0.00  0.00    +0.000 A 
ATOM     25  C   UNL     1       6.402   5.060  14.797  0.00  0.00    +0.000 A 
ATOM     26  C   UNL     1       6.439   4.143  15.855  0.00  0.00    +0.000 A 
ATOM     27  C   UNL     1       5.734   4.414  17.029  0.00  0.00    +0.000 A 
BRANCH  25  28
ATOM     28  N   UNL     1       7.165   4.784  13.574  0.00  0.00    +0.000 N 
ATOM     29  O   UNL     1       8.100   5.546  13.293  0.00  0.00    +0.000 OA
ATOM     30  O   UNL     1       6.834   3.799  12.901  0.00  0.00    +0.000 OA
ENDBRANCH  25  28
ENDBRANCH  19  22
ENDBRANCH   1  20
TORSDOF 5
ENDMDL
MODEL 4
REMARK VINA RESULT:      -8.8      0.190      1.273
REMARK  Name = 
REMARK  5 active torsions:
REMARK  status: ('A' for Active; 'I' for Inactive)
REMARK    1  A    between atoms: C_2  and  C_21
REMARK    2  A    between atoms: N_3  and  C_4
REMARK    3  A    between atoms: N_6  and  C_7
REMARK    4  A    between atoms: C_14  and  C_15
REMARK    5  A    between atoms: C_24  and  N_25
REMARK                            x       y       z     vdW  Elec       q    Type
REMARK                         _______ _______ _______ _____ _____    ______ ____
ROOT
ATOM      1  C   UNL     1       2.236   7.169  19.273  0.00  0.00    +0.000 A 
ATOM      2  C   UNL     1       1.810   8.441  19.547  0.00  0.00    +0.000 A 
ATOM      3  N   UNL     1       1.047   8.381  20.684  0.00  0.00    +0.000 N 
ATOM      4  N   UNL     1       0.943   7.110  21.147  0.00  0.00    +0.000 NA
ATOM      5  C   UNL     1       1.637   6.354  20.278  0.00  0.00    +0.000 A 
ENDROOT
BRANCH   3   6
ATOM      6  C   UNL     1       0.432   9.469  21.363  0.00  0.00    +0.000 A 
ATOM      7  C   UNL     1       0.545  10.778  20.874  0.00  0.00    +0.000 A 
ATOM      8  C   UNL     1      -0.055  11.836  21.563  0.00  0.00    +0.000 A 
ATOM      9  C   UNL     1      -0.770  11.593  22.731  0.00  0.00    +0.000 A 
ATOM     10  C   UNL     1      -0.887  10.293  23.221  0.00  0.00    +0.000 A 
ATOM     11  C   UNL     1      -0.289   9.232  22.541  0.00  0.00    +0.000 A 
ENDBRANCH   3   6
BRANCH   5  12
ATOM     12  C   UNL     1       1.681   4.893  20.420  0.00  0.00    +0.000 A 
ATOM     13  C   UNL     1       2.286   4.288  21.535  0.00  0.00    +0.000 A 
ATOM     14  C   UNL     1       2.316   2.897  21.664  0.00  0.00    +0.000 A 
ATOM     15  C   UNL     1       1.762   2.094  20.670  0.00  0.00    +0.000 A 
ATOM     16  C   UNL     1       1.183   2.679  19.545  0.00  0.00    +0.000 A 
ATOM     17  C   UNL     1       1.144   4.070  19.421  0.00  0.00    +0.000 A 
ENDBRANCH   5  12
BRANCH   1  20
ATOM     18  O   UNL     1       4.691   5.635  19.498  0.00  0.00    +0.000 OA
ATOM     19  C   UNL     1       4.242   6.043  18.433  0.00  0.00    +0.000 C 
ATOM     20  N   UNL     1       3.092   6.787  18.254  0.00  0.00    +0.000 N 
ATOM     21  H   UNL     1       2.809   7.069  17.326  0.00  0.00    +0.000 HD
BRANCH  19  22
ATOM     22  C   UNL     1       4.985   5.722  17.185  0.00  0.00    +0.000 A 
ATOM     23  C   UNL     1       6.101   6.509  16.861  0.00  0.00    +0.000 A 
ATOM     24  C   UNL     1       6.858   6.222  15.725  0.00  0.00    +0.000 A 
ATOM     25  C   UNL     1       6.489   5.146  14.906  0.00  0.00    +0.000 A 
ATOM     26  C   UNL     1       5.356   4.378  15.202  0.00  0.00    +0.000 A 
ATOM     27  C   UNL     1       4.599   4.673  16.337  0.00  0.00    +0.000 A 
BRANCH  25  28
ATOM     28  N   UNL     1       7.297   4.817  13.725  0.00  0.00    +0.000 N 
ATOM     29  O   UNL     1       6.894   3.909  12.986  0.00  0.00    +0.000 OA
ATOM     30  O   UNL     1       8.330   5.474  13.536  0.00  0.00    +0.000 OA
ENDBRANCH  25  28
ENDBRANCH  19  22
ENDBRANCH   1  20
TORSDOF 5
ENDMDL
MODEL 5
REMARK VINA RESULT:      -8.5      2.930      8.275
REMARK  Name = 
REMARK  5 active torsions:
REMARK  status: ('A' for Active; 'I' for Inactive)
REMARK    1  A    between atoms: C_2  and  C_21
REMARK    2  A    between atoms: N_3  and  C_4
REMARK    3  A    between atoms: N_6  and  C_7
REMARK    4  A    between atoms: C_14  and  C_15
REMARK    5  A    between atoms: C_24  and  N_25
REMARK                            x       y       z     vdW  Elec       q    Type
REMARK                         _______ _______ _______ _____ _____    ______ ____
ROOT
ATOM      1  C   UNL     1       3.441   6.214  18.196  0.00  0.00    +0.000 A 
ATOM      2  C   UNL     1       4.276   6.419  17.131  0.00  0.00    +0.000 A 
ATOM      3  N   UNL     1       4.659   5.187  16.668  0.00  0.00    +0.000 N 
ATOM      4  N   UNL     1       4.119   4.187  17.409  0.00  0.00    +0.000 NA
ATOM      5  C   UNL     1       3.399   4.799  18.366  0.00  0.00    +0.000 A 
ENDROOT
BRANCH   3   6
ATOM      6  C   UNL     1       5.489   4.912  15.546  0.00  0.00    +0.000 A 
ATOM      7  C   UNL     1       6.789   5.432  15.469  0.00  0.00    +0.000 A 
ATOM      8  C   UNL     1       7.586   5.160  14.353  0.00  0.00    +0.000 A 
ATOM      9  C   UNL     1       7.094   4.370  13.319  0.00  0.00    +0.000 A 
ATOM     10  C   UNL     1       5.803   3.849  13.391  0.00  0.00    +0.000 A 
ATOM     11  C   UNL     1       5.000   4.118  14.500  0.00  0.00    +0.000 A 
ENDBRANCH   3   6
BRANCH   5  12
ATOM     12  C   UNL     1       2.726   4.021  19.414  0.00  0.00    +0.000 A 
ATOM     13  C   UNL     1       3.461   3.298  20.369  0.00  0.00    +0.000 A 
ATOM     14  C   UNL     1       2.811   2.568  21.368  0.00  0.00    +0.000 A 
ATOM     15  C   UNL     1       1.419   2.534  21.410  0.00  0.00    +0.000 A 
ATOM     16  C   UNL     1       0.676   3.224  20.453  0.00  0.00    +0.000 A 
ATOM     17  C   UNL     1       1.326   3.962  19.461  0.00  0.00    +0.000 A 
ENDBRANCH   5  12
BRANCH   1  20
ATOM     18  O   UNL     1       2.171   8.616  17.175  0.00  0.00    +0.000 OA
ATOM     19  C   UNL     1       2.173   8.303  18.359  0.00  0.00    +0.000 C 
ATOM     20  N   UNL     1       2.768   7.187  18.915  0.00  0.00    +0.000 N 
ATOM     21  H   UNL     1       2.704   7.020  19.910  0.00  0.00    +0.000 HD
BRANCH  19  22
ATOM     22  C   UNL     1       1.474   9.191  19.325  0.00  0.00    +0.000 A 
ATOM     23  C   UNL     1       1.230   8.699  20.616  0.00  0.00    +0.000 A 
ATOM     24  C   UNL     1       0.616   9.508  21.574  0.00  0.00    +0.000 A 
ATOM     25  C   UNL     1       0.237  10.812  21.231  0.00  0.00    +0.000 A 
ATOM     26  C   UNL     1       0.444  11.300  19.934  0.00  0.00    +0.000 A 
ATOM     27  C   UNL     1       1.054  10.484  18.979  0.00  0.00    +0.000 A 
BRANCH  25  28
ATOM     28  N   UNL     1      -0.382  11.681  22.240  0.00  0.00    +0.000 N 
ATOM     29  O   UNL     1      -0.693  11.173  23.325  0.00  0.00    +0.000 OA
ATOM     30  O   UNL     1      -0.546  12.873  21.948  0.00  0.00    +0.000 OA
ENDBRANCH  25  28
ENDBRANCH  19  22
ENDBRANCH   1  20
TORSDOF 5
ENDMDL
MODEL 6
REMARK VINA RESULT:      -8.5      2.916      8.309
REMARK  Name = 
REMARK  5 active torsions:
REMARK  status: ('A' for Active; 'I' for Inactive)
REMARK    1  A    between atoms: C_2  and  C_21
REMARK    2  A    between atoms: N_3  and  C_4
REMARK    3  A    between atoms: N_6  and  C_7
REMARK    4  A    between atoms: C_14  and  C_15
REMARK    5  A    between atoms: C_24  and  N_25
REMARK                            x       y       z     vdW  Elec       q    Type
REMARK                         _______ _______ _______ _____ _____    ______ ____
ROOT
ATOM      1  C   UNL     1       3.412   6.155  18.267  0.00  0.00    +0.000 A 
ATOM      2  C   UNL     1       4.234   6.375  17.194  0.00  0.00    +0.000 A 
ATOM      3  N   UNL     1       4.617   5.149  16.715  0.00  0.00    +0.000 N 
ATOM      4  N   UNL     1       4.091   4.140  17.453  0.00  0.00    +0.000 NA
ATOM      5  C   UNL     1       3.379   4.738  18.424  0.00  0.00    +0.000 A 
ENDROOT
BRANCH   3   6
ATOM      6  C   UNL     1       5.436   4.889  15.581  0.00  0.00    +0.000 A 
ATOM      7  C   UNL     1       4.940   4.167  14.486  0.00  0.00    +0.000 A 
ATOM      8  C   UNL     1       5.763   3.911  13.387  0.00  0.00    +0.000 A 
ATOM      9  C   UNL     1       7.075   4.375  13.372  0.00  0.00    +0.000 A 
ATOM     10  C   UNL     1       7.573   5.094  14.458  0.00  0.00    +0.000 A 
ATOM     11  C   UNL     1       6.758   5.353  15.561  0.00  0.00    +0.000 A 
ENDBRANCH   3   6
BRANCH   5  12
ATOM     12  C   UNL     1       2.722   3.948  19.472  0.00  0.00    +0.000 A 
ATOM     13  C   UNL     1       1.323   3.932  19.602  0.00  0.00    +0.000 A 
ATOM     14  C   UNL     1       0.707   3.169  20.598  0.00  0.00    +0.000 A 
ATOM     15  C   UNL     1       1.483   2.432  21.490  0.00  0.00    +0.000 A 
ATOM     16  C   UNL     1       2.873   2.461  21.391  0.00  0.00    +0.000 A 
ATOM     17  C   UNL     1       3.488   3.214  20.389  0.00  0.00    +0.000 A 
ENDBRANCH   5  12
BRANCH   1  20
ATOM     18  O   UNL     1       2.172   8.593  17.291  0.00  0.00    +0.000 OA
ATOM     19  C   UNL     1       2.163   8.252  18.468  0.00  0.00    +0.000 C 
ATOM     20  N   UNL     1       2.742   7.118  19.003  0.00  0.00    +0.000 N 
ATOM     21  H   UNL     1       2.670   6.929  19.993  0.00  0.00    +0.000 HD
BRANCH  19  22
ATOM     22  C   UNL     1       1.464   9.125  19.449  0.00  0.00    +0.000 A 
ATOM     23  C   UNL     1       1.275   8.634  20.750  0.00  0.00    +0.000 A 
ATOM     24  C   UNL     1       0.664   9.430  21.720  0.00  0.00    +0.000 A 
ATOM     25  C   UNL     1       0.233  10.719  21.380  0.00  0.00    +0.000 A 
ATOM     26  C   UNL     1       0.385  11.203  20.075  0.00  0.00    +0.000 A 
ATOM     27  C   UNL     1       0.992  10.401  19.107  0.00  0.00    +0.000 A 
BRANCH  25  28
ATOM     28  N   UNL     1      -0.383  11.575  22.402  0.00  0.00    +0.000 N 
ATOM     29  O   UNL     1      -0.215  12.799  22.306  0.00  0.00    +0.000 OA
ATOM     30  O   UNL     1      -1.042  11.023  23.292  0.00  0.00    +0.000 OA
ENDBRANCH  25  28
ENDBRANCH  19  22
ENDBRANCH   1  20
TORSDOF 5
ENDMDL
MODEL 7
REMARK VINA RESULT:      -8.4      2.985      8.328
REMARK  Name = 
REMARK  5 active torsions:
REMARK  status: ('A' for Active; 'I' for Inactive)
REMARK    1  A    between atoms: C_2  and  C_21
REMARK    2  A    between atoms: N_3  and  C_4
REMARK    3  A    between atoms: N_6  and  C_7
REMARK    4  A    between atoms: C_14  and  C_15
REMARK    5  A    between atoms: C_24  and  N_25
REMARK                            x       y       z     vdW  Elec       q    Type
REMARK                         _______ _______ _______ _____ _____    ______ ____
ROOT
ATOM      1  C   UNL     1       3.391   6.213  18.227  0.00  0.00    +0.000 A 
ATOM      2  C   UNL     1       4.232   6.429  17.169  0.00  0.00    +0.000 A 
ATOM      3  N   UNL     1       4.635   5.202  16.710  0.00  0.00    +0.000 N 
ATOM      4  N   UNL     1       4.103   4.195  17.448  0.00  0.00    +0.000 NA
ATOM      5  C   UNL     1       3.367   4.797  18.398  0.00  0.00    +0.000 A 
ENDROOT
BRANCH   3   6
ATOM      6  C   UNL     1       5.479   4.938  15.596  0.00  0.00    +0.000 A 
ATOM      7  C   UNL     1       6.778   5.460  15.537  0.00  0.00    +0.000 A 
ATOM      8  C   UNL     1       7.588   5.200  14.428  0.00  0.00    +0.000 A 
ATOM      9  C   UNL     1       7.109   4.417  13.382  0.00  0.00    +0.000 A 
ATOM     10  C   UNL     1       5.818   3.893  13.436  0.00  0.00    +0.000 A 
ATOM     11  C   UNL     1       5.002   4.151  14.538  0.00  0.00    +0.000 A 
ENDBRANCH   3   6
BRANCH   5  12
ATOM     12  C   UNL     1       2.695   4.012  19.441  0.00  0.00    +0.000 A 
ATOM     13  C   UNL     1       1.294   3.948  19.514  0.00  0.00    +0.000 A 
ATOM     14  C   UNL     1       0.664   3.190  20.505  0.00  0.00    +0.000 A 
ATOM     15  C   UNL     1       1.428   2.507  21.449  0.00  0.00    +0.000 A 
ATOM     16  C   UNL     1       2.818   2.584  21.406  0.00  0.00    +0.000 A 
ATOM     17  C   UNL     1       3.448   3.332  20.408  0.00  0.00    +0.000 A 
ENDBRANCH   5  12
BRANCH   1  20
ATOM     18  O   UNL     1       2.217   8.668  17.215  0.00  0.00    +0.000 OA
ATOM     19  C   UNL     1       2.153   8.320  18.389  0.00  0.00    +0.000 C 
ATOM     20  N   UNL     1       2.699   7.177  18.940  0.00  0.00    +0.000 N 
ATOM     21  H   UNL     1       2.582   6.983  19.925  0.00  0.00    +0.000 HD
BRANCH  19  22
ATOM     22  C   UNL     1       1.421   9.193  19.344  0.00  0.00    +0.000 A 
ATOM     23  C   UNL     1       1.033  10.469  18.907  0.00  0.00    +0.000 A 
ATOM     24  C   UNL     1       0.304  11.310  19.749  0.00  0.00    +0.000 A 
ATOM     25  C   UNL     1      -0.027  10.873  21.038  0.00  0.00    +0.000 A 
ATOM     26  C   UNL     1       0.386   9.616  21.496  0.00  0.00    +0.000 A 
ATOM     27  C   UNL     1       1.120   8.780  20.651  0.00  0.00    +0.000 A 
BRANCH  25  28
ATOM     28  N   UNL     1      -0.819  11.738  21.921  0.00  0.00    +0.000 N 
ATOM     29  O   UNL     1      -1.657  12.485  21.396  0.00  0.00    +0.000 OA
ATOM     30  O   UNL     1      -0.609  11.663  23.138  0.00  0.00    +0.000 OA
ENDBRANCH  25  28
ENDBRANCH  19  22
ENDBRANCH   1  20
TORSDOF 5
ENDMDL
MODEL 8
REMARK VINA RESULT:      -8.4      2.987      8.319
REMARK  Name = 
REMARK  5 active torsions:
REMARK  status: ('A' for Active; 'I' for Inactive)
REMARK    1  A    between atoms: C_2  and  C_21
REMARK    2  A    between atoms: N_3  and  C_4
REMARK    3  A    between atoms: N_6  and  C_7
REMARK    4  A    between atoms: C_14  and  C_15
REMARK    5  A    between atoms: C_24  and  N_25
REMARK                            x       y       z     vdW  Elec       q    Type
REMARK                         _______ _______ _______ _____ _____    ______ ____
ROOT
ATOM      1  C   UNL     1       3.377   6.208  18.247  0.00  0.00    +0.000 A 
ATOM      2  C   UNL     1       4.213   6.429  17.186  0.00  0.00    +0.000 A 
ATOM      3  N   UNL     1       4.625   5.205  16.727  0.00  0.00    +0.000 N 
ATOM      4  N   UNL     1       4.102   4.195  17.467  0.00  0.00    +0.000 NA
ATOM      5  C   UNL     1       3.364   4.792  18.419  0.00  0.00    +0.000 A 
ENDROOT
BRANCH   3   6
ATOM      6  C   UNL     1       5.468   4.946  15.612  0.00  0.00    +0.000 A 
ATOM      7  C   UNL     1       5.020   4.162  14.538  0.00  0.00    +0.000 A 
ATOM      8  C   UNL     1       5.867   3.909  13.456  0.00  0.00    +0.000 A 
ATOM      9  C   UNL     1       7.154   4.437  13.438  0.00  0.00    +0.000 A 
ATOM     10  C   UNL     1       7.604   5.218  14.501  0.00  0.00    +0.000 A 
ATOM     11  C   UNL     1       6.766   5.474  15.587  0.00  0.00    +0.000 A 
ENDBRANCH   3   6
BRANCH   5  12
ATOM     12  C   UNL     1       2.701   4.002  19.464  0.00  0.00    +0.000 A 
ATOM     13  C   UNL     1       1.300   3.946  19.555  0.00  0.00    +0.000 A 
ATOM     14  C   UNL     1       0.678   3.184  20.548  0.00  0.00    +0.000 A 
ATOM     15  C   UNL     1       1.450   2.489  21.476  0.00  0.00    +0.000 A 
ATOM     16  C   UNL     1       2.840   2.558  21.416  0.00  0.00    +0.000 A 
ATOM     17  C   UNL     1       3.462   3.311  20.416  0.00  0.00    +0.000 A 
ENDBRANCH   5  12
BRANCH   1  20
ATOM     18  O   UNL     1       2.194   8.660  17.238  0.00  0.00    +0.000 OA
ATOM     19  C   UNL     1       2.129   8.310  18.410  0.00  0.00    +0.000 C 
ATOM     20  N   UNL     1       2.678   7.167  18.960  0.00  0.00    +0.000 N 
ATOM     21  H   UNL     1       2.559   6.970  19.944  0.00  0.00    +0.000 HD
BRANCH  19  22
ATOM     22  C   UNL     1       1.390   9.177  19.365  0.00  0.00    +0.000 A 
ATOM     23  C   UNL     1       0.923  10.417  18.904  0.00  0.00    +0.000 A 
ATOM     24  C   UNL     1       0.185  11.249  19.748  0.00  0.00    +0.000 A 
ATOM     25  C   UNL     1      -0.075  10.839  21.062  0.00  0.00    +0.000 A 
ATOM     26  C   UNL     1       0.418   9.619  21.541  0.00  0.00    +0.000 A 
ATOM     27  C   UNL     1       1.159   8.793  20.695  0.00  0.00    +0.000 A 
BRANCH  25  28
ATOM     28  N   UNL     1      -0.876  11.694  21.947  0.00  0.00    +0.000 N 
ATOM     29  O   UNL     1      -0.644  11.642  23.163  0.00  0.00    +0.000 OA
ATOM     30  O   UNL     1      -1.729  12.423  21.423  0.00  0.00    +0.000 OA
ENDBRANCH  25  28
ENDBRANCH  19  22
ENDBRANCH   1  20
TORSDOF 5
ENDMDL
MODEL 9
REMARK VINA RESULT:      -8.4      2.965      8.285
REMARK  Name = 
REMARK  5 active torsions:
REMARK  status: ('A' for Active; 'I' for Inactive)
REMARK    1  A    between atoms: C_2  and  C_21
REMARK    2  A    between atoms: N_3  and  C_4
REMARK    3  A    between atoms: N_6  and  C_7
REMARK    4  A    between atoms: C_14  and  C_15
REMARK    5  A    between atoms: C_24  and  N_25
REMARK                            x       y       z     vdW  Elec       q    Type
REMARK                         _______ _______ _______ _____ _____    ______ ____
ROOT
ATOM      1  C   UNL     1       3.464   6.226  18.210  0.00  0.00    +0.000 A 
ATOM      2  C   UNL     1       4.290   6.428  17.137  0.00  0.00    +0.000 A 
ATOM      3  N   UNL     1       4.646   5.195  16.657  0.00  0.00    +0.000 N 
ATOM      4  N   UNL     1       4.099   4.196  17.395  0.00  0.00    +0.000 NA
ATOM      5  C   UNL     1       3.401   4.809  18.366  0.00  0.00    +0.000 A 
ENDROOT
BRANCH   3   6
ATOM      6  C   UNL     1       5.459   4.918  15.523  0.00  0.00    +0.000 A 
ATOM      7  C   UNL     1       4.986   4.109  14.479  0.00  0.00    +0.000 A 
ATOM      8  C   UNL     1       5.803   3.839  13.379  0.00  0.00    +0.000 A 
ATOM      9  C   UNL     1       7.086   4.374  13.312  0.00  0.00    +0.000 A 
ATOM     10  C   UNL     1       7.561   5.180  14.346  0.00  0.00    +0.000 A 
ATOM     11  C   UNL     1       6.752   5.453  15.450  0.00  0.00    +0.000 A 
ENDBRANCH   3   6
BRANCH   5  12
ATOM     12  C   UNL     1       2.727   4.032  19.414  0.00  0.00    +0.000 A 
ATOM     13  C   UNL     1       3.461   3.310  20.370  0.00  0.00    +0.000 A 
ATOM     14  C   UNL     1       2.811   2.580  21.369  0.00  0.00    +0.000 A 
ATOM     15  C   UNL     1       1.419   2.546  21.410  0.00  0.00    +0.000 A 
ATOM     16  C   UNL     1       0.677   3.235  20.452  0.00  0.00    +0.000 A 
ATOM     17  C   UNL     1       1.327   3.973  19.460  0.00  0.00    +0.000 A 
ENDBRANCH   5  12
BRANCH   1  20
ATOM     18  O   UNL     1       2.064   8.566  17.214  0.00  0.00    +0.000 OA
ATOM     19  C   UNL     1       2.156   8.287  18.404  0.00  0.00    +0.000 C 
ATOM     20  N   UNL     1       2.815   7.202  18.947  0.00  0.00    +0.000 N 
ATOM     21  H   UNL     1       2.824   7.062  19.949  0.00  0.00    +0.000 HD
BRANCH  19  22
ATOM     22  C   UNL     1       1.500   9.185  19.391  0.00  0.00    +0.000 A 
ATOM     23  C   UNL     1       1.164  10.484  18.979  0.00  0.00    +0.000 A 
ATOM     24  C   UNL     1       0.508  11.352  19.853  0.00  0.00    +0.000 A 
ATOM     25  C   UNL     1       0.196  10.917  21.148  0.00  0.00    +0.000 A 
ATOM     26  C   UNL     1       0.558   9.635  21.579  0.00  0.00    +0.000 A 
ATOM     27  C   UNL     1       1.220   8.773  20.702  0.00  0.00    +0.000 A 
BRANCH  25  28
ATOM     28  N   UNL     1      -0.522  11.812  22.064  0.00  0.00    +0.000 N 
ATOM     29  O   UNL     1      -0.927  12.893  21.616  0.00  0.00    +0.000 OA
ATOM     30  O   UNL     1      -0.689  11.427  23.229  0.00  0.00    +0.000 OA
ENDBRANCH  25  28
ENDBRANCH  19  22
ENDBRANCH   1  20
TORSDOF 5
ENDMDL
