MODEL 1
REMARK VINA RESULT:      -7.9      0.000      0.000
REMARK  Name = 
REMARK  8 active torsions:
REMARK  status: ('A' for Active; 'I' for Inactive)
REMARK    1  A    between atoms: C_1  and  C_2
REMARK    2  A    between atoms: C_5  and  S_6
REMARK    3  A    between atoms: S_6  and  N_9
REMARK    4  A    between atoms: C_16  and  N_17
REMARK    5  A    between atoms: C_18  and  C_20
REMARK    6  A    between atoms: C_20  and  C_21
REMARK    7  A    between atoms: C_21  and  N_22
REMARK    8  A    between atoms: C_23  and  C_25
REMARK                            x       y       z     vdW  Elec       q    Type
REMARK                         _______ _______ _______ _____ _____    ______ ____
ROOT
ATOM      1  C   UNL     1       3.266   6.751  17.750  0.00  0.00    +0.000 C 
ATOM      2  C   UNL     1       2.465   7.733  18.566  0.00  0.00    +0.000 A 
ATOM      3  C   UNL     1       2.070   8.925  17.919  0.00  0.00    +0.000 A 
ATOM      4  C   UNL     1       1.317   9.893  18.580  0.00  0.00    +0.000 A 
ATOM      5  C   UNL     1       0.939   9.677  19.901  0.00  0.00    +0.000 A 
ATOM      6  C   UNL     1       1.330   8.507  20.561  0.00  0.00    +0.000 A 
ATOM      7  C   UNL     1       2.067   7.504  19.903  0.00  0.00    +0.000 A 
ENDROOT
BRANCH   7   8
ATOM      8  N   UNL     1       2.421   6.296  20.579  0.00  0.00    +0.000 N 
ATOM      9  C   UNL     1       1.649   5.139  20.583  0.00  0.00    +0.000 C 
ATOM     10  O   UNL     1       0.602   5.002  19.951  0.00  0.00    +0.000 OA
ATOM     11  H   UNL     1       3.365   6.224  20.940  0.00  0.00    +0.000 HD
BRANCH   9  12
ATOM     12  C   UNL     1       2.173   3.990  21.437  0.00  0.00    +0.000 C 
BRANCH  12  13
ATOM     13  C   UNL     1       2.518   2.819  20.498  0.00  0.00    +0.000 C 
BRANCH  13  14
ATOM     14  N   UNL     1       3.190   3.161  19.245  0.00  0.00    +0.000 N 
ATOM     15  C   UNL     1       4.565   3.225  19.166  0.00  0.00    +0.000 C 
ATOM     16  O   UNL     1       5.297   2.833  20.068  0.00  0.00    +0.000 OA
ATOM     17  H   UNL     1       2.683   3.809  18.652  0.00  0.00    +0.000 HD
BRANCH  15  18
ATOM     18  C   UNL     1       5.155   3.839  17.943  0.00  0.00    +0.000 A 
ATOM     19  C   UNL     1       6.336   4.581  18.095  0.00  0.00    +0.000 A 
ATOM     20  C   UNL     1       6.969   5.140  16.983  0.00  0.00    +0.000 A 
ATOM     21  C   UNL     1       6.426   4.957  15.714  0.00  0.00    +0.000 A 
ATOM     22  C   UNL     1       5.247   4.225  15.555  0.00  0.00    +0.000 A 
ATOM     23  C   UNL     1       4.606   3.669  16.666  0.00  0.00    +0.000 A 
ENDBRANCH  15  18
ENDBRANCH  13  14
ENDBRANCH  12  13
ENDBRANCH   9  12
ENDBRANCH   7   8
BRANCH   5  24
ATOM     24  S   UNL     1       0.084  10.970  20.791  0.00  0.00    +0.000 S 
ATOM     25  O   UNL     1      -1.335  10.800  20.558  0.00  0.00    +0.000 OA
ATOM     26  O   UNL     1       0.615  10.969  22.139  0.00  0.00    +0.000 OA
BRANCH  24  27
ATOM     27  N   UNL     1       0.589  12.419  20.032  0.00  0.00    +0.000 NA
ATOM     28  C   UNL     1      -0.490  13.387  19.714  0.00  0.00    +0.000 C 
ATOM     29  C   UNL     1       0.017  14.489  18.791  0.00  0.00    +0.000 C 
ATOM     30  C   UNL     1       1.249  15.169  19.374  0.00  0.00    +0.000 C 
ATOM     31  C   UNL     1       2.332  14.130  19.633  0.00  0.00    +0.000 C 
ATOM     32  C   UNL     1       1.829  13.032  20.571  0.00  0.00    +0.000 C 
ENDBRANCH  24  27
ENDBRANCH   5  24
TORSDOF 7
ENDMDL
MODEL 2
REMARK VINA RESULT:      -7.9      1.873      2.647
REMARK  Name = 
REMARK  8 active torsions:
REMARK  status: ('A' for Active; 'I' for Inactive)
REMARK    1  A    between atoms: C_1  and  C_2
REMARK    2  A    between atoms: C_5  and  S_6
REMARK    3  A    between atoms: S_6  and  N_9
REMARK    4  A    between atoms: C_16  and  N_17
REMARK    5  A    between atoms: C_18  and  C_20
REMARK    6  A    between atoms: C_20  and  C_21
REMARK    7  A    between atoms: C_21  and  N_22
REMARK    8  A    between atoms: C_23  and  C_25
REMARK                            x       y       z     vdW  Elec       q    Type
REMARK                         _______ _______ _______ _____ _____    ______ ____
ROOT
ATOM      1  C   UNL     1       3.646   6.890  17.828  0.00  0.00    +0.000 C 
ATOM      2  C   UNL     1       2.662   7.830  18.475  0.00  0.00    +0.000 A 
ATOM      3  C   UNL     1       2.316   8.990  17.746  0.00  0.00    +0.000 A 
ATOM      4  C   UNL     1       1.406   9.918  18.248  0.00  0.00    +0.000 A 
ATOM      5  C   UNL     1       0.819   9.692  19.489  0.00  0.00    +0.000 A 
ATOM      6  C   UNL     1       1.156   8.555  20.230  0.00  0.00    +0.000 A 
ATOM      7  C   UNL     1       2.052   7.591  19.728  0.00  0.00    +0.000 A 
ENDROOT
BRANCH   7   8
ATOM      8  N   UNL     1       2.353   6.413  20.479  0.00  0.00    +0.000 N 
ATOM      9  C   UNL     1       1.852   5.147  20.195  0.00  0.00    +0.000 C 
ATOM     10  O   UNL     1       1.142   4.884  19.224  0.00  0.00    +0.000 OA
ATOM     11  H   UNL     1       3.102   6.472  21.158  0.00  0.00    +0.000 HD
BRANCH   9  12
ATOM     12  C   UNL     1       2.234   4.042  21.173  0.00  0.00    +0.000 C 
BRANCH  12  13
ATOM     13  C   UNL     1       3.341   3.193  20.523  0.00  0.00    +0.000 C 
BRANCH  13  14
ATOM     14  N   UNL     1       4.123   3.834  19.466  0.00  0.00    +0.000 N 
ATOM     15  C   UNL     1       4.160   3.313  18.189  0.00  0.00    +0.000 C 
ATOM     16  O   UNL     1       3.417   2.409  17.823  0.00  0.00    +0.000 OA
ATOM     17  H   UNL     1       4.971   4.293  19.780  0.00  0.00    +0.000 HD
BRANCH  15  18
ATOM     18  C   UNL     1       5.183   3.860  17.253  0.00  0.00    +0.000 A 
ATOM     19  C   UNL     1       4.851   3.919  15.892  0.00  0.00    +0.000 A 
ATOM     20  C   UNL     1       5.744   4.468  14.968  0.00  0.00    +0.000 A 
ATOM     21  C   UNL     1       6.970   4.963  15.404  0.00  0.00    +0.000 A 
ATOM     22  C   UNL     1       7.311   4.903  16.757  0.00  0.00    +0.000 A 
ATOM     23  C   UNL     1       6.423   4.348  17.684  0.00  0.00    +0.000 A 
ENDBRANCH  15  18
ENDBRANCH  13  14
ENDBRANCH  12  13
ENDBRANCH   9  12
ENDBRANCH   7   8
BRANCH   5  24
ATOM     24  S   UNL     1      -0.250  10.941  20.193  0.00  0.00    +0.000 S 
ATOM     25  O   UNL     1      -0.536  10.555  21.559  0.00  0.00    +0.000 OA
ATOM     26  O   UNL     1       0.359  12.222  19.901  0.00  0.00    +0.000 OA
BRANCH  24  27
ATOM     27  N   UNL     1      -1.695  10.830  19.283  0.00  0.00    +0.000 NA
ATOM     28  C   UNL     1      -2.525  12.060  19.243  0.00  0.00    +0.000 C 
ATOM     29  C   UNL     1      -3.907  11.771  18.667  0.00  0.00    +0.000 C 
ATOM     30  C   UNL     1      -3.802  11.102  17.303  0.00  0.00    +0.000 C 
ATOM     31  C   UNL     1      -2.979   9.825  17.421  0.00  0.00    +0.000 C 
ATOM     32  C   UNL     1      -1.588  10.117  17.985  0.00  0.00    +0.000 C 
ENDBRANCH  24  27
ENDBRANCH   5  24
TORSDOF 7
ENDMDL
MODEL 3
REMARK VINA RESULT:      -7.8      0.745      1.145
REMARK  Name = 
REMARK  8 active torsions:
REMARK  status: ('A' for Active; 'I' for Inactive)
REMARK    1  A    between atoms: C_1  and  C_2
REMARK    2  A    between atoms: C_5  and  S_6
REMARK    3  A    between atoms: S_6  and  N_9
REMARK    4  A    between atoms: C_16  and  N_17
REMARK    5  A    between atoms: C_18  and  C_20
REMARK    6  A    between atoms: C_20  and  C_21
REMARK    7  A    between atoms: C_21  and  N_22
REMARK    8  A    between atoms: C_23  and  C_25
REMARK                            x       y       z     vdW  Elec       q    Type
REMARK                         _______ _______ _______ _____ _____    ______ ____
ROOT
ATOM      1  C   UNL     1       3.356   6.744  17.784  0.00  0.00    +0.000 C 
ATOM      2  C   UNL     1       2.517   7.722  18.565  0.00  0.00    +0.000 A 
ATOM      3  C   UNL     1       2.118   8.899  17.893  0.00  0.00    +0.000 A 
ATOM      4  C   UNL     1       1.331   9.862  18.520  0.00  0.00    +0.000 A 
ATOM      5  C   UNL     1       0.922   9.655  19.834  0.00  0.00    +0.000 A 
ATOM      6  C   UNL     1       1.315   8.502  20.520  0.00  0.00    +0.000 A 
ATOM      7  C   UNL     1       2.087   7.503  19.895  0.00  0.00    +0.000 A 
ENDROOT
BRANCH   7   8
ATOM      8  N   UNL     1       2.444   6.311  20.596  0.00  0.00    +0.000 N 
ATOM      9  C   UNL     1       1.838   5.073  20.407  0.00  0.00    +0.000 C 
ATOM     10  O   UNL     1       0.967   4.849  19.566  0.00  0.00    +0.000 OA
ATOM     11  H   UNL     1       3.296   6.329  21.144  0.00  0.00    +0.000 HD
BRANCH   9  12
ATOM     12  C   UNL     1       2.316   3.949  21.318  0.00  0.00    +0.000 C 
BRANCH  12  13
ATOM     13  C   UNL     1       3.207   3.007  20.487  0.00  0.00    +0.000 C 
BRANCH  13  14
ATOM     14  N   UNL     1       4.105   3.640  19.521  0.00  0.00    +0.000 N 
ATOM     15  C   UNL     1       3.997   3.382  18.170  0.00  0.00    +0.000 C 
ATOM     16  O   UNL     1       3.053   2.765  17.689  0.00  0.00    +0.000 OA
ATOM     17  H   UNL     1       5.043   3.818  19.863  0.00  0.00    +0.000 HD
BRANCH  15  18
ATOM     18  C   UNL     1       5.108   3.844  17.291  0.00  0.00    +0.000 A 
ATOM     19  C   UNL     1       4.878   3.862  15.908  0.00  0.00    +0.000 A 
ATOM     20  C   UNL     1       5.859   4.332  15.032  0.00  0.00    +0.000 A 
ATOM     21  C   UNL     1       7.073   4.790  15.537  0.00  0.00    +0.000 A 
ATOM     22  C   UNL     1       7.313   4.770  16.913  0.00  0.00    +0.000 A 
ATOM     23  C   UNL     1       6.336   4.293  17.793  0.00  0.00    +0.000 A 
ENDBRANCH  15  18
ENDBRANCH  13  14
ENDBRANCH  12  13
ENDBRANCH   9  12
ENDBRANCH   7   8
BRANCH   5  24
ATOM     24  S   UNL     1       0.021  10.945  20.683  0.00  0.00    +0.000 S 
ATOM     25  O   UNL     1      -1.383  10.780  20.369  0.00  0.00    +0.000 OA
ATOM     26  O   UNL     1       0.475  10.932  22.059  0.00  0.00    +0.000 OA
BRANCH  24  27
ATOM     27  N   UNL     1       0.572  12.397  19.965  0.00  0.00    +0.000 NA
ATOM     28  C   UNL     1      -0.483  13.382  19.616  0.00  0.00    +0.000 C 
ATOM     29  C   UNL     1       0.073  14.490  18.729  0.00  0.00    +0.000 C 
ATOM     30  C   UNL     1       1.287  15.149  19.371  0.00  0.00    +0.000 C 
ATOM     31  C   UNL     1       2.348  14.094  19.661  0.00  0.00    +0.000 C 
ATOM     32  C   UNL     1       1.795  12.990  20.563  0.00  0.00    +0.000 C 
ENDBRANCH  24  27
ENDBRANCH   5  24
TORSDOF 7
ENDMDL
MODEL 4
REMARK VINA RESULT:      -7.6      1.867      2.146
REMARK  Name = 
REMARK  8 active torsions:
REMARK  status: ('A' for Active; 'I' for Inactive)
REMARK    1  A    between atoms: C_1  and  C_2
REMARK    2  A    between atoms: C_5  and  S_6
REMARK    3  A    between atoms: S_6  and  N_9
REMARK    4  A    between atoms: C_16  and  N_17
REMARK    5  A    between atoms: C_18  and  C_20
REMARK    6  A    between atoms: C_20  and  C_21
REMARK    7  A    between atoms: C_21  and  N_22
REMARK    8  A    between atoms: C_23  and  C_25
REMARK                            x       y       z     vdW  Elec       q    Type
REMARK                         _______ _______ _______ _____ _____    ______ ____
ROOT
ATOM      1  C   UNL     1       3.229   6.639  17.807  0.00  0.00    +0.000 C 
ATOM      2  C   UNL     1       2.446   7.554  18.713  0.00  0.00    +0.000 A 
ATOM      3  C   UNL     1       1.985   8.766  18.151  0.00  0.00    +0.000 A 
ATOM      4  C   UNL     1       1.242   9.676  18.898  0.00  0.00    +0.000 A 
ATOM      5  C   UNL     1       0.939   9.381  20.223  0.00  0.00    +0.000 A 
ATOM      6  C   UNL     1       1.394   8.191  20.801  0.00  0.00    +0.000 A 
ATOM      7  C   UNL     1       2.123   7.245  20.055  0.00  0.00    +0.000 A 
ENDROOT
BRANCH   7   8
ATOM      8  N   UNL     1       2.545   6.015  20.647  0.00  0.00    +0.000 N 
ATOM      9  C   UNL     1       1.789   4.848  20.663  0.00  0.00    +0.000 C 
ATOM     10  O   UNL     1       0.696   4.721  20.110  0.00  0.00    +0.000 OA
ATOM     11  H   UNL     1       3.515   5.942  20.929  0.00  0.00    +0.000 HD
BRANCH   9  12
ATOM     12  C   UNL     1       2.393   3.672  21.421  0.00  0.00    +0.000 C 
BRANCH  12  13
ATOM     13  C   UNL     1       3.163   2.799  20.413  0.00  0.00    +0.000 C 
BRANCH  13  14
ATOM     14  N   UNL     1       4.030   3.501  19.468  0.00  0.00    +0.000 N 
ATOM     15  C   UNL     1       3.963   3.249  18.114  0.00  0.00    +0.000 C 
ATOM     16  O   UNL     1       3.073   2.572  17.612  0.00  0.00    +0.000 OA
ATOM     17  H   UNL     1       4.948   3.742  19.828  0.00  0.00    +0.000 HD
BRANCH  15  18
ATOM     18  C   UNL     1       5.054   3.797  17.258  0.00  0.00    +0.000 A 
ATOM     19  C   UNL     1       6.198   4.291  17.903  0.00  0.00    +0.000 A 
ATOM     20  C   UNL     1       7.278   4.771  17.159  0.00  0.00    +0.000 A 
ATOM     21  C   UNL     1       7.221   4.755  15.768  0.00  0.00    +0.000 A 
ATOM     22  C   UNL     1       6.083   4.270  15.118  0.00  0.00    +0.000 A 
ATOM     23  C   UNL     1       4.996   3.795  15.859  0.00  0.00    +0.000 A 
ENDBRANCH  15  18
ENDBRANCH  13  14
ENDBRANCH  12  13
ENDBRANCH   9  12
ENDBRANCH   7   8
BRANCH   5  24
ATOM     24  S   UNL     1       0.097  10.602  21.222  0.00  0.00    +0.000 S 
ATOM     25  O   UNL     1      -0.562   9.903  22.306  0.00  0.00    +0.000 OA
ATOM     26  O   UNL     1       1.058  11.650  21.497  0.00  0.00    +0.000 OA
BRANCH  24  27
ATOM     27  N   UNL     1      -1.102  11.249  20.186  0.00  0.00    +0.000 NA
ATOM     28  C   UNL     1      -1.633  10.320  19.158  0.00  0.00    +0.000 C 
ATOM     29  C   UNL     1      -2.462  11.068  18.120  0.00  0.00    +0.000 C 
ATOM     30  C   UNL     1      -3.563  11.885  18.782  0.00  0.00    +0.000 C 
ATOM     31  C   UNL     1      -2.950  12.848  19.790  0.00  0.00    +0.000 C 
ATOM     32  C   UNL     1      -2.131  12.097  20.841  0.00  0.00    +0.000 C 
ENDBRANCH  24  27
ENDBRANCH   5  24
TORSDOF 7
ENDMDL
MODEL 5
REMARK VINA RESULT:      -7.6      1.265      1.790
REMARK  Name = 
REMARK  8 active torsions:
REMARK  status: ('A' for Active; 'I' for Inactive)
REMARK    1  A    between atoms: C_1  and  C_2
REMARK    2  A    between atoms: C_5  and  S_6
REMARK    3  A    between atoms: S_6  and  N_9
REMARK    4  A    between atoms: C_16  and  N_17
REMARK    5  A    between atoms: C_18  and  C_20
REMARK    6  A    between atoms: C_20  and  C_21
REMARK    7  A    between atoms: C_21  and  N_22
REMARK    8  A    between atoms: C_23  and  C_25
REMARK                            x       y       z     vdW  Elec       q    Type
REMARK                         _______ _______ _______ _____ _____    ______ ____
ROOT
ATOM      1  C   UNL     1       3.532   6.473  17.364  0.00  0.00    +0.000 C 
ATOM      2  C   UNL     1       2.744   7.204  18.421  0.00  0.00    +0.000 A 
ATOM      3  C   UNL     1       2.255   8.485  18.079  0.00  0.00    +0.000 A 
ATOM      4  C   UNL     1       1.505   9.239  18.978  0.00  0.00    +0.000 A 
ATOM      5  C   UNL     1       1.225   8.717  20.237  0.00  0.00    +0.000 A 
ATOM      6  C   UNL     1       1.710   7.455  20.598  0.00  0.00    +0.000 A 
ATOM      7  C   UNL     1       2.446   6.665  19.694  0.00  0.00    +0.000 A 
ENDROOT
BRANCH   7   8
ATOM      8  N   UNL     1       2.897   5.361  20.063  0.00  0.00    +0.000 N 
ATOM      9  C   UNL     1       2.267   4.176  19.699  0.00  0.00    +0.000 C 
ATOM     10  O   UNL     1       1.284   4.111  18.961  0.00  0.00    +0.000 OA
ATOM     11  H   UNL     1       3.819   5.287  20.477  0.00  0.00    +0.000 HD
BRANCH   9  12
ATOM     12  C   UNL     1       2.869   2.897  20.270  0.00  0.00    +0.000 C 
BRANCH  12  13
ATOM     13  C   UNL     1       4.401   3.000  20.159  0.00  0.00    +0.000 C 
BRANCH  13  14
ATOM     14  N   UNL     1       4.955   3.093  18.809  0.00  0.00    +0.000 N 
ATOM     15  C   UNL     1       5.855   4.083  18.473  0.00  0.00    +0.000 C 
ATOM     16  O   UNL     1       6.372   4.817  19.308  0.00  0.00    +0.000 OA
ATOM     17  H   UNL     1       4.329   2.796  18.069  0.00  0.00    +0.000 HD
BRANCH  15  18
ATOM     18  C   UNL     1       6.158   4.273  17.026  0.00  0.00    +0.000 A 
ATOM     19  C   UNL     1       5.267   3.716  16.098  0.00  0.00    +0.000 A 
ATOM     20  C   UNL     1       5.463   3.901  14.727  0.00  0.00    +0.000 A 
ATOM     21  C   UNL     1       6.550   4.647  14.280  0.00  0.00    +0.000 A 
ATOM     22  C   UNL     1       7.447   5.201  15.198  0.00  0.00    +0.000 A 
ATOM     23  C   UNL     1       7.257   5.012  16.571  0.00  0.00    +0.000 A 
ENDBRANCH  15  18
ENDBRANCH  13  14
ENDBRANCH  12  13
ENDBRANCH   9  12
ENDBRANCH   7   8
BRANCH   5  24
ATOM     24  S   UNL     1       0.375   9.732  21.438  0.00  0.00    +0.000 S 
ATOM     25  O   UNL     1      -0.862   9.062  21.782  0.00  0.00    +0.000 OA
ATOM     26  O   UNL     1       1.343  10.064  22.463  0.00  0.00    +0.000 OA
BRANCH  24  27
ATOM     27  N   UNL     1      -0.004  11.170  20.592  0.00  0.00    +0.000 NA
ATOM     28  C   UNL     1      -1.440  11.545  20.571  0.00  0.00    +0.000 C 
ATOM     29  C   UNL     1      -1.702  12.657  19.561  0.00  0.00    +0.000 C 
ATOM     30  C   UNL     1      -0.798  13.855  19.819  0.00  0.00    +0.000 C 
ATOM     31  C   UNL     1       0.659  13.413  19.782  0.00  0.00    +0.000 C 
ATOM     32  C   UNL     1       0.926  12.309  20.805  0.00  0.00    +0.000 C 
ENDBRANCH  24  27
ENDBRANCH   5  24
TORSDOF 7
ENDMDL
MODEL 6
REMARK VINA RESULT:      -7.6      1.815      2.663
REMARK  Name = 
REMARK  8 active torsions:
REMARK  status: ('A' for Active; 'I' for Inactive)
REMARK    1  A    between atoms: C_1  and  C_2
REMARK    2  A    between atoms: C_5  and  S_6
REMARK    3  A    between atoms: S_6  and  N_9
REMARK    4  A    between atoms: C_16  and  N_17
REMARK    5  A    between atoms: C_18  and  C_20
REMARK    6  A    between atoms: C_20  and  C_21
REMARK    7  A    between atoms: C_21  and  N_22
REMARK    8  A    between atoms: C_23  and  C_25
REMARK                            x       y       z     vdW  Elec       q    Type
REMARK                         _______ _______ _______ _____ _____    ______ ____
ROOT
ATOM      1  C   UNL     1       3.552   6.941  17.897  0.00  0.00    +0.000 C 
ATOM      2  C   UNL     1       2.575   7.922  18.492  0.00  0.00    +0.000 A 
ATOM      3  C   UNL     1       2.273   9.067  17.721  0.00  0.00    +0.000 A 
ATOM      4  C   UNL     1       1.373  10.029  18.173  0.00  0.00    +0.000 A 
ATOM      5  C   UNL     1       0.751   9.853  19.405  0.00  0.00    +0.000 A 
ATOM      6  C   UNL     1       1.045   8.732  20.187  0.00  0.00    +0.000 A 
ATOM      7  C   UNL     1       1.930   7.734  19.737  0.00  0.00    +0.000 A 
ENDROOT
BRANCH   7   8
ATOM      8  N   UNL     1       2.187   6.573  20.529  0.00  0.00    +0.000 N 
ATOM      9  C   UNL     1       1.673   5.308  20.263  0.00  0.00    +0.000 C 
ATOM     10  O   UNL     1       0.990   5.030  19.278  0.00  0.00    +0.000 OA
ATOM     11  H   UNL     1       2.915   6.639  21.230  0.00  0.00    +0.000 HD
BRANCH   9  12
ATOM     12  C   UNL     1       2.005   4.225  21.283  0.00  0.00    +0.000 C 
BRANCH  12  13
ATOM     13  C   UNL     1       2.640   3.041  20.531  0.00  0.00    +0.000 C 
BRANCH  13  14
ATOM     14  N   UNL     1       3.318   3.352  19.274  0.00  0.00    +0.000 N 
ATOM     15  C   UNL     1       4.692   3.278  19.166  0.00  0.00    +0.000 C 
ATOM     16  O   UNL     1       5.397   2.786  20.040  0.00  0.00    +0.000 OA
ATOM     17  H   UNL     1       2.869   4.067  18.711  0.00  0.00    +0.000 HD
BRANCH  15  18
ATOM     18  C   UNL     1       5.318   3.868  17.949  0.00  0.00    +0.000 A 
ATOM     19  C   UNL     1       4.638   3.718  16.731  0.00  0.00    +0.000 A 
ATOM     20  C   UNL     1       5.144   4.291  15.562  0.00  0.00    +0.000 A 
ATOM     21  C   UNL     1       6.329   5.019  15.607  0.00  0.00    +0.000 A 
ATOM     22  C   UNL     1       7.016   5.169  16.814  0.00  0.00    +0.000 A 
ATOM     23  C   UNL     1       6.517   4.591  17.986  0.00  0.00    +0.000 A 
ENDBRANCH  15  18
ENDBRANCH  13  14
ENDBRANCH  12  13
ENDBRANCH   9  12
ENDBRANCH   7   8
BRANCH   5  24
ATOM     24  S   UNL     1      -0.305  11.146  20.046  0.00  0.00    +0.000 S 
ATOM     25  O   UNL     1      -0.734  10.746  21.370  0.00  0.00    +0.000 OA
ATOM     26  O   UNL     1       0.399  12.396  19.846  0.00  0.00    +0.000 OA
BRANCH  24  27
ATOM     27  N   UNL     1      -1.666  11.141  19.009  0.00  0.00    +0.000 NA
ATOM     28  C   UNL     1      -1.942   9.856  18.318  0.00  0.00    +0.000 C 
ATOM     29  C   UNL     1      -2.978  10.040  17.214  0.00  0.00    +0.000 C 
ATOM     30  C   UNL     1      -4.245  10.688  17.754  0.00  0.00    +0.000 C 
ATOM     31  C   UNL     1      -3.900  12.020  18.408  0.00  0.00    +0.000 C 
ATOM     32  C   UNL     1      -2.874  11.834  19.525  0.00  0.00    +0.000 C 
ENDBRANCH  24  27
ENDBRANCH   5  24
TORSDOF 7
ENDMDL
MODEL 7
REMARK VINA RESULT:      -7.5      0.821      1.225
REMARK  Name = 
REMARK  8 active torsions:
REMARK  status: ('A' for Active; 'I' for Inactive)
REMARK    1  A    between atoms: C_1  and  C_2
REMARK    2  A    between atoms: C_5  and  S_6
REMARK    3  A    between atoms: S_6  and  N_9
REMARK    4  A    between atoms: C_16  and  N_17
REMARK    5  A    between atoms: C_18  and  C_20
REMARK    6  A    between atoms: C_20  and  C_21
REMARK    7  A    between atoms: C_21  and  N_22
REMARK    8  A    between atoms: C_23  and  C_25
REMARK                            x       y       z     vdW  Elec       q    Type
REMARK                         _______ _______ _______ _____ _____    ______ ____
ROOT
ATOM      1  C   UNL     1       3.196   6.991  17.822  0.00  0.00    +0.000 C 
ATOM      2  C   UNL     1       2.345   7.949  18.616  0.00  0.00    +0.000 A 
ATOM      3  C   UNL     1       1.910   9.117  17.950  0.00  0.00    +0.000 A 
ATOM      4  C   UNL     1       1.109  10.061  18.589  0.00  0.00    +0.000 A 
ATOM      5  C   UNL     1       0.722   9.843  19.907  0.00  0.00    +0.000 A 
ATOM      6  C   UNL     1       1.150   8.698  20.586  0.00  0.00    +0.000 A 
ATOM      7  C   UNL     1       1.937   7.718  19.950  0.00  0.00    +0.000 A 
ENDROOT
BRANCH   7   8
ATOM      8  N   UNL     1       2.331   6.533  20.644  0.00  0.00    +0.000 N 
ATOM      9  C   UNL     1       1.804   5.268  20.406  0.00  0.00    +0.000 C 
ATOM     10  O   UNL     1       0.985   5.013  19.524  0.00  0.00    +0.000 OA
ATOM     11  H   UNL     1       3.155   6.589  21.230  0.00  0.00    +0.000 HD
BRANCH   9  12
ATOM     12  C   UNL     1       2.306   4.154  21.317  0.00  0.00    +0.000 C 
BRANCH  12  13
ATOM     13  C   UNL     1       3.202   3.222  20.482  0.00  0.00    +0.000 C 
BRANCH  13  14
ATOM     14  N   UNL     1       4.031   3.856  19.458  0.00  0.00    +0.000 N 
ATOM     15  C   UNL     1       3.986   3.440  18.143  0.00  0.00    +0.000 C 
ATOM     16  O   UNL     1       3.140   2.655  17.728  0.00  0.00    +0.000 OA
ATOM     17  H   UNL     1       4.931   4.192  19.784  0.00  0.00    +0.000 HD
BRANCH  15  18
ATOM     18  C   UNL     1       5.047   3.945  17.226  0.00  0.00    +0.000 A 
ATOM     19  C   UNL     1       6.245   4.391  17.803  0.00  0.00    +0.000 A 
ATOM     20  C   UNL     1       7.299   4.828  16.997  0.00  0.00    +0.000 A 
ATOM     21  C   UNL     1       7.160   4.818  15.612  0.00  0.00    +0.000 A 
ATOM     22  C   UNL     1       5.968   4.381  15.030  0.00  0.00    +0.000 A 
ATOM     23  C   UNL     1       4.907   3.949  15.833  0.00  0.00    +0.000 A 
ENDBRANCH  15  18
ENDBRANCH  13  14
ENDBRANCH  12  13
ENDBRANCH   9  12
ENDBRANCH   7   8
BRANCH   5  24
ATOM     24  S   UNL     1      -0.198  11.110  20.770  0.00  0.00    +0.000 S 
ATOM     25  O   UNL     1      -1.558  11.079  20.275  0.00  0.00    +0.000 OA
ATOM     26  O   UNL     1       0.077  10.936  22.182  0.00  0.00    +0.000 OA
BRANCH  24  27
ATOM     27  N   UNL     1       0.527  12.579  20.274  0.00  0.00    +0.000 NA
ATOM     28  C   UNL     1       2.003  12.648  20.419  0.00  0.00    +0.000 C 
ATOM     29  C   UNL     1       2.506  14.075  20.232  0.00  0.00    +0.000 C 
ATOM     30  C   UNL     1       2.029  14.655  18.907  0.00  0.00    +0.000 C 
ATOM     31  C   UNL     1       0.508  14.597  18.841  0.00  0.00    +0.000 C 
ATOM     32  C   UNL     1       0.004  13.164  19.013  0.00  0.00    +0.000 C 
ENDBRANCH  24  27
ENDBRANCH   5  24
TORSDOF 7
ENDMDL
MODEL 8
REMARK VINA RESULT:      -7.5      2.312      8.815
REMARK  Name = 
REMARK  8 active torsions:
REMARK  status: ('A' for Active; 'I' for Inactive)
REMARK    1  A    between atoms: C_1  and  C_2
REMARK    2  A    between atoms: C_5  and  S_6
REMARK    3  A    between atoms: S_6  and  N_9
REMARK    4  A    between atoms: C_16  and  N_17
REMARK    5  A    between atoms: C_18  and  C_20
REMARK    6  A    between atoms: C_20  and  C_21
REMARK    7  A    between atoms: C_21  and  N_22
REMARK    8  A    between atoms: C_23  and  C_25
REMARK                            x       y       z     vdW  Elec       q    Type
REMARK                         _______ _______ _______ _____ _____    ______ ____
ROOT
ATOM      1  C   UNL     1       0.996  10.597  18.919  0.00  0.00    +0.000 C 
ATOM      2  C   UNL     1       1.527   9.189  18.997  0.00  0.00    +0.000 A 
ATOM      3  C   UNL     1       2.386   8.773  17.955  0.00  0.00    +0.000 A 
ATOM      4  C   UNL     1       2.941   7.496  17.938  0.00  0.00    +0.000 A 
ATOM      5  C   UNL     1       2.650   6.614  18.974  0.00  0.00    +0.000 A 
ATOM      6  C   UNL     1       1.793   7.003  20.009  0.00  0.00    +0.000 A 
ATOM      7  C   UNL     1       1.244   8.299  20.060  0.00  0.00    +0.000 A 
ENDROOT
BRANCH   7   8
ATOM      8  N   UNL     1       0.405   8.695  21.146  0.00  0.00    +0.000 N 
ATOM      9  C   UNL     1       0.864   9.258  22.332  0.00  0.00    +0.000 C 
ATOM     10  O   UNL     1       2.041   9.539  22.557  0.00  0.00    +0.000 OA
ATOM     11  H   UNL     1      -0.594   8.719  20.979  0.00  0.00    +0.000 HD
BRANCH   9  12
ATOM     12  C   UNL     1      -0.194   9.531  23.395  0.00  0.00    +0.000 C 
BRANCH  12  13
ATOM     13  C   UNL     1      -0.988  10.779  22.967  0.00  0.00    +0.000 C 
BRANCH  13  14
ATOM     14  N   UNL     1      -0.342  11.665  22.000  0.00  0.00    +0.000 N 
ATOM     15  C   UNL     1      -0.292  13.029  22.203  0.00  0.00    +0.000 C 
ATOM     16  O   UNL     1      -0.617  13.551  23.264  0.00  0.00    +0.000 OA
ATOM     17  H   UNL     1      -0.410  11.365  21.033  0.00  0.00    +0.000 HD
BRANCH  15  18
ATOM     18  C   UNL     1       0.134  13.879  21.056  0.00  0.00    +0.000 A 
ATOM     19  C   UNL     1       1.507  13.953  20.777  0.00  0.00    +0.000 A 
ATOM     20  C   UNL     1       1.970  14.690  19.685  0.00  0.00    +0.000 A 
ATOM     21  C   UNL     1       1.061  15.354  18.865  0.00  0.00    +0.000 A 
ATOM     22  C   UNL     1      -0.307  15.291  19.139  0.00  0.00    +0.000 A 
ATOM     23  C   UNL     1      -0.774  14.560  20.236  0.00  0.00    +0.000 A 
ENDBRANCH  15  18
ENDBRANCH  13  14
ENDBRANCH  12  13
ENDBRANCH   9  12
ENDBRANCH   7   8
BRANCH   5  24
ATOM     24  S   UNL     1       3.255   4.933  18.891  0.00  0.00    +0.000 S 
ATOM     25  O   UNL     1       3.341   4.430  20.246  0.00  0.00    +0.000 OA
ATOM     26  O   UNL     1       2.449   4.249  17.901  0.00  0.00    +0.000 OA
BRANCH  24  27
ATOM     27  N   UNL     1       4.840   5.080  18.264  0.00  0.00    +0.000 NA
ATOM     28  C   UNL     1       5.919   5.228  19.272  0.00  0.00    +0.000 C 
ATOM     29  C   UNL     1       7.231   5.641  18.615  0.00  0.00    +0.000 C 
ATOM     30  C   UNL     1       7.613   4.676  17.500  0.00  0.00    +0.000 C 
ATOM     31  C   UNL     1       6.486   4.604  16.478  0.00  0.00    +0.000 C 
ATOM     32  C   UNL     1       5.174   4.176  17.134  0.00  0.00    +0.000 C 
ENDBRANCH  24  27
ENDBRANCH   5  24
TORSDOF 7
ENDMDL
MODEL 9
REMARK VINA RESULT:      -7.5      3.335      8.463
REMARK  Name = 
REMARK  8 active torsions:
REMARK  status: ('A' for Active; 'I' for Inactive)
REMARK    1  A    between atoms: C_1  and  C_2
REMARK    2  A    between atoms: C_5  and  S_6
REMARK    3  A    between atoms: S_6  and  N_9
REMARK    4  A    between atoms: C_16  and  N_17
REMARK    5  A    between atoms: C_18  and  C_20
REMARK    6  A    between atoms: C_20  and  C_21
REMARK    7  A    between atoms: C_21  and  N_22
REMARK    8  A    between atoms: C_23  and  C_25
REMARK                            x       y       z     vdW  Elec       q    Type
REMARK                         _______ _______ _______ _____ _____    ______ ____
ROOT
ATOM      1  C   UNL     1       0.587   3.388  19.718  0.00  0.00    +0.000 C 
ATOM      2  C   UNL     1       1.770   3.825  18.893  0.00  0.00    +0.000 A 
ATOM      3  C   UNL     1       2.263   2.900  17.946  0.00  0.00    +0.000 A 
ATOM      4  C   UNL     1       3.345   3.209  17.125  0.00  0.00    +0.000 A 
ATOM      5  C   UNL     1       3.947   4.459  17.235  0.00  0.00    +0.000 A 
ATOM      6  C   UNL     1       3.480   5.384  18.174  0.00  0.00    +0.000 A 
ATOM      7  C   UNL     1       2.370   5.102  18.993  0.00  0.00    +0.000 A 
ENDROOT
BRANCH   7   8
ATOM      8  N   UNL     1       1.878   6.074  19.917  0.00  0.00    +0.000 N 
ATOM      9  C   UNL     1       1.849   7.444  19.680  0.00  0.00    +0.000 C 
ATOM     10  O   UNL     1       2.184   7.972  18.619  0.00  0.00    +0.000 OA
ATOM     11  H   UNL     1       1.371   5.734  20.726  0.00  0.00    +0.000 HD
BRANCH   9  12
ATOM     12  C   UNL     1       1.360   8.312  20.833  0.00  0.00    +0.000 C 
BRANCH  12  13
ATOM     13  C   UNL     1       1.374   9.779  20.366  0.00  0.00    +0.000 C 
BRANCH  13  14
ATOM     14  N   UNL     1       0.433  10.136  19.304  0.00  0.00    +0.000 N 
ATOM     15  C   UNL     1      -0.824  10.621  19.598  0.00  0.00    +0.000 C 
ATOM     16  O   UNL     1      -1.158  10.946  20.732  0.00  0.00    +0.000 OA
ATOM     17  H   UNL     1       0.504   9.573  18.463  0.00  0.00    +0.000 HD
BRANCH  15  18
ATOM     18  C   UNL     1      -1.808  10.701  18.481  0.00  0.00    +0.000 A 
ATOM     19  C   UNL     1      -1.617   9.845  17.386  0.00  0.00    +0.000 A 
ATOM     20  C   UNL     1      -2.530   9.832  16.329  0.00  0.00    +0.000 A 
ATOM     21  C   UNL     1      -3.640  10.672  16.365  0.00  0.00    +0.000 A 
ATOM     22  C   UNL     1      -3.835  11.532  17.449  0.00  0.00    +0.000 A 
ATOM     23  C   UNL     1      -2.919  11.553  18.506  0.00  0.00    +0.000 A 
ENDBRANCH  15  18
ENDBRANCH  13  14
ENDBRANCH  12  13
ENDBRANCH   9  12
ENDBRANCH   7   8
BRANCH   5  24
ATOM     24  S   UNL     1       5.414   4.812  16.275  0.00  0.00    +0.000 S 
ATOM     25  O   UNL     1       6.125   3.565  16.086  0.00  0.00    +0.000 OA
ATOM     26  O   UNL     1       4.987   5.598  15.136  0.00  0.00    +0.000 OA
BRANCH  24  27
ATOM     27  N   UNL     1       6.353   5.825  17.286  0.00  0.00    +0.000 NA
ATOM     28  C   UNL     1       7.271   5.126  18.220  0.00  0.00    +0.000 C 
ATOM     29  C   UNL     1       7.832   6.090  19.261  0.00  0.00    +0.000 C 
ATOM     30  C   UNL     1       8.490   7.291  18.596  0.00  0.00    +0.000 C 
ATOM     31  C   UNL     1       7.485   7.988  17.688  0.00  0.00    +0.000 C 
ATOM     32  C   UNL     1       6.934   7.027  16.635  0.00  0.00    +0.000 C 
ENDBRANCH  24  27
ENDBRANCH   5  24
TORSDOF 7
ENDMDL
