MODEL 1
REMARK VINA RESULT:      -6.5      0.000      0.000
REMARK  Name = 
REMARK  5 active torsions:
REMARK  status: ('A' for Active; 'I' for Inactive)
REMARK    1  A    between atoms: C_1  and  O_2
REMARK    2  A    between atoms: O_2  and  C_3
REMARK    3  A    between atoms: C_9  and  N_10
REMARK    4  A    between atoms: C_11  and  S_12
REMARK    5  A    between atoms: N_13  and  N_14
REMARK                            x       y       z     vdW  Elec       q    Type
REMARK                         _______ _______ _______ _____ _____    ______ ____
ROOT
ATOM      1  N   UNL     1       5.158   3.812  17.261  0.00  0.00    +0.000 NA
ATOM      2  C   UNL     1       4.339   4.549  17.941  0.00  0.00    +0.000 C 
ATOM      3  N   UNL     1       3.811   4.170  19.158  0.00  0.00    +0.000 N 
ATOM      4  H   UNL     1       3.910   4.837  19.917  0.00  0.00    +0.000 HD
ENDROOT
BRANCH   1  11
ATOM      5  C   UNL     1       6.960   4.840  16.011  0.00  0.00    +0.000 A 
ATOM      6  C   UNL     1       7.603   5.132  14.800  0.00  0.00    +0.000 A 
ATOM      7  C   UNL     1       7.079   4.661  13.598  0.00  0.00    +0.000 A 
ATOM      8  C   UNL     1       5.885   3.956  13.596  0.00  0.00    +0.000 A 
ATOM      9 CL   UNL     1       5.234   3.369  12.118  0.00  0.00    +0.000 Cl
ATOM     10  C   UNL     1       5.223   3.692  14.795  0.00  0.00    +0.000 A 
ATOM     11  C   UNL     1       5.779   4.067  16.026  0.00  0.00    +0.000 A 
BRANCH   5  13
ATOM     12  C   UNL     1       7.458   6.674  17.477  0.00  0.00    +0.000 C 
ATOM     13  O   UNL     1       7.420   5.274  17.236  0.00  0.00    +0.000 OA
ENDBRANCH   5  13
ENDBRANCH   1  11
BRANCH   3  14
ATOM     14  N   UNL     1       3.543   2.808  19.404  0.00  0.00    +0.000 NA
ATOM     15  C   UNL     1       2.254   2.428  18.795  0.00  0.00    +0.000 C 
ATOM     16  C   UNL     1       1.037   2.948  19.571  0.00  0.00    +0.000 C 
ATOM     17  O   UNL     1       1.083   2.552  20.946  0.00  0.00    +0.000 OA
ATOM     18  C   UNL     1       2.287   3.019  21.570  0.00  0.00    +0.000 C 
ATOM     19  C   UNL     1       3.536   2.506  20.846  0.00  0.00    +0.000 C 
ENDBRANCH   3  14
BRANCH   2  20
ATOM     20  S   UNL     1       3.734   6.143  17.494  0.00  0.00    +0.000 S 
ATOM     21  H   UNL     1       4.191   6.122  16.237  0.00  0.00    +0.000 HD
ENDBRANCH   2  20
TORSDOF 4
ENDMDL
MODEL 2
REMARK VINA RESULT:      -6.0      0.904      1.213
REMARK  Name = 
REMARK  5 active torsions:
REMARK  status: ('A' for Active; 'I' for Inactive)
REMARK    1  A    between atoms: C_1  and  O_2
REMARK    2  A    between atoms: O_2  and  C_3
REMARK    3  A    between atoms: C_9  and  N_10
REMARK    4  A    between atoms: C_11  and  S_12
REMARK    5  A    between atoms: N_13  and  N_14
REMARK                            x       y       z     vdW  Elec       q    Type
REMARK                         _______ _______ _______ _____ _____    ______ ____
ROOT
ATOM      1  N   UNL     1       4.501   4.138  17.505  0.00  0.00    +0.000 NA
ATOM      2  C   UNL     1       3.770   5.029  18.095  0.00  0.00    +0.000 C 
ATOM      3  N   UNL     1       2.957   4.749  19.174  0.00  0.00    +0.000 N 
ATOM      4  H   UNL     1       3.072   5.344  19.988  0.00  0.00    +0.000 HD
ENDROOT
BRANCH   1  11
ATOM      5  C   UNL     1       6.646   4.852  16.636  0.00  0.00    +0.000 A 
ATOM      6  C   UNL     1       7.545   5.023  15.574  0.00  0.00    +0.000 A 
ATOM      7  C   UNL     1       7.190   4.626  14.286  0.00  0.00    +0.000 A 
ATOM      8  C   UNL     1       5.922   4.119  14.046  0.00  0.00    +0.000 A 
ATOM      9 CL   UNL     1       5.478   3.624  12.462  0.00  0.00    +0.000 Cl
ATOM     10  C   UNL     1       5.011   3.978  15.094  0.00  0.00    +0.000 A 
ATOM     11  C   UNL     1       5.377   4.276  16.414  0.00  0.00    +0.000 A 
BRANCH   5  13
ATOM     12  C   UNL     1       7.550   6.484  18.147  0.00  0.00    +0.000 C 
ATOM     13  O   UNL     1       6.929   5.223  17.933  0.00  0.00    +0.000 OA
ENDBRANCH   5  13
ENDBRANCH   1  11
BRANCH   3  14
ATOM     14  N   UNL     1       2.336   3.487  19.265  0.00  0.00    +0.000 NA
ATOM     15  C   UNL     1       1.332   3.493  20.346  0.00  0.00    +0.000 C 
ATOM     16  C   UNL     1       1.949   3.443  21.750  0.00  0.00    +0.000 C 
ATOM     17  O   UNL     1       2.839   2.330  21.891  0.00  0.00    +0.000 OA
ATOM     18  C   UNL     1       3.882   2.383  20.908  0.00  0.00    +0.000 C 
ATOM     19  C   UNL     1       3.318   2.411  19.485  0.00  0.00    +0.000 C 
ENDBRANCH   3  14
BRANCH   2  20
ATOM     20  S   UNL     1       3.648   6.738  17.679  0.00  0.00    +0.000 S 
ATOM     21  H   UNL     1       4.962   6.989  17.725  0.00  0.00    +0.000 HD
ENDBRANCH   2  20
TORSDOF 4
ENDMDL
MODEL 3
REMARK VINA RESULT:      -5.4      4.493      5.644
REMARK  Name = 
REMARK  5 active torsions:
REMARK  status: ('A' for Active; 'I' for Inactive)
REMARK    1  A    between atoms: C_1  and  O_2
REMARK    2  A    between atoms: O_2  and  C_3
REMARK    3  A    between atoms: C_9  and  N_10
REMARK    4  A    between atoms: C_11  and  S_12
REMARK    5  A    between atoms: N_13  and  N_14
REMARK                            x       y       z     vdW  Elec       q    Type
REMARK                         _______ _______ _______ _____ _____    ______ ____
ROOT
ATOM      1  N   UNL     1       2.897   6.503  19.264  0.00  0.00    +0.000 NA
ATOM      2  C   UNL     1       2.195   6.229  20.316  0.00  0.00    +0.000 C 
ATOM      3  N   UNL     1       1.377   7.148  20.942  0.00  0.00    +0.000 N 
ATOM      4  H   UNL     1       0.419   6.855  21.105  0.00  0.00    +0.000 HD
ENDROOT
BRANCH   1  11
ATOM      5  C   UNL     1       3.190   4.728  17.643  0.00  0.00    +0.000 A 
ATOM      6  C   UNL     1       4.011   3.873  16.893  0.00  0.00    +0.000 A 
ATOM      7  C   UNL     1       5.398   3.952  17.011  0.00  0.00    +0.000 A 
ATOM      8  C   UNL     1       5.962   4.836  17.918  0.00  0.00    +0.000 A 
ATOM      9 CL   UNL     1       7.670   4.943  18.066  0.00  0.00    +0.000 Cl
ATOM     10  C   UNL     1       5.149   5.666  18.691  0.00  0.00    +0.000 A 
ATOM     11  C   UNL     1       3.757   5.677  18.520  0.00  0.00    +0.000 A 
BRANCH   5  13
ATOM     12  C   UNL     1       1.148   3.508  17.965  0.00  0.00    +0.000 C 
ATOM     13  O   UNL     1       1.814   4.703  17.578  0.00  0.00    +0.000 OA
ENDBRANCH   5  13
ENDBRANCH   1  11
BRANCH   3  14
ATOM     14  N   UNL     1       1.746   8.507  20.956  0.00  0.00    +0.000 NA
ATOM     15  C   UNL     1       1.491   9.087  22.288  0.00  0.00    +0.000 C 
ATOM     16  C   UNL     1       0.004   9.347  22.565  0.00  0.00    +0.000 C 
ATOM     17  O   UNL     1      -0.587  10.154  21.540  0.00  0.00    +0.000 OA
ATOM     18  C   UNL     1      -0.437   9.535  20.255  0.00  0.00    +0.000 C 
ATOM     19  C   UNL     1       1.035   9.276  19.920  0.00  0.00    +0.000 C 
ENDBRANCH   3  14
BRANCH   2  20
ATOM     20  S   UNL     1       2.117   4.683  21.160  0.00  0.00    +0.000 S 
ATOM     21  H   UNL     1       2.274   3.919  20.072  0.00  0.00    +0.000 HD
ENDBRANCH   2  20
TORSDOF 4
ENDMDL
MODEL 4
REMARK VINA RESULT:      -5.3      4.149      6.905
REMARK  Name = 
REMARK  5 active torsions:
REMARK  status: ('A' for Active; 'I' for Inactive)
REMARK    1  A    between atoms: C_1  and  O_2
REMARK    2  A    between atoms: O_2  and  C_3
REMARK    3  A    between atoms: C_9  and  N_10
REMARK    4  A    between atoms: C_11  and  S_12
REMARK    5  A    between atoms: N_13  and  N_14
REMARK                            x       y       z     vdW  Elec       q    Type
REMARK                         _______ _______ _______ _____ _____    ______ ____
ROOT
ATOM      1  N   UNL     1       3.414   6.818  18.260  0.00  0.00    +0.000 NA
ATOM      2  C   UNL     1       3.285   5.673  17.669  0.00  0.00    +0.000 C 
ATOM      3  N   UNL     1       4.310   5.057  16.980  0.00  0.00    +0.000 N 
ATOM      4  H   UNL     1       4.506   4.094  17.235  0.00  0.00    +0.000 HD
ENDROOT
BRANCH   1  11
ATOM      5  C   UNL     1       2.101   7.084  20.278  0.00  0.00    +0.000 A 
ATOM      6  C   UNL     1       1.155   7.779  21.044  0.00  0.00    +0.000 A 
ATOM      7  C   UNL     1       0.572   8.944  20.548  0.00  0.00    +0.000 A 
ATOM      8  C   UNL     1       0.883   9.379  19.269  0.00  0.00    +0.000 A 
ATOM      9 CL   UNL     1       0.171  10.815  18.651  0.00  0.00    +0.000 Cl
ATOM     10  C   UNL     1       1.798   8.671  18.489  0.00  0.00    +0.000 A 
ATOM     11  C   UNL     1       2.474   7.555  19.001  0.00  0.00    +0.000 A 
BRANCH   5  13
ATOM     12  C   UNL     1       1.891   4.834  21.088  0.00  0.00    +0.000 C 
ATOM     13  O   UNL     1       2.716   5.926  20.704  0.00  0.00    +0.000 OA
ENDBRANCH   5  13
ENDBRANCH   1  11
BRANCH   3  14
ATOM     14  N   UNL     1       5.254   5.844  16.292  0.00  0.00    +0.000 NA
ATOM     15  C   UNL     1       5.648   5.181  15.035  0.00  0.00    +0.000 C 
ATOM     16  C   UNL     1       6.592   3.989  15.245  0.00  0.00    +0.000 C 
ATOM     17  O   UNL     1       7.747   4.363  16.004  0.00  0.00    +0.000 OA
ATOM     18  C   UNL     1       7.367   4.907  17.275  0.00  0.00    +0.000 C 
ATOM     19  C   UNL     1       6.442   6.117  17.120  0.00  0.00    +0.000 C 
ENDBRANCH   3  14
BRANCH   2  20
ATOM     20  S   UNL     1       1.835   4.672  17.611  0.00  0.00    +0.000 S 
ATOM     21  H   UNL     1       2.472   3.496  17.636  0.00  0.00    +0.000 HD
ENDBRANCH   2  20
TORSDOF 4
ENDMDL
MODEL 5
REMARK VINA RESULT:      -5.2      2.832      6.430
REMARK  Name = 
REMARK  5 active torsions:
REMARK  status: ('A' for Active; 'I' for Inactive)
REMARK    1  A    between atoms: C_1  and  O_2
REMARK    2  A    between atoms: O_2  and  C_3
REMARK    3  A    between atoms: C_9  and  N_10
REMARK    4  A    between atoms: C_11  and  S_12
REMARK    5  A    between atoms: N_13  and  N_14
REMARK                            x       y       z     vdW  Elec       q    Type
REMARK                         _______ _______ _______ _____ _____    ______ ____
ROOT
ATOM      1  N   UNL     1       4.879   4.067  16.471  0.00  0.00    +0.000 NA
ATOM      2  C   UNL     1       5.147   5.230  15.968  0.00  0.00    +0.000 C 
ATOM      3  N   UNL     1       5.872   5.404  14.807  0.00  0.00    +0.000 N 
ATOM      4  H   UNL     1       5.445   5.992  14.097  0.00  0.00    +0.000 HD
ENDROOT
BRANCH   1  11
ATOM      5  C   UNL     1       4.817   3.752  18.872  0.00  0.00    +0.000 A 
ATOM      6  C   UNL     1       4.134   3.414  20.048  0.00  0.00    +0.000 A 
ATOM      7  C   UNL     1       2.788   3.056  19.998  0.00  0.00    +0.000 A 
ATOM      8  C   UNL     1       2.142   2.974  18.773  0.00  0.00    +0.000 A 
ATOM      9 CL   UNL     1       0.482   2.537  18.703  0.00  0.00    +0.000 Cl
ATOM     10  C   UNL     1       2.827   3.277  17.596  0.00  0.00    +0.000 A 
ATOM     11  C   UNL     1       4.151   3.736  17.627  0.00  0.00    +0.000 A 
BRANCH   5  13
ATOM     12  C   UNL     1       6.511   5.362  19.421  0.00  0.00    +0.000 C 
ATOM     13  O   UNL     1       6.147   4.114  18.846  0.00  0.00    +0.000 OA
ENDBRANCH   5  13
ENDBRANCH   1  11
BRANCH   3  14
ATOM     14  N   UNL     1       6.905   4.500  14.493  0.00  0.00    +0.000 NA
ATOM     15  C   UNL     1       7.970   5.189  13.740  0.00  0.00    +0.000 C 
ATOM     16  C   UNL     1       7.595   5.479  12.281  0.00  0.00    +0.000 C 
ATOM     17  O   UNL     1       7.182   4.289  11.599  0.00  0.00    +0.000 OA
ATOM     18  C   UNL     1       6.072   3.677  12.270  0.00  0.00    +0.000 C 
ATOM     19  C   UNL     1       6.404   3.344  13.728  0.00  0.00    +0.000 C 
ENDBRANCH   3  14
BRANCH   2  20
ATOM     20  S   UNL     1       4.666   6.796  16.618  0.00  0.00    +0.000 S 
ATOM     21  H   UNL     1       3.664   6.335  17.375  0.00  0.00    +0.000 HD
ENDBRANCH   2  20
TORSDOF 4
ENDMDL
MODEL 6
REMARK VINA RESULT:      -5.2      1.857      2.186
REMARK  Name = 
REMARK  5 active torsions:
REMARK  status: ('A' for Active; 'I' for Inactive)
REMARK    1  A    between atoms: C_1  and  O_2
REMARK    2  A    between atoms: O_2  and  C_3
REMARK    3  A    between atoms: C_9  and  N_10
REMARK    4  A    between atoms: C_11  and  S_12
REMARK    5  A    between atoms: N_13  and  N_14
REMARK                            x       y       z     vdW  Elec       q    Type
REMARK                         _______ _______ _______ _____ _____    ______ ____
ROOT
ATOM      1  N   UNL     1       3.676   4.006  17.254  0.00  0.00    +0.000 NA
ATOM      2  C   UNL     1       3.268   2.908  17.806  0.00  0.00    +0.000 C 
ATOM      3  N   UNL     1       2.073   2.802  18.488  0.00  0.00    +0.000 N 
ATOM      4  H   UNL     1       1.461   2.044  18.204  0.00  0.00    +0.000 HD
ENDROOT
BRANCH   1  11
ATOM      5  C   UNL     1       5.901   4.958  17.160  0.00  0.00    +0.000 A 
ATOM      6  C   UNL     1       7.084   5.247  16.465  0.00  0.00    +0.000 A 
ATOM      7  C   UNL     1       7.233   4.847  15.138  0.00  0.00    +0.000 A 
ATOM      8  C   UNL     1       6.182   4.218  14.487  0.00  0.00    +0.000 A 
ATOM      9 CL   UNL     1       6.358   3.719  12.852  0.00  0.00    +0.000 Cl
ATOM     10  C   UNL     1       4.990   3.959  15.163  0.00  0.00    +0.000 A 
ATOM     11  C   UNL     1       4.851   4.260  16.525  0.00  0.00    +0.000 A 
BRANCH   5  13
ATOM     12  C   UNL     1       6.818   5.503  19.309  0.00  0.00    +0.000 C 
ATOM     13  O   UNL     1       5.684   5.324  18.471  0.00  0.00    +0.000 OA
ENDBRANCH   5  13
ENDBRANCH   1  11
BRANCH   3  14
ATOM     14  N   UNL     1       1.588   3.909  19.214  0.00  0.00    +0.000 NA
ATOM     15  C   UNL     1       2.704   4.605  19.881  0.00  0.00    +0.000 C 
ATOM     16  C   UNL     1       3.238   3.859  21.112  0.00  0.00    +0.000 C 
ATOM     17  O   UNL     1       2.191   3.570  22.045  0.00  0.00    +0.000 OA
ATOM     18  C   UNL     1       1.155   2.796  21.424  0.00  0.00    +0.000 C 
ATOM     19  C   UNL     1       0.570   3.509  20.201  0.00  0.00    +0.000 C 
ENDBRANCH   3  14
BRANCH   2  20
ATOM     20  S   UNL     1       4.103   1.355  17.812  0.00  0.00    +0.000 S 
ATOM     21  H   UNL     1       4.075   1.174  16.486  0.00  0.00    +0.000 HD
ENDBRANCH   2  20
TORSDOF 4
ENDMDL
MODEL 7
REMARK VINA RESULT:      -5.2      3.632      4.163
REMARK  Name = 
REMARK  5 active torsions:
REMARK  status: ('A' for Active; 'I' for Inactive)
REMARK    1  A    between atoms: C_1  and  O_2
REMARK    2  A    between atoms: O_2  and  C_3
REMARK    3  A    between atoms: C_9  and  N_10
REMARK    4  A    between atoms: C_11  and  S_12
REMARK    5  A    between atoms: N_13  and  N_14
REMARK                            x       y       z     vdW  Elec       q    Type
REMARK                         _______ _______ _______ _____ _____    ______ ____
ROOT
ATOM      1  N   UNL     1       4.014   6.360  17.349  0.00  0.00    +0.000 NA
ATOM      2  C   UNL     1       2.902   5.990  17.900  0.00  0.00    +0.000 C 
ATOM      3  N   UNL     1       1.985   6.879  18.424  0.00  0.00    +0.000 N 
ATOM      4  H   UNL     1       1.027   6.775  18.103  0.00  0.00    +0.000 HD
ENDROOT
BRANCH   1  11
ATOM      5  C   UNL     1       6.175   5.283  17.538  0.00  0.00    +0.000 A 
ATOM      6  C   UNL     1       7.219   4.521  16.994  0.00  0.00    +0.000 A 
ATOM      7  C   UNL     1       7.134   4.052  15.684  0.00  0.00    +0.000 A 
ATOM      8  C   UNL     1       6.043   4.394  14.899  0.00  0.00    +0.000 A 
ATOM      9 CL   UNL     1       5.929   3.817  13.285  0.00  0.00    +0.000 Cl
ATOM     10  C   UNL     1       5.017   5.180  15.425  0.00  0.00    +0.000 A 
ATOM     11  C   UNL     1       5.029   5.580  16.769  0.00  0.00    +0.000 A 
BRANCH   5  13
ATOM     12  C   UNL     1       7.427   5.769  19.527  0.00  0.00    +0.000 C 
ATOM     13  O   UNL     1       6.192   5.780  18.824  0.00  0.00    +0.000 OA
ENDBRANCH   5  13
ENDBRANCH   1  11
BRANCH   3  14
ATOM     14  N   UNL     1       2.438   8.073  19.019  0.00  0.00    +0.000 NA
ATOM     15  C   UNL     1       1.822   8.242  20.349  0.00  0.00    +0.000 C 
ATOM     16  C   UNL     1       0.349   8.670  20.287  0.00  0.00    +0.000 C 
ATOM     17  O   UNL     1       0.180   9.852  19.497  0.00  0.00    +0.000 OA
ATOM     18  C   UNL     1       0.679   9.652  18.167  0.00  0.00    +0.000 C 
ATOM     19  C   UNL     1       2.156   9.245  18.172  0.00  0.00    +0.000 C 
ENDBRANCH   3  14
BRANCH   2  20
ATOM     20  S   UNL     1       2.320   4.338  18.098  0.00  0.00    +0.000 S 
ATOM     21  H   UNL     1       3.227   3.771  17.295  0.00  0.00    +0.000 HD
ENDBRANCH   2  20
TORSDOF 4
ENDMDL
MODEL 8
REMARK VINA RESULT:      -5.0      6.708      7.939
REMARK  Name = 
REMARK  5 active torsions:
REMARK  status: ('A' for Active; 'I' for Inactive)
REMARK    1  A    between atoms: C_1  and  O_2
REMARK    2  A    between atoms: O_2  and  C_3
REMARK    3  A    between atoms: C_9  and  N_10
REMARK    4  A    between atoms: C_11  and  S_12
REMARK    5  A    between atoms: N_13  and  N_14
REMARK                            x       y       z     vdW  Elec       q    Type
REMARK                         _______ _______ _______ _____ _____    ______ ____
ROOT
ATOM      1  N   UNL     1       1.200   9.163  18.343  0.00  0.00    +0.000 NA
ATOM      2  C   UNL     1       1.627   8.446  19.333  0.00  0.00    +0.000 C 
ATOM      3  N   UNL     1       2.611   7.486  19.204  0.00  0.00    +0.000 N 
ATOM      4  H   UNL     1       3.389   7.554  19.853  0.00  0.00    +0.000 HD
ENDROOT
BRANCH   1  11
ATOM      5  C   UNL     1       0.620  11.502  18.586  0.00  0.00    +0.000 A 
ATOM      6  C   UNL     1      -0.324  12.538  18.593  0.00  0.00    +0.000 A 
ATOM      7  C   UNL     1      -1.667  12.263  18.341  0.00  0.00    +0.000 A 
ATOM      8  C   UNL     1      -2.077  10.953  18.148  0.00  0.00    +0.000 A 
ATOM      9 CL   UNL     1      -3.730  10.606  17.834  0.00  0.00    +0.000 Cl
ATOM     10  C   UNL     1      -1.147   9.914  18.173  0.00  0.00    +0.000 A 
ATOM     11  C   UNL     1       0.223  10.173  18.324  0.00  0.00    +0.000 A 
BRANCH   5  13
ATOM     12  C   UNL     1       2.574  12.864  18.287  0.00  0.00    +0.000 C 
ATOM     13  O   UNL     1       1.963  11.700  18.828  0.00  0.00    +0.000 OA
ENDBRANCH   5  13
ENDBRANCH   1  11
BRANCH   3  14
ATOM     14  N   UNL     1       2.711   6.752  18.006  0.00  0.00    +0.000 NA
ATOM     15  C   UNL     1       2.204   5.381  18.208  0.00  0.00    +0.000 C 
ATOM     16  C   UNL     1       3.168   4.486  18.997  0.00  0.00    +0.000 C 
ATOM     17  O   UNL     1       4.469   4.462  18.399  0.00  0.00    +0.000 OA
ATOM     18  C   UNL     1       5.011   5.787  18.304  0.00  0.00    +0.000 C 
ATOM     19  C   UNL     1       4.095   6.717  17.503  0.00  0.00    +0.000 C 
ENDBRANCH   3  14
BRANCH   2  20
ATOM     20  S   UNL     1       1.079   8.524  21.006  0.00  0.00    +0.000 S 
ATOM     21  H   UNL     1       0.974   7.202  21.184  0.00  0.00    +0.000 HD
ENDBRANCH   2  20
TORSDOF 4
ENDMDL
MODEL 9
REMARK VINA RESULT:      -4.8     11.617     12.836
REMARK  Name = 
REMARK  5 active torsions:
REMARK  status: ('A' for Active; 'I' for Inactive)
REMARK    1  A    between atoms: C_1  and  O_2
REMARK    2  A    between atoms: O_2  and  C_3
REMARK    3  A    between atoms: C_9  and  N_10
REMARK    4  A    between atoms: C_11  and  S_12
REMARK    5  A    between atoms: N_13  and  N_14
REMARK                            x       y       z     vdW  Elec       q    Type
REMARK                         _______ _______ _______ _____ _____    ______ ____
ROOT
ATOM      1  N   UNL     1      -4.818  12.264  18.812  0.00  0.00    +0.000 NA
ATOM      2  C   UNL     1      -5.938  11.925  19.366  0.00  0.00    +0.000 C 
ATOM      3  N   UNL     1      -6.657  12.763  20.194  0.00  0.00    +0.000 N 
ATOM      4  H   UNL     1      -7.637  12.890  19.960  0.00  0.00    +0.000 HD
ENDROOT
BRANCH   1  11
ATOM      5  C   UNL     1      -2.691  11.186  18.387  0.00  0.00    +0.000 A 
ATOM      6  C   UNL     1      -1.823  10.468  17.551  0.00  0.00    +0.000 A 
ATOM      7  C   UNL     1      -2.236  10.088  16.275  0.00  0.00    +0.000 A 
ATOM      8  C   UNL     1      -3.483  10.477  15.810  0.00  0.00    +0.000 A 
ATOM      9 CL   UNL     1      -4.001  10.010  14.240  0.00  0.00    +0.000 Cl
ATOM     10  C   UNL     1      -4.337  11.221  16.626  0.00  0.00    +0.000 A 
ATOM     11  C   UNL     1      -3.988  11.529  17.948  0.00  0.00    +0.000 A 
BRANCH   5  13
ATOM     12  C   UNL     1      -1.017  11.366  20.098  0.00  0.00    +0.000 C 
ATOM     13  O   UNL     1      -2.349  11.596  19.658  0.00  0.00    +0.000 OA
ENDBRANCH   5  13
ENDBRANCH   1  11
BRANCH   3  14
ATOM     14  N   UNL     1      -5.973  13.674  21.022  0.00  0.00    +0.000 NA
ATOM     15  C   UNL     1      -5.559  13.010  22.272  0.00  0.00    +0.000 C 
ATOM     16  C   UNL     1      -6.718  12.780  23.252  0.00  0.00    +0.000 C 
ATOM     17  O   UNL     1      -7.417  13.998  23.532  0.00  0.00    +0.000 OA
ATOM     18  C   UNL     1      -7.916  14.589  22.325  0.00  0.00    +0.000 C 
ATOM     19  C   UNL     1      -6.792  14.862  21.320  0.00  0.00    +0.000 C 
ENDBRANCH   3  14
BRANCH   2  20
ATOM     20  S   UNL     1      -6.776  10.383  19.197  0.00  0.00    +0.000 S 
ATOM     21  H   UNL     1      -6.481  10.202  17.904  0.00  0.00    +0.000 HD
ENDBRANCH   2  20
TORSDOF 4
ENDMDL
