MODEL 1
REMARK VINA RESULT:      -6.4      0.000      0.000
REMARK  Name = 
REMARK  6 active torsions:
REMARK  status: ('A' for Active; 'I' for Inactive)
REMARK    1  A    between atoms: C_2  and  O_3
REMARK    2  A    between atoms: C_2  and  C_4
REMARK    3  A    between atoms: C_4  and  C_5
REMARK    4  A    between atoms: C_4  and  C_12
REMARK    5  A    between atoms: C_5  and  C_6
REMARK    6  A    between atoms: C_12  and  N_13
REMARK                            x       y       z     vdW  Elec       q    Type
REMARK                         _______ _______ _______ _____ _____    ______ ____
ROOT
ATOM      1  C   UNL     1       5.859   4.973  16.718  0.00  0.00    +0.000 C 
ENDROOT
BRANCH   1   3
ATOM      2  O   UNL     1       5.486   4.576  14.362  0.00  0.00    +0.000 OA
ATOM      3  C   UNL     1       6.242   4.923  15.255  0.00  0.00    +0.000 C 
BRANCH   3   4
ATOM      4  O   UNL     1       7.497   5.347  14.987  0.00  0.00    +0.000 OA
ATOM      5  H   UNL     1       7.819   6.111  15.502  0.00  0.00    +0.000 HD
ENDBRANCH   3   4
ENDBRANCH   1   3
BRANCH   1   6
ATOM      6  C   UNL     1       4.392   5.388  16.942  0.00  0.00    +0.000 C 
BRANCH   6   7
ATOM      7  C   UNL     1       3.458   4.329  17.478  0.00  0.00    +0.000 A 
ATOM      8  C   UNL     1       2.141   4.625  17.860  0.00  0.00    +0.000 A 
ATOM      9  C   UNL     1       1.291   3.616  18.320  0.00  0.00    +0.000 A 
ATOM     10  C   UNL     1       1.739   2.301  18.389  0.00  0.00    +0.000 A 
ATOM     11  C   UNL     1       3.040   1.992  18.006  0.00  0.00    +0.000 A 
ATOM     12  C   UNL     1       3.894   2.999  17.554  0.00  0.00    +0.000 A 
ENDBRANCH   6   7
ENDBRANCH   1   6
BRANCH   1  13
ATOM     13  C   UNL     1       6.874   5.862  17.449  0.00  0.00    +0.000 C 
BRANCH  13  14
ATOM     14  N   UNL     1       7.730   5.015  18.336  0.00  0.00    +0.000 N 
ATOM     15  O   UNL     1       7.748   5.289  19.542  0.00  0.00    +0.000 OA
ATOM     16  O   UNL     1       8.344   4.085  17.800  0.00  0.00    +0.000 OA
ENDBRANCH  13  14
ENDBRANCH   1  13
TORSDOF 6
ENDMDL
MODEL 2
REMARK VINA RESULT:      -6.3      1.676      2.916
REMARK  Name = 
REMARK  6 active torsions:
REMARK  status: ('A' for Active; 'I' for Inactive)
REMARK    1  A    between atoms: C_2  and  O_3
REMARK    2  A    between atoms: C_2  and  C_4
REMARK    3  A    between atoms: C_4  and  C_5
REMARK    4  A    between atoms: C_4  and  C_12
REMARK    5  A    between atoms: C_5  and  C_6
REMARK    6  A    between atoms: C_12  and  N_13
REMARK                            x       y       z     vdW  Elec       q    Type
REMARK                         _______ _______ _______ _____ _____    ______ ____
ROOT
ATOM      1  C   UNL     1       5.232   5.531  17.490  0.00  0.00    +0.000 C 
ENDROOT
BRANCH   1   3
ATOM      2  O   UNL     1       6.037   5.434  19.769  0.00  0.00    +0.000 OA
ATOM      3  C   UNL     1       5.709   4.845  18.751  0.00  0.00    +0.000 C 
BRANCH   3   4
ATOM      4  O   UNL     1       5.702   3.494  18.694  0.00  0.00    +0.000 OA
ATOM      5  H   UNL     1       6.315   3.081  18.057  0.00  0.00    +0.000 HD
ENDBRANCH   3   4
ENDBRANCH   1   3
BRANCH   1   6
ATOM      6  C   UNL     1       3.776   6.025  17.588  0.00  0.00    +0.000 C 
BRANCH   6   7
ATOM      7  C   UNL     1       2.825   5.187  18.408  0.00  0.00    +0.000 A 
ATOM      8  C   UNL     1       2.497   5.517  19.731  0.00  0.00    +0.000 A 
ATOM      9  C   UNL     1       1.586   4.741  20.452  0.00  0.00    +0.000 A 
ATOM     10  C   UNL     1       0.982   3.637  19.857  0.00  0.00    +0.000 A 
ATOM     11  C   UNL     1       1.292   3.303  18.543  0.00  0.00    +0.000 A 
ATOM     12  C   UNL     1       2.208   4.072  17.823  0.00  0.00    +0.000 A 
ENDBRANCH   6   7
ENDBRANCH   1   6
BRANCH   1  13
ATOM     13  C   UNL     1       5.491   4.591  16.305  0.00  0.00    +0.000 C 
BRANCH  13  14
ATOM     14  N   UNL     1       6.870   4.826  15.775  0.00  0.00    +0.000 N 
ATOM     15  O   UNL     1       7.819   4.396  16.442  0.00  0.00    +0.000 OA
ATOM     16  O   UNL     1       6.961   5.417  14.692  0.00  0.00    +0.000 OA
ENDBRANCH  13  14
ENDBRANCH   1  13
TORSDOF 6
ENDMDL
MODEL 3
REMARK VINA RESULT:      -6.3      1.871      2.526
REMARK  Name = 
REMARK  6 active torsions:
REMARK  status: ('A' for Active; 'I' for Inactive)
REMARK    1  A    between atoms: C_2  and  O_3
REMARK    2  A    between atoms: C_2  and  C_4
REMARK    3  A    between atoms: C_4  and  C_5
REMARK    4  A    between atoms: C_4  and  C_12
REMARK    5  A    between atoms: C_5  and  C_6
REMARK    6  A    between atoms: C_12  and  N_13
REMARK                            x       y       z     vdW  Elec       q    Type
REMARK                         _______ _______ _______ _____ _____    ______ ____
ROOT
ATOM      1  C   UNL     1       4.730   5.716  17.934  0.00  0.00    +0.000 C 
ENDROOT
BRANCH   1   3
ATOM      2  O   UNL     1       4.940   3.705  16.608  0.00  0.00    +0.000 OA
ATOM      3  C   UNL     1       5.195   4.307  17.639  0.00  0.00    +0.000 C 
BRANCH   3   4
ATOM      4  O   UNL     1       5.975   3.759  18.597  0.00  0.00    +0.000 OA
ATOM      5  H   UNL     1       5.990   2.785  18.643  0.00  0.00    +0.000 HD
ENDBRANCH   3   4
ENDBRANCH   1   3
BRANCH   1   6
ATOM      6  C   UNL     1       3.196   5.856  17.935  0.00  0.00    +0.000 C 
BRANCH   6   7
ATOM      7  C   UNL     1       2.425   4.913  18.827  0.00  0.00    +0.000 A 
ATOM      8  C   UNL     1       1.603   3.903  18.306  0.00  0.00    +0.000 A 
ATOM      9  C   UNL     1       0.930   3.025  19.158  0.00  0.00    +0.000 A 
ATOM     10  C   UNL     1       1.081   3.133  20.537  0.00  0.00    +0.000 A 
ATOM     11  C   UNL     1       1.898   4.126  21.068  0.00  0.00    +0.000 A 
ATOM     12  C   UNL     1       2.565   5.010  20.219  0.00  0.00    +0.000 A 
ENDBRANCH   6   7
ENDBRANCH   1   6
BRANCH   1  13
ATOM     13  C   UNL     1       5.440   6.669  16.963  0.00  0.00    +0.000 C 
BRANCH  13  14
ATOM     14  N   UNL     1       6.921   6.517  17.108  0.00  0.00    +0.000 N 
ATOM     15  O   UNL     1       7.397   6.624  18.245  0.00  0.00    +0.000 OA
ATOM     16  O   UNL     1       7.563   6.272  16.080  0.00  0.00    +0.000 OA
ENDBRANCH  13  14
ENDBRANCH   1  13
TORSDOF 6
ENDMDL
MODEL 4
REMARK VINA RESULT:      -6.2      1.886      2.626
REMARK  Name = 
REMARK  6 active torsions:
REMARK  status: ('A' for Active; 'I' for Inactive)
REMARK    1  A    between atoms: C_2  and  O_3
REMARK    2  A    between atoms: C_2  and  C_4
REMARK    3  A    between atoms: C_4  and  C_5
REMARK    4  A    between atoms: C_4  and  C_12
REMARK    5  A    between atoms: C_5  and  C_6
REMARK    6  A    between atoms: C_12  and  N_13
REMARK                            x       y       z     vdW  Elec       q    Type
REMARK                         _______ _______ _______ _____ _____    ______ ____
ROOT
ATOM      1  C   UNL     1       4.762   5.705  17.877  0.00  0.00    +0.000 C 
ENDROOT
BRANCH   1   3
ATOM      2  O   UNL     1       4.991   3.669  16.593  0.00  0.00    +0.000 OA
ATOM      3  C   UNL     1       5.190   4.275  17.634  0.00  0.00    +0.000 C 
BRANCH   3   4
ATOM      4  O   UNL     1       5.872   3.710  18.655  0.00  0.00    +0.000 OA
ATOM      5  H   UNL     1       6.009   4.263  19.448  0.00  0.00    +0.000 HD
ENDBRANCH   3   4
ENDBRANCH   1   3
BRANCH   1   6
ATOM      6  C   UNL     1       3.232   5.870  17.958  0.00  0.00    +0.000 C 
BRANCH   6   7
ATOM      7  C   UNL     1       2.487   4.902  18.846  0.00  0.00    +0.000 A 
ATOM      8  C   UNL     1       2.574   4.962  20.245  0.00  0.00    +0.000 A 
ATOM      9  C   UNL     1       1.845   4.074  21.040  0.00  0.00    +0.000 A 
ATOM     10  C   UNL     1       1.011   3.128  20.450  0.00  0.00    +0.000 A 
ATOM     11  C   UNL     1       0.911   3.063  19.065  0.00  0.00    +0.000 A 
ATOM     12  C   UNL     1       1.644   3.943  18.268  0.00  0.00    +0.000 A 
ENDBRANCH   6   7
ENDBRANCH   1   6
BRANCH   1  13
ATOM     13  C   UNL     1       5.427   6.592  16.817  0.00  0.00    +0.000 C 
BRANCH  13  14
ATOM     14  N   UNL     1       6.913   6.511  16.960  0.00  0.00    +0.000 N 
ATOM     15  O   UNL     1       7.558   6.096  15.990  0.00  0.00    +0.000 OA
ATOM     16  O   UNL     1       7.395   6.887  18.036  0.00  0.00    +0.000 OA
ENDBRANCH  13  14
ENDBRANCH   1  13
TORSDOF 6
ENDMDL
MODEL 5
REMARK VINA RESULT:      -6.2      1.056      1.887
REMARK  Name = 
REMARK  6 active torsions:
REMARK  status: ('A' for Active; 'I' for Inactive)
REMARK    1  A    between atoms: C_2  and  O_3
REMARK    2  A    between atoms: C_2  and  C_4
REMARK    3  A    between atoms: C_4  and  C_5
REMARK    4  A    between atoms: C_4  and  C_12
REMARK    5  A    between atoms: C_5  and  C_6
REMARK    6  A    between atoms: C_12  and  N_13
REMARK                            x       y       z     vdW  Elec       q    Type
REMARK                         _______ _______ _______ _____ _____    ______ ____
ROOT
ATOM      1  C   UNL     1       5.974   4.644  17.529  0.00  0.00    +0.000 C 
ENDROOT
BRANCH   1   3
ATOM      2  O   UNL     1       7.297   5.305  15.616  0.00  0.00    +0.000 OA
ATOM      3  C   UNL     1       7.214   4.685  16.664  0.00  0.00    +0.000 C 
BRANCH   3   4
ATOM      4  O   UNL     1       8.274   4.012  17.166  0.00  0.00    +0.000 OA
ATOM      5  H   UNL     1       8.080   3.173  17.625  0.00  0.00    +0.000 HD
ENDBRANCH   3   4
ENDBRANCH   1   3
BRANCH   1   6
ATOM      6  C   UNL     1       4.678   4.463  16.714  0.00  0.00    +0.000 C 
BRANCH   6   7
ATOM      7  C   UNL     1       3.532   3.762  17.402  0.00  0.00    +0.000 A 
ATOM      8  C   UNL     1       3.622   2.427  17.820  0.00  0.00    +0.000 A 
ATOM      9  C   UNL     1       2.554   1.817  18.485  0.00  0.00    +0.000 A 
ATOM     10  C   UNL     1       1.394   2.536  18.754  0.00  0.00    +0.000 A 
ATOM     11  C   UNL     1       1.294   3.864  18.351  0.00  0.00    +0.000 A 
ATOM     12  C   UNL     1       2.355   4.473  17.680  0.00  0.00    +0.000 A 
ENDBRANCH   6   7
ENDBRANCH   1   6
BRANCH   1  13
ATOM     13  C   UNL     1       5.974   5.887  18.428  0.00  0.00    +0.000 C 
BRANCH  13  14
ATOM     14  N   UNL     1       7.275   5.971  19.162  0.00  0.00    +0.000 N 
ATOM     15  O   UNL     1       7.453   5.184  20.100  0.00  0.00    +0.000 OA
ATOM     16  O   UNL     1       8.091   6.810  18.763  0.00  0.00    +0.000 OA
ENDBRANCH  13  14
ENDBRANCH   1  13
TORSDOF 6
ENDMDL
MODEL 6
REMARK VINA RESULT:      -6.2      1.754      3.254
REMARK  Name = 
REMARK  6 active torsions:
REMARK  status: ('A' for Active; 'I' for Inactive)
REMARK    1  A    between atoms: C_2  and  O_3
REMARK    2  A    between atoms: C_2  and  C_4
REMARK    3  A    between atoms: C_4  and  C_5
REMARK    4  A    between atoms: C_4  and  C_12
REMARK    5  A    between atoms: C_5  and  C_6
REMARK    6  A    between atoms: C_12  and  N_13
REMARK                            x       y       z     vdW  Elec       q    Type
REMARK                         _______ _______ _______ _____ _____    ______ ____
ROOT
ATOM      1  C   UNL     1       5.511   5.377  17.489  0.00  0.00    +0.000 C 
ENDROOT
BRANCH   1   3
ATOM      2  O   UNL     1       6.405   5.288  19.734  0.00  0.00    +0.000 OA
ATOM      3  C   UNL     1       5.918   4.702  18.780  0.00  0.00    +0.000 C 
BRANCH   3   4
ATOM      4  O   UNL     1       5.655   3.377  18.830  0.00  0.00    +0.000 OA
ATOM      5  H   UNL     1       5.146   3.062  19.601  0.00  0.00    +0.000 HD
ENDBRANCH   3   4
ENDBRANCH   1   3
BRANCH   1   6
ATOM      6  C   UNL     1       4.150   6.093  17.587  0.00  0.00    +0.000 C 
BRANCH   6   7
ATOM      7  C   UNL     1       3.068   5.396  18.375  0.00  0.00    +0.000 A 
ATOM      8  C   UNL     1       2.336   4.324  17.845  0.00  0.00    +0.000 A 
ATOM      9  C   UNL     1       1.364   3.678  18.613  0.00  0.00    +0.000 A 
ATOM     10  C   UNL     1       1.122   4.083  19.922  0.00  0.00    +0.000 A 
ATOM     11  C   UNL     1       1.846   5.140  20.463  0.00  0.00    +0.000 A 
ATOM     12  C   UNL     1       2.812   5.793  19.695  0.00  0.00    +0.000 A 
ENDBRANCH   6   7
ENDBRANCH   1   6
BRANCH   1  13
ATOM     13  C   UNL     1       5.587   4.339  16.361  0.00  0.00    +0.000 C 
BRANCH  13  14
ATOM     14  N   UNL     1       6.636   4.750  15.376  0.00  0.00    +0.000 N 
ATOM     15  O   UNL     1       6.660   4.160  14.289  0.00  0.00    +0.000 OA
ATOM     16  O   UNL     1       7.392   5.668  15.713  0.00  0.00    +0.000 OA
ENDBRANCH  13  14
ENDBRANCH   1  13
TORSDOF 6
ENDMDL
MODEL 7
REMARK VINA RESULT:      -6.1      1.735      3.018
REMARK  Name = 
REMARK  6 active torsions:
REMARK  status: ('A' for Active; 'I' for Inactive)
REMARK    1  A    between atoms: C_2  and  O_3
REMARK    2  A    between atoms: C_2  and  C_4
REMARK    3  A    between atoms: C_4  and  C_5
REMARK    4  A    between atoms: C_4  and  C_12
REMARK    5  A    between atoms: C_5  and  C_6
REMARK    6  A    between atoms: C_12  and  N_13
REMARK                            x       y       z     vdW  Elec       q    Type
REMARK                         _______ _______ _______ _____ _____    ______ ____
ROOT
ATOM      1  C   UNL     1       4.920   4.889  17.420  0.00  0.00    +0.000 C 
ENDROOT
BRANCH   1   3
ATOM      2  O   UNL     1       5.730   5.301  19.661  0.00  0.00    +0.000 OA
ATOM      3  C   UNL     1       5.455   4.501  18.781  0.00  0.00    +0.000 C 
BRANCH   3   4
ATOM      4  O   UNL     1       5.566   3.170  18.984  0.00  0.00    +0.000 OA
ATOM      5  H   UNL     1       6.428   2.766  18.769  0.00  0.00    +0.000 HD
ENDBRANCH   3   4
ENDBRANCH   1   3
BRANCH   1   6
ATOM      6  C   UNL     1       3.475   4.408  17.182  0.00  0.00    +0.000 C 
BRANCH   6   7
ATOM      7  C   UNL     1       2.602   4.240  18.403  0.00  0.00    +0.000 A 
ATOM      8  C   UNL     1       2.058   2.998  18.761  0.00  0.00    +0.000 A 
ATOM      9  C   UNL     1       1.282   2.869  19.916  0.00  0.00    +0.000 A 
ATOM     10  C   UNL     1       1.053   3.973  20.733  0.00  0.00    +0.000 A 
ATOM     11  C   UNL     1       1.592   5.209  20.393  0.00  0.00    +0.000 A 
ATOM     12  C   UNL     1       2.361   5.342  19.236  0.00  0.00    +0.000 A 
ENDBRANCH   6   7
ENDBRANCH   1   6
BRANCH   1  13
ATOM     13  C   UNL     1       5.917   4.408  16.358  0.00  0.00    +0.000 C 
BRANCH  13  14
ATOM     14  N   UNL     1       7.271   4.970  16.655  0.00  0.00    +0.000 N 
ATOM     15  O   UNL     1       8.098   4.216  17.182  0.00  0.00    +0.000 OA
ATOM     16  O   UNL     1       7.473   6.146  16.331  0.00  0.00    +0.000 OA
ENDBRANCH  13  14
ENDBRANCH   1  13
TORSDOF 6
ENDMDL
MODEL 8
REMARK VINA RESULT:      -6.1      1.842      2.863
REMARK  Name = 
REMARK  6 active torsions:
REMARK  status: ('A' for Active; 'I' for Inactive)
REMARK    1  A    between atoms: C_2  and  O_3
REMARK    2  A    between atoms: C_2  and  C_4
REMARK    3  A    between atoms: C_4  and  C_5
REMARK    4  A    between atoms: C_4  and  C_12
REMARK    5  A    between atoms: C_5  and  C_6
REMARK    6  A    between atoms: C_12  and  N_13
REMARK                            x       y       z     vdW  Elec       q    Type
REMARK                         _______ _______ _______ _____ _____    ______ ____
ROOT
ATOM      1  C   UNL     1       4.955   5.654  17.641  0.00  0.00    +0.000 C 
ENDROOT
BRANCH   1   3
ATOM      2  O   UNL     1       5.464   3.980  19.310  0.00  0.00    +0.000 OA
ATOM      3  C   UNL     1       5.199   4.251  18.150  0.00  0.00    +0.000 C 
BRANCH   3   4
ATOM      4  O   UNL     1       5.052   3.281  17.219  0.00  0.00    +0.000 OA
ATOM      5  H   UNL     1       5.613   3.351  16.424  0.00  0.00    +0.000 HD
ENDBRANCH   3   4
ENDBRANCH   1   3
BRANCH   1   6
ATOM      6  C   UNL     1       3.488   6.102  17.791  0.00  0.00    +0.000 C 
BRANCH   6   7
ATOM      7  C   UNL     1       2.565   5.174  18.544  0.00  0.00    +0.000 A 
ATOM      8  C   UNL     1       1.905   4.111  17.911  0.00  0.00    +0.000 A 
ATOM      9  C   UNL     1       1.083   3.249  18.643  0.00  0.00    +0.000 A 
ATOM     10  C   UNL     1       0.924   3.429  20.014  0.00  0.00    +0.000 A 
ATOM     11  C   UNL     1       1.579   4.476  20.655  0.00  0.00    +0.000 A 
ATOM     12  C   UNL     1       2.393   5.343  19.925  0.00  0.00    +0.000 A 
ENDBRANCH   6   7
ENDBRANCH   1   6
BRANCH   1  13
ATOM     13  C   UNL     1       5.487   5.743  16.204  0.00  0.00    +0.000 C 
BRANCH  13  14
ATOM     14  N   UNL     1       6.982   5.711  16.224  0.00  0.00    +0.000 N 
ATOM     15  O   UNL     1       7.537   4.688  15.805  0.00  0.00    +0.000 OA
ATOM     16  O   UNL     1       7.559   6.723  16.641  0.00  0.00    +0.000 OA
ENDBRANCH  13  14
ENDBRANCH   1  13
TORSDOF 6
ENDMDL
MODEL 9
REMARK VINA RESULT:      -6.1      1.937      3.270
REMARK  Name = 
REMARK  6 active torsions:
REMARK  status: ('A' for Active; 'I' for Inactive)
REMARK    1  A    between atoms: C_2  and  O_3
REMARK    2  A    between atoms: C_2  and  C_4
REMARK    3  A    between atoms: C_4  and  C_5
REMARK    4  A    between atoms: C_4  and  C_12
REMARK    5  A    between atoms: C_5  and  C_6
REMARK    6  A    between atoms: C_12  and  N_13
REMARK                            x       y       z     vdW  Elec       q    Type
REMARK                         _______ _______ _______ _____ _____    ______ ____
ROOT
ATOM      1  C   UNL     1       4.429   4.596  17.145  0.00  0.00    +0.000 C 
ENDROOT
BRANCH   1   3
ATOM      2  O   UNL     1       5.158   5.573  19.234  0.00  0.00    +0.000 OA
ATOM      3  C   UNL     1       5.234   4.662  18.425  0.00  0.00    +0.000 C 
BRANCH   3   4
ATOM      4  O   UNL     1       6.031   3.593  18.645  0.00  0.00    +0.000 OA
ATOM      5  H   UNL     1       6.960   3.781  18.878  0.00  0.00    +0.000 HD
ENDBRANCH   3   4
ENDBRANCH   1   3
BRANCH   1   6
ATOM      6  C   UNL     1       3.281   3.570  17.209  0.00  0.00    +0.000 C 
BRANCH   6   7
ATOM      7  C   UNL     1       2.536   3.460  18.518  0.00  0.00    +0.000 A 
ATOM      8  C   UNL     1       2.623   2.319  19.328  0.00  0.00    +0.000 A 
ATOM      9  C   UNL     1       1.948   2.262  20.550  0.00  0.00    +0.000 A 
ATOM     10  C   UNL     1       1.193   3.347  20.984  0.00  0.00    +0.000 A 
ATOM     11  C   UNL     1       1.104   4.488  20.194  0.00  0.00    +0.000 A 
ATOM     12  C   UNL     1       1.770   4.544  18.969  0.00  0.00    +0.000 A 
ENDBRANCH   6   7
ENDBRANCH   1   6
BRANCH   1  13
ATOM     13  C   UNL     1       5.401   4.369  15.979  0.00  0.00    +0.000 C 
BRANCH  13  14
ATOM     14  N   UNL     1       6.086   5.655  15.644  0.00  0.00    +0.000 N 
ATOM     15  O   UNL     1       5.374   6.650  15.460  0.00  0.00    +0.000 OA
ATOM     16  O   UNL     1       7.322   5.636  15.596  0.00  0.00    +0.000 OA
ENDBRANCH  13  14
ENDBRANCH   1  13
TORSDOF 6
ENDMDL
