MODEL 1
REMARK VINA RESULT:      -7.8      0.000      0.000
REMARK  Name = 
REMARK  2 active torsions:
REMARK  status: ('A' for Active; 'I' for Inactive)
REMARK    1  A    between atoms: O_1  and  C_2
REMARK    2  A    between atoms: C_4  and  C_5
REMARK                            x       y       z     vdW  Elec       q    Type
REMARK                         _______ _______ _______ _____ _____    ______ ____
ROOT
ATOM      1  C   UNL     1       6.625   4.630  18.020  0.00  0.00    +0.000 A 
ATOM      2  C   UNL     1       5.515   4.398  18.742  0.00  0.00    +0.000 A 
ATOM      3  C   UNL     1       4.262   4.100  17.970  0.00  0.00    +0.000 A 
ATOM      4  N   UNL     1       4.178   4.108  16.668  0.00  0.00    +0.000 NA
ATOM      5  C   UNL     1       5.327   4.364  15.976  0.00  0.00    +0.000 A 
ATOM      6  C   UNL     1       5.580   4.430  14.625  0.00  0.00    +0.000 A 
ATOM      7  C   UNL     1       6.947   4.711  14.521  0.00  0.00    +0.000 A 
ATOM      8  N   UNL     1       7.545   4.823  15.706  0.00  0.00    +0.000 NA
ATOM      9  N   UNL     1       6.550   4.613  16.615  0.00  0.00    +0.000 N 
ENDROOT
BRANCH   3  10
ATOM     10  C   UNL     1       3.042   3.786  18.775  0.00  0.00    +0.000 A 
ATOM     11  C   UNL     1       2.904   4.356  20.048  0.00  0.00    +0.000 A 
ATOM     12  C   UNL     1       1.768   4.096  20.818  0.00  0.00    +0.000 A 
ATOM     13  C   UNL     1       0.761   3.269  20.320  0.00  0.00    +0.000 A 
ATOM     14  C   UNL     1       0.885   2.709  19.050  0.00  0.00    +0.000 A 
ATOM     15  C   UNL     1       2.016   2.972  18.276  0.00  0.00    +0.000 A 
ENDBRANCH   3  10
BRANCH   1  16
ATOM     16  O   UNL     1       7.843   4.900  18.628  0.00  0.00    +0.000 OA
ATOM     17  H   UNL     1       8.398   5.422  18.027  0.00  0.00    +0.000 HD
ENDBRANCH   1  16
TORSDOF 2
ENDMDL
MODEL 2
REMARK VINA RESULT:      -7.8      0.059      1.209
REMARK  Name = 
REMARK  2 active torsions:
REMARK  status: ('A' for Active; 'I' for Inactive)
REMARK    1  A    between atoms: O_1  and  C_2
REMARK    2  A    between atoms: C_4  and  C_5
REMARK                            x       y       z     vdW  Elec       q    Type
REMARK                         _______ _______ _______ _____ _____    ______ ____
ROOT
ATOM      1  C   UNL     1       6.620   4.638  18.030  0.00  0.00    +0.000 A 
ATOM      2  C   UNL     1       5.504   4.421  18.747  0.00  0.00    +0.000 A 
ATOM      3  C   UNL     1       4.250   4.143  17.970  0.00  0.00    +0.000 A 
ATOM      4  N   UNL     1       4.171   4.156  16.668  0.00  0.00    +0.000 NA
ATOM      5  C   UNL     1       5.327   4.397  15.981  0.00  0.00    +0.000 A 
ATOM      6  C   UNL     1       5.585   4.462  14.631  0.00  0.00    +0.000 A 
ATOM      7  C   UNL     1       6.957   4.723  14.533  0.00  0.00    +0.000 A 
ATOM      8  N   UNL     1       7.552   4.824  15.721  0.00  0.00    +0.000 NA
ATOM      9  N   UNL     1       6.550   4.626  16.625  0.00  0.00    +0.000 N 
ENDROOT
BRANCH   3  10
ATOM     10  C   UNL     1       3.023   3.845  18.770  0.00  0.00    +0.000 A 
ATOM     11  C   UNL     1       2.064   2.971  18.242  0.00  0.00    +0.000 A 
ATOM     12  C   UNL     1       0.914   2.660  18.973  0.00  0.00    +0.000 A 
ATOM     13  C   UNL     1       0.718   3.217  20.236  0.00  0.00    +0.000 A 
ATOM     14  C   UNL     1       1.674   4.077  20.774  0.00  0.00    +0.000 A 
ATOM     15  C   UNL     1       2.826   4.385  20.049  0.00  0.00    +0.000 A 
ENDBRANCH   3  10
BRANCH   1  16
ATOM     16  O   UNL     1       7.839   4.889  18.644  0.00  0.00    +0.000 OA
ATOM     17  H   UNL     1       7.853   4.476  19.522  0.00  0.00    +0.000 HD
ENDBRANCH   1  16
TORSDOF 2
ENDMDL
MODEL 3
REMARK VINA RESULT:      -7.1      3.174      6.056
REMARK  Name = 
REMARK  2 active torsions:
REMARK  status: ('A' for Active; 'I' for Inactive)
REMARK    1  A    between atoms: O_1  and  C_2
REMARK    2  A    between atoms: C_4  and  C_5
REMARK                            x       y       z     vdW  Elec       q    Type
REMARK                         _______ _______ _______ _____ _____    ______ ____
ROOT
ATOM      1  C   UNL     1       1.965   4.258  18.070  0.00  0.00    +0.000 A 
ATOM      2  C   UNL     1       3.096   4.919  17.770  0.00  0.00    +0.000 A 
ATOM      3  C   UNL     1       4.142   4.984  18.845  0.00  0.00    +0.000 A 
ATOM      4  N   UNL     1       3.997   4.496  20.046  0.00  0.00    +0.000 NA
ATOM      5  C   UNL     1       2.825   3.846  20.311  0.00  0.00    +0.000 A 
ATOM      6  C   UNL     1       2.371   3.217  21.448  0.00  0.00    +0.000 A 
ATOM      7  C   UNL     1       1.105   2.722  21.112  0.00  0.00    +0.000 A 
ATOM      8  N   UNL     1       0.754   3.005  19.858  0.00  0.00    +0.000 NA
ATOM      9  N   UNL     1       1.811   3.703  19.354  0.00  0.00    +0.000 N 
ENDROOT
BRANCH   3  10
ATOM     10  C   UNL     1       5.421   5.671  18.489  0.00  0.00    +0.000 A 
ATOM     11  C   UNL     1       5.423   6.605  17.445  0.00  0.00    +0.000 A 
ATOM     12  C   UNL     1       6.599   7.275  17.100  0.00  0.00    +0.000 A 
ATOM     13  C   UNL     1       7.778   7.021  17.799  0.00  0.00    +0.000 A 
ATOM     14  C   UNL     1       7.782   6.104  18.848  0.00  0.00    +0.000 A 
ATOM     15  C   UNL     1       6.607   5.436  19.199  0.00  0.00    +0.000 A 
ENDBRANCH   3  10
BRANCH   1  16
ATOM     16  O   UNL     1       0.938   4.121  17.147  0.00  0.00    +0.000 OA
ATOM     17  H   UNL     1       0.316   3.442  17.451  0.00  0.00    +0.000 HD
ENDBRANCH   1  16
TORSDOF 2
ENDMDL
MODEL 4
REMARK VINA RESULT:      -7.1      2.082      2.689
REMARK  Name = 
REMARK  2 active torsions:
REMARK  status: ('A' for Active; 'I' for Inactive)
REMARK    1  A    between atoms: O_1  and  C_2
REMARK    2  A    between atoms: C_4  and  C_5
REMARK                            x       y       z     vdW  Elec       q    Type
REMARK                         _______ _______ _______ _____ _____    ______ ____
ROOT
ATOM      1  C   UNL     1       5.135   6.201  16.796  0.00  0.00    +0.000 A 
ATOM      2  C   UNL     1       4.051   5.506  17.181  0.00  0.00    +0.000 A 
ATOM      3  C   UNL     1       4.113   4.860  18.535  0.00  0.00    +0.000 A 
ATOM      4  N   UNL     1       5.156   4.888  19.319  0.00  0.00    +0.000 NA
ATOM      5  C   UNL     1       6.240   5.594  18.879  0.00  0.00    +0.000 A 
ATOM      6  C   UNL     1       7.467   5.830  19.457  0.00  0.00    +0.000 A 
ATOM      7  C   UNL     1       8.155   6.634  18.541  0.00  0.00    +0.000 A 
ATOM      8  N   UNL     1       7.441   6.903  17.449  0.00  0.00    +0.000 NA
ATOM      9  N   UNL     1       6.254   6.261  17.647  0.00  0.00    +0.000 N 
ENDROOT
BRANCH   3  10
ATOM     10  C   UNL     1       2.886   4.134  18.984  0.00  0.00    +0.000 A 
ATOM     11  C   UNL     1       2.370   4.399  20.259  0.00  0.00    +0.000 A 
ATOM     12  C   UNL     1       1.214   3.749  20.701  0.00  0.00    +0.000 A 
ATOM     13  C   UNL     1       0.566   2.835  19.870  0.00  0.00    +0.000 A 
ATOM     14  C   UNL     1       1.066   2.577  18.596  0.00  0.00    +0.000 A 
ATOM     15  C   UNL     1       2.217   3.229  18.149  0.00  0.00    +0.000 A 
ENDBRANCH   3  10
BRANCH   1  16
ATOM     16  O   UNL     1       5.182   6.853  15.571  0.00  0.00    +0.000 OA
ATOM     17  H   UNL     1       5.425   6.222  14.876  0.00  0.00    +0.000 HD
ENDBRANCH   1  16
TORSDOF 2
ENDMDL
MODEL 5
REMARK VINA RESULT:      -7.1      1.102      1.415
REMARK  Name = 
REMARK  2 active torsions:
REMARK  status: ('A' for Active; 'I' for Inactive)
REMARK    1  A    between atoms: O_1  and  C_2
REMARK    2  A    between atoms: C_4  and  C_5
REMARK                            x       y       z     vdW  Elec       q    Type
REMARK                         _______ _______ _______ _____ _____    ______ ____
ROOT
ATOM      1  C   UNL     1       6.485   5.830  17.228  0.00  0.00    +0.000 A 
ATOM      2  C   UNL     1       5.497   5.456  18.059  0.00  0.00    +0.000 A 
ATOM      3  C   UNL     1       4.545   4.415  17.546  0.00  0.00    +0.000 A 
ATOM      4  N   UNL     1       4.587   3.904  16.346  0.00  0.00    +0.000 NA
ATOM      5  C   UNL     1       5.599   4.326  15.530  0.00  0.00    +0.000 A 
ATOM      6  C   UNL     1       5.930   3.981  14.240  0.00  0.00    +0.000 A 
ATOM      7  C   UNL     1       7.075   4.729  13.943  0.00  0.00    +0.000 A 
ATOM      8  N   UNL     1       7.465   5.505  14.954  0.00  0.00    +0.000 NA
ATOM      9  N   UNL     1       6.555   5.264  15.942  0.00  0.00    +0.000 N 
ENDROOT
BRANCH   3  10
ATOM     10  C   UNL     1       3.482   3.960  18.493  0.00  0.00    +0.000 A 
ATOM     11  C   UNL     1       2.138   4.163  18.153  0.00  0.00    +0.000 A 
ATOM     12  C   UNL     1       1.121   3.733  19.009  0.00  0.00    +0.000 A 
ATOM     13  C   UNL     1       1.440   3.095  20.207  0.00  0.00    +0.000 A 
ATOM     14  C   UNL     1       2.774   2.877  20.546  0.00  0.00    +0.000 A 
ATOM     15  C   UNL     1       3.793   3.300  19.690  0.00  0.00    +0.000 A 
ENDBRANCH   3  10
BRANCH   1  16
ATOM     16  O   UNL     1       7.432   6.773  17.604  0.00  0.00    +0.000 OA
ATOM     17  H   UNL     1       8.295   6.343  17.708  0.00  0.00    +0.000 HD
ENDBRANCH   1  16
TORSDOF 2
ENDMDL
MODEL 6
REMARK VINA RESULT:      -7.1      2.608      5.661
REMARK  Name = 
REMARK  2 active torsions:
REMARK  status: ('A' for Active; 'I' for Inactive)
REMARK    1  A    between atoms: O_1  and  C_2
REMARK    2  A    between atoms: C_4  and  C_5
REMARK                            x       y       z     vdW  Elec       q    Type
REMARK                         _______ _______ _______ _____ _____    ______ ____
ROOT
ATOM      1  C   UNL     1       4.395   2.472  20.370  0.00  0.00    +0.000 A 
ATOM      2  C   UNL     1       4.889   3.019  19.246  0.00  0.00    +0.000 A 
ATOM      3  C   UNL     1       3.974   3.934  18.484  0.00  0.00    +0.000 A 
ATOM      4  N   UNL     1       2.735   4.179  18.813  0.00  0.00    +0.000 NA
ATOM      5  C   UNL     1       2.271   3.589  19.955  0.00  0.00    +0.000 A 
ATOM      6  C   UNL     1       1.044   3.652  20.577  0.00  0.00    +0.000 A 
ATOM      7  C   UNL     1       1.171   2.852  21.719  0.00  0.00    +0.000 A 
ATOM      8  N   UNL     1       2.381   2.305  21.837  0.00  0.00    +0.000 NA
ATOM      9  N   UNL     1       3.069   2.754  20.748  0.00  0.00    +0.000 N 
ENDROOT
BRANCH   3  10
ATOM     10  C   UNL     1       4.544   4.584  17.266  0.00  0.00    +0.000 A 
ATOM     11  C   UNL     1       5.041   3.776  16.235  0.00  0.00    +0.000 A 
ATOM     12  C   UNL     1       5.565   4.354  15.076  0.00  0.00    +0.000 A 
ATOM     13  C   UNL     1       5.592   5.742  14.938  0.00  0.00    +0.000 A 
ATOM     14  C   UNL     1       5.088   6.552  15.954  0.00  0.00    +0.000 A 
ATOM     15  C   UNL     1       4.558   5.977  17.111  0.00  0.00    +0.000 A 
ENDBRANCH   3  10
BRANCH   1  16
ATOM     16  O   UNL     1       5.158   1.625  21.161  0.00  0.00    +0.000 OA
ATOM     17  H   UNL     1       5.814   2.143  21.654  0.00  0.00    +0.000 HD
ENDBRANCH   1  16
TORSDOF 2
ENDMDL
MODEL 7
REMARK VINA RESULT:      -7.1      2.608      5.565
REMARK  Name = 
REMARK  2 active torsions:
REMARK  status: ('A' for Active; 'I' for Inactive)
REMARK    1  A    between atoms: O_1  and  C_2
REMARK    2  A    between atoms: C_4  and  C_5
REMARK                            x       y       z     vdW  Elec       q    Type
REMARK                         _______ _______ _______ _____ _____    ______ ____
ROOT
ATOM      1  C   UNL     1       4.404   2.500  20.380  0.00  0.00    +0.000 A 
ATOM      2  C   UNL     1       4.887   3.035  19.246  0.00  0.00    +0.000 A 
ATOM      3  C   UNL     1       3.958   3.927  18.474  0.00  0.00    +0.000 A 
ATOM      4  N   UNL     1       2.718   4.162  18.804  0.00  0.00    +0.000 NA
ATOM      5  C   UNL     1       2.265   3.585  19.957  0.00  0.00    +0.000 A 
ATOM      6  C   UNL     1       1.041   3.642  20.582  0.00  0.00    +0.000 A 
ATOM      7  C   UNL     1       1.181   2.862  21.736  0.00  0.00    +0.000 A 
ATOM      8  N   UNL     1       2.398   2.331  21.858  0.00  0.00    +0.000 NA
ATOM      9  N   UNL     1       3.076   2.771  20.759  0.00  0.00    +0.000 N 
ENDROOT
BRANCH   3  10
ATOM     10  C   UNL     1       4.517   4.565  17.243  0.00  0.00    +0.000 A 
ATOM     11  C   UNL     1       4.516   5.963  17.144  0.00  0.00    +0.000 A 
ATOM     12  C   UNL     1       5.047   6.589  16.014  0.00  0.00    +0.000 A 
ATOM     13  C   UNL     1       5.584   5.825  14.979  0.00  0.00    +0.000 A 
ATOM     14  C   UNL     1       5.600   4.435  15.076  0.00  0.00    +0.000 A 
ATOM     15  C   UNL     1       5.076   3.805  16.207  0.00  0.00    +0.000 A 
ENDBRANCH   3  10
BRANCH   1  16
ATOM     16  O   UNL     1       5.180   1.674  21.181  0.00  0.00    +0.000 OA
ATOM     17  H   UNL     1       4.850   1.703  22.094  0.00  0.00    +0.000 HD
ENDBRANCH   1  16
TORSDOF 2
ENDMDL
MODEL 8
REMARK VINA RESULT:      -7.1      1.331      1.490
REMARK  Name = 
REMARK  2 active torsions:
REMARK  status: ('A' for Active; 'I' for Inactive)
REMARK    1  A    between atoms: O_1  and  C_2
REMARK    2  A    between atoms: C_4  and  C_5
REMARK                            x       y       z     vdW  Elec       q    Type
REMARK                         _______ _______ _______ _____ _____    ______ ____
ROOT
ATOM      1  C   UNL     1       6.678   5.893  16.604  0.00  0.00    +0.000 A 
ATOM      2  C   UNL     1       5.703   5.567  17.470  0.00  0.00    +0.000 A 
ATOM      3  C   UNL     1       4.743   4.500  17.030  0.00  0.00    +0.000 A 
ATOM      4  N   UNL     1       4.765   3.925  15.859  0.00  0.00    +0.000 NA
ATOM      5  C   UNL     1       5.764   4.299  15.006  0.00  0.00    +0.000 A 
ATOM      6  C   UNL     1       6.074   3.884  13.731  0.00  0.00    +0.000 A 
ATOM      7  C   UNL     1       7.215   4.613  13.376  0.00  0.00    +0.000 A 
ATOM      8  N   UNL     1       7.621   5.442  14.337  0.00  0.00    +0.000 NA
ATOM      9  N   UNL     1       6.727   5.257  15.350  0.00  0.00    +0.000 N 
ENDROOT
BRANCH   3  10
ATOM     10  C   UNL     1       3.694   4.099  18.017  0.00  0.00    +0.000 A 
ATOM     11  C   UNL     1       4.092   3.601  19.265  0.00  0.00    +0.000 A 
ATOM     12  C   UNL     1       3.135   3.234  20.215  0.00  0.00    +0.000 A 
ATOM     13  C   UNL     1       1.778   3.366  19.926  0.00  0.00    +0.000 A 
ATOM     14  C   UNL     1       1.374   3.873  18.692  0.00  0.00    +0.000 A 
ATOM     15  C   UNL     1       2.327   4.246  17.743  0.00  0.00    +0.000 A 
ENDBRANCH   3  10
BRANCH   1  16
ATOM     16  O   UNL     1       7.631   6.853  16.913  0.00  0.00    +0.000 OA
ATOM     17  H   UNL     1       8.500   6.431  17.004  0.00  0.00    +0.000 HD
ENDBRANCH   1  16
TORSDOF 2
ENDMDL
MODEL 9
REMARK VINA RESULT:      -7.1      2.089      2.925
REMARK  Name = 
REMARK  2 active torsions:
REMARK  status: ('A' for Active; 'I' for Inactive)
REMARK    1  A    between atoms: O_1  and  C_2
REMARK    2  A    between atoms: C_4  and  C_5
REMARK                            x       y       z     vdW  Elec       q    Type
REMARK                         _______ _______ _______ _____ _____    ______ ____
ROOT
ATOM      1  C   UNL     1       5.110   6.247  16.661  0.00  0.00    +0.000 A 
ATOM      2  C   UNL     1       4.033   5.571  17.094  0.00  0.00    +0.000 A 
ATOM      3  C   UNL     1       4.119   4.981  18.472  0.00  0.00    +0.000 A 
ATOM      4  N   UNL     1       5.177   5.038  19.234  0.00  0.00    +0.000 NA
ATOM      5  C   UNL     1       6.254   5.723  18.746  0.00  0.00    +0.000 A 
ATOM      6  C   UNL     1       7.491   5.979  19.291  0.00  0.00    +0.000 A 
ATOM      7  C   UNL     1       8.164   6.743  18.330  0.00  0.00    +0.000 A 
ATOM      8  N   UNL     1       7.430   6.968  17.240  0.00  0.00    +0.000 NA
ATOM      9  N   UNL     1       6.246   6.339  17.487  0.00  0.00    +0.000 N 
ENDROOT
BRANCH   3  10
ATOM     10  C   UNL     1       2.899   4.278  18.973  0.00  0.00    +0.000 A 
ATOM     11  C   UNL     1       2.231   3.387  18.122  0.00  0.00    +0.000 A 
ATOM     12  C   UNL     1       1.098   2.702  18.567  0.00  0.00    +0.000 A 
ATOM     13  C   UNL     1       0.628   2.899  19.865  0.00  0.00    +0.000 A 
ATOM     14  C   UNL     1       1.294   3.773  20.722  0.00  0.00    +0.000 A 
ATOM     15  C   UNL     1       2.430   4.455  20.283  0.00  0.00    +0.000 A 
ENDBRANCH   3  10
BRANCH   1  16
ATOM     16  O   UNL     1       5.136   6.848  15.410  0.00  0.00    +0.000 OA
ATOM     17  H   UNL     1       4.897   6.197  14.731  0.00  0.00    +0.000 HD
ENDBRANCH   1  16
TORSDOF 2
ENDMDL
