MODEL 1
REMARK VINA RESULT:      -8.3      0.000      0.000
REMARK  Name = 
REMARK  9 active torsions:
REMARK  status: ('A' for Active; 'I' for Inactive)
REMARK    1  A    between atoms: C_1  and  C_2
REMARK    2  A    between atoms: C_8  and  C_9
REMARK    3  A    between atoms: C_12  and  C_13
REMARK    4  A    between atoms: C_16  and  C_17
REMARK    5  A    between atoms: C_17  and  N_18
REMARK    6  A    between atoms: N_18  and  C_19
REMARK    7  A    between atoms: C_19  and  C_20
REMARK    8  A    between atoms: C_20  and  C_21
REMARK    9  A    between atoms: C_21  and  N_22
REMARK                            x       y       z     vdW  Elec       q    Type
REMARK                         _______ _______ _______ _____ _____    ______ ____
ROOT
ATOM      1  C   UNL     1       1.211   8.667  20.306  0.00  0.00    +0.000 A 
ATOM      2  C   UNL     1       1.798   7.432  20.620  0.00  0.00    +0.000 A 
ATOM      3  C   UNL     1       2.548   6.730  19.673  0.00  0.00    +0.000 A 
ATOM      4  C   UNL     1       2.737   7.246  18.385  0.00  0.00    +0.000 A 
ATOM      5  C   UNL     1       2.165   8.483  18.068  0.00  0.00    +0.000 A 
ATOM      6  C   UNL     1       1.413   9.183  19.017  0.00  0.00    +0.000 A 
ENDROOT
BRANCH   1  10
ATOM      7  C   UNL     1      -1.074  11.097  22.379  0.00  0.00    +0.000 A 
ATOM      8  C   UNL     1      -0.609  10.151  23.267  0.00  0.00    +0.000 A 
ATOM      9  C   UNL     1       0.245   9.194  22.642  0.00  0.00    +0.000 A 
ATOM     10  C   UNL     1       0.408   9.422  21.286  0.00  0.00    +0.000 A 
ATOM     11  S   UNL     1      -0.461  10.823  20.808  0.00  0.00    +0.000 S 
BRANCH   7  19
ATOM     12  C   UNL     1      -6.141  12.727  24.115  0.00  0.00    +0.000 C 
ATOM     13  C   UNL     1      -5.065  13.687  23.714  0.00  0.00    +0.000 A 
ATOM     14  C   UNL     1      -5.275  15.078  23.732  0.00  0.00    +0.000 A 
ATOM     15  C   UNL     1      -4.280  15.983  23.350  0.00  0.00    +0.000 A 
ATOM     16  C   UNL     1      -3.023  15.535  22.931  0.00  0.00    +0.000 A 
ATOM     17  C   UNL     1      -2.783  14.155  22.900  0.00  0.00    +0.000 A 
ATOM     18  N   UNL     1      -1.650  13.469  22.525  0.00  0.00    +0.000 NA
ATOM     19  C   UNL     1      -1.949  12.194  22.669  0.00  0.00    +0.000 A 
ATOM     20  N   UNL     1      -3.230  12.042  23.135  0.00  0.00    +0.000 N 
ATOM     21  C   UNL     1      -3.793  13.282  23.286  0.00  0.00    +0.000 A 
ATOM     22  H   UNL     1      -3.674  11.156  23.321  0.00  0.00    +0.000 HD
ENDBRANCH   7  19
ENDBRANCH   1  10
BRANCH   4  23
ATOM     23  C   UNL     1       3.550   6.477  17.370  0.00  0.00    +0.000 C 
BRANCH  23  24
ATOM     24  N   UNL     1       4.846   6.090  17.927  0.00  0.00    +0.000 NA
ATOM     25  H   UNL     1       4.872   6.364  18.909  0.00  0.00    +0.000 HD
BRANCH  24  26
ATOM     26  C   UNL     1       5.073   4.651  17.808  0.00  0.00    +0.000 C 
BRANCH  26  27
ATOM     27  C   UNL     1       3.896   4.005  17.073  0.00  0.00    +0.000 C 
BRANCH  27  28
ATOM     28  C   UNL     1       3.436   2.736  17.791  0.00  0.00    +0.000 C 
BRANCH  28  29
ATOM     29  N   UNL     1       2.678   3.019  18.998  0.00  0.00    +0.000 N 
ATOM     30  C   UNL     1       1.260   3.274  18.983  0.00  0.00    +0.000 C 
ATOM     31  C   UNL     1       0.972   3.673  20.417  0.00  0.00    +0.000 C 
ATOM     32  C   UNL     1       1.969   2.848  21.224  0.00  0.00    +0.000 C 
ATOM     33  C   UNL     1       3.130   2.698  20.272  0.00  0.00    +0.000 C 
ATOM     34  O   UNL     1       4.244   2.298  20.570  0.00  0.00    +0.000 OA
ENDBRANCH  28  29
ENDBRANCH  27  28
ENDBRANCH  26  27
ENDBRANCH  24  26
ENDBRANCH  23  24
ENDBRANCH   4  23
TORSDOF 8
ENDMDL
MODEL 2
REMARK VINA RESULT:      -8.3      1.553      1.977
REMARK  Name = 
REMARK  9 active torsions:
REMARK  status: ('A' for Active; 'I' for Inactive)
REMARK    1  A    between atoms: C_1  and  C_2
REMARK    2  A    between atoms: C_8  and  C_9
REMARK    3  A    between atoms: C_12  and  C_13
REMARK    4  A    between atoms: C_16  and  C_17
REMARK    5  A    between atoms: C_17  and  N_18
REMARK    6  A    between atoms: N_18  and  C_19
REMARK    7  A    between atoms: C_19  and  C_20
REMARK    8  A    between atoms: C_20  and  C_21
REMARK    9  A    between atoms: C_21  and  N_22
REMARK                            x       y       z     vdW  Elec       q    Type
REMARK                         _______ _______ _______ _____ _____    ______ ____
ROOT
ATOM      1  C   UNL     1       1.655   8.528  19.294  0.00  0.00    +0.000 A 
ATOM      2  C   UNL     1       1.881   7.375  20.062  0.00  0.00    +0.000 A 
ATOM      3  C   UNL     1       2.799   6.406  19.652  0.00  0.00    +0.000 A 
ATOM      4  C   UNL     1       3.522   6.562  18.463  0.00  0.00    +0.000 A 
ATOM      5  C   UNL     1       3.311   7.714  17.697  0.00  0.00    +0.000 A 
ATOM      6  C   UNL     1       2.390   8.683  18.109  0.00  0.00    +0.000 A 
ENDROOT
BRANCH   1  10
ATOM      7  C   UNL     1      -0.583  11.275  20.986  0.00  0.00    +0.000 A 
ATOM      8  C   UNL     1      -1.107  11.069  19.728  0.00  0.00    +0.000 A 
ATOM      9  C   UNL     1      -0.384  10.083  18.994  0.00  0.00    +0.000 A 
ATOM     10  C   UNL     1       0.685   9.561  19.702  0.00  0.00    +0.000 A 
ATOM     11  S   UNL     1       0.766  10.264  21.266  0.00  0.00    +0.000 S 
BRANCH   7  19
ATOM     12  C   UNL     1      -4.819  12.803  24.312  0.00  0.00    +0.000 C 
ATOM     13  C   UNL     1      -3.513  13.533  24.262  0.00  0.00    +0.000 A 
ATOM     14  C   UNL     1      -3.279  14.677  25.047  0.00  0.00    +0.000 A 
ATOM     15  C   UNL     1      -2.066  15.372  25.000  0.00  0.00    +0.000 A 
ATOM     16  C   UNL     1      -1.028  14.952  24.161  0.00  0.00    +0.000 A 
ATOM     17  C   UNL     1      -1.232  13.817  23.365  0.00  0.00    +0.000 A 
ATOM     18  N   UNL     1      -0.385  13.213  22.465  0.00  0.00    +0.000 NA
ATOM     19  C   UNL     1      -1.061  12.192  21.979  0.00  0.00    +0.000 A 
ATOM     20  N   UNL     1      -2.306  12.116  22.547  0.00  0.00    +0.000 N 
ATOM     21  C   UNL     1      -2.449  13.148  23.436  0.00  0.00    +0.000 A 
ATOM     22  H   UNL     1      -2.997  11.414  22.329  0.00  0.00    +0.000 HD
ENDBRANCH   7  19
ENDBRANCH   1  10
BRANCH   4  23
ATOM     23  C   UNL     1       4.511   5.506  18.030  0.00  0.00    +0.000 C 
BRANCH  23  24
ATOM     24  N   UNL     1       4.112   4.911  16.754  0.00  0.00    +0.000 NA
ATOM     25  H   UNL     1       4.954   4.657  16.237  0.00  0.00    +0.000 HD
BRANCH  24  26
ATOM     26  C   UNL     1       3.276   3.729  16.951  0.00  0.00    +0.000 C 
BRANCH  26  27
ATOM     27  C   UNL     1       4.096   2.628  17.626  0.00  0.00    +0.000 C 
BRANCH  27  28
ATOM     28  C   UNL     1       3.183   1.623  18.331  0.00  0.00    +0.000 C 
BRANCH  28  29
ATOM     29  N   UNL     1       2.488   2.201  19.468  0.00  0.00    +0.000 N 
ATOM     30  C   UNL     1       3.182   2.801  20.580  0.00  0.00    +0.000 C 
ATOM     31  C   UNL     1       2.062   3.095  21.559  0.00  0.00    +0.000 C 
ATOM     32  C   UNL     1       0.874   3.412  20.658  0.00  0.00    +0.000 C 
ATOM     33  C   UNL     1       1.152   2.582  19.429  0.00  0.00    +0.000 C 
ATOM     34  O   UNL     1       0.355   2.351  18.533  0.00  0.00    +0.000 OA
ENDBRANCH  28  29
ENDBRANCH  27  28
ENDBRANCH  26  27
ENDBRANCH  24  26
ENDBRANCH  23  24
ENDBRANCH   4  23
TORSDOF 8
ENDMDL
MODEL 3
REMARK VINA RESULT:      -8.3      1.212      1.650
REMARK  Name = 
REMARK  9 active torsions:
REMARK  status: ('A' for Active; 'I' for Inactive)
REMARK    1  A    between atoms: C_1  and  C_2
REMARK    2  A    between atoms: C_8  and  C_9
REMARK    3  A    between atoms: C_12  and  C_13
REMARK    4  A    between atoms: C_16  and  C_17
REMARK    5  A    between atoms: C_17  and  N_18
REMARK    6  A    between atoms: N_18  and  C_19
REMARK    7  A    between atoms: C_19  and  C_20
REMARK    8  A    between atoms: C_20  and  C_21
REMARK    9  A    between atoms: C_21  and  N_22
REMARK                            x       y       z     vdW  Elec       q    Type
REMARK                         _______ _______ _______ _____ _____    ______ ____
ROOT
ATOM      1  C   UNL     1       1.242   8.681  20.207  0.00  0.00    +0.000 A 
ATOM      2  C   UNL     1       1.809   7.441  20.540  0.00  0.00    +0.000 A 
ATOM      3  C   UNL     1       2.576   6.728  19.616  0.00  0.00    +0.000 A 
ATOM      4  C   UNL     1       2.803   7.236  18.331  0.00  0.00    +0.000 A 
ATOM      5  C   UNL     1       2.250   8.477  17.993  0.00  0.00    +0.000 A 
ATOM      6  C   UNL     1       1.481   9.188  18.921  0.00  0.00    +0.000 A 
ENDROOT
BRANCH   1  10
ATOM      7  C   UNL     1      -1.061  11.148  22.214  0.00  0.00    +0.000 A 
ATOM      8  C   UNL     1      -0.649  10.186  23.111  0.00  0.00    +0.000 A 
ATOM      9  C   UNL     1       0.205   9.214  22.510  0.00  0.00    +0.000 A 
ATOM     10  C   UNL     1       0.422   9.447  21.163  0.00  0.00    +0.000 A 
ATOM     11  S   UNL     1      -0.398  10.871  20.664  0.00  0.00    +0.000 S 
BRANCH   7  19
ATOM     12  C   UNL     1      -2.303  15.405  25.631  0.00  0.00    +0.000 C 
ATOM     13  C   UNL     1      -3.083  15.096  24.392  0.00  0.00    +0.000 A 
ATOM     14  C   UNL     1      -4.205  15.859  24.018  0.00  0.00    +0.000 A 
ATOM     15  C   UNL     1      -4.946  15.573  22.868  0.00  0.00    +0.000 A 
ATOM     16  C   UNL     1      -4.596  14.504  22.034  0.00  0.00    +0.000 A 
ATOM     17  C   UNL     1      -3.486  13.724  22.380  0.00  0.00    +0.000 A 
ATOM     18  N   UNL     1      -2.947  12.630  21.742  0.00  0.00    +0.000 NA
ATOM     19  C   UNL     1      -1.921  12.263  22.481  0.00  0.00    +0.000 A 
ATOM     20  N   UNL     1      -1.777  13.092  23.564  0.00  0.00    +0.000 N 
ATOM     21  C   UNL     1      -2.769  14.036  23.530  0.00  0.00    +0.000 A 
ATOM     22  H   UNL     1      -1.058  13.003  24.266  0.00  0.00    +0.000 HD
ENDBRANCH   7  19
ENDBRANCH   1  10
BRANCH   4  23
ATOM     23  C   UNL     1       3.633   6.456  17.339  0.00  0.00    +0.000 C 
BRANCH  23  24
ATOM     24  N   UNL     1       4.972   6.199  17.871  0.00  0.00    +0.000 NA
ATOM     25  H   UNL     1       4.966   6.391  18.873  0.00  0.00    +0.000 HD
BRANCH  24  26
ATOM     26  C   UNL     1       5.389   4.819  17.633  0.00  0.00    +0.000 C 
BRANCH  26  27
ATOM     27  C   UNL     1       5.014   3.955  18.838  0.00  0.00    +0.000 C 
BRANCH  27  28
ATOM     28  C   UNL     1       3.971   2.905  18.453  0.00  0.00    +0.000 C 
BRANCH  28  29
ATOM     29  N   UNL     1       2.793   2.948  19.301  0.00  0.00    +0.000 N 
ATOM     30  C   UNL     1       2.869   2.899  20.739  0.00  0.00    +0.000 C 
ATOM     31  C   UNL     1       1.413   2.802  21.152  0.00  0.00    +0.000 C 
ATOM     32  C   UNL     1       0.684   3.606  20.081  0.00  0.00    +0.000 C 
ATOM     33  C   UNL     1       1.560   3.420  18.866  0.00  0.00    +0.000 C 
ATOM     34  O   UNL     1       1.252   3.704  17.720  0.00  0.00    +0.000 OA
ENDBRANCH  28  29
ENDBRANCH  27  28
ENDBRANCH  26  27
ENDBRANCH  24  26
ENDBRANCH  23  24
ENDBRANCH   4  23
TORSDOF 8
ENDMDL
MODEL 4
REMARK VINA RESULT:      -8.1      1.035      1.191
REMARK  Name = 
REMARK  9 active torsions:
REMARK  status: ('A' for Active; 'I' for Inactive)
REMARK    1  A    between atoms: C_1  and  C_2
REMARK    2  A    between atoms: C_8  and  C_9
REMARK    3  A    between atoms: C_12  and  C_13
REMARK    4  A    between atoms: C_16  and  C_17
REMARK    5  A    between atoms: C_17  and  N_18
REMARK    6  A    between atoms: N_18  and  C_19
REMARK    7  A    between atoms: C_19  and  C_20
REMARK    8  A    between atoms: C_20  and  C_21
REMARK    9  A    between atoms: C_21  and  N_22
REMARK                            x       y       z     vdW  Elec       q    Type
REMARK                         _______ _______ _______ _____ _____    ______ ____
ROOT
ATOM      1  C   UNL     1       1.059   9.082  20.233  0.00  0.00    +0.000 A 
ATOM      2  C   UNL     1       1.650   7.823  20.417  0.00  0.00    +0.000 A 
ATOM      3  C   UNL     1       2.433   7.242  19.416  0.00  0.00    +0.000 A 
ATOM      4  C   UNL     1       2.651   7.906  18.202  0.00  0.00    +0.000 A 
ATOM      5  C   UNL     1       2.074   9.167  18.015  0.00  0.00    +0.000 A 
ATOM      6  C   UNL     1       1.289   9.746  19.019  0.00  0.00    +0.000 A 
ENDROOT
BRANCH   1  10
ATOM      7  C   UNL     1      -1.278  11.254  22.523  0.00  0.00    +0.000 A 
ATOM      8  C   UNL     1      -0.883  10.175  23.285  0.00  0.00    +0.000 A 
ATOM      9  C   UNL     1      -0.019   9.294  22.570  0.00  0.00    +0.000 A 
ATOM     10  C   UNL     1       0.222   9.711  21.272  0.00  0.00    +0.000 A 
ATOM     11  S   UNL     1      -0.589  11.192  20.960  0.00  0.00    +0.000 S 
BRANCH   7  19
ATOM     12  C   UNL     1      -6.543  13.060  23.124  0.00  0.00    +0.000 C 
ATOM     13  C   UNL     1      -5.347  13.895  23.462  0.00  0.00    +0.000 A 
ATOM     14  C   UNL     1      -5.480  15.212  23.939  0.00  0.00    +0.000 A 
ATOM     15  C   UNL     1      -4.370  16.004  24.248  0.00  0.00    +0.000 A 
ATOM     16  C   UNL     1      -3.069  15.511  24.092  0.00  0.00    +0.000 A 
ATOM     17  C   UNL     1      -2.904  14.204  23.616  0.00  0.00    +0.000 A 
ATOM     18  N   UNL     1      -1.748  13.498  23.372  0.00  0.00    +0.000 NA
ATOM     19  C   UNL     1      -2.143  12.323  22.926  0.00  0.00    +0.000 A 
ATOM     20  N   UNL     1      -3.512  12.249  22.889  0.00  0.00    +0.000 N 
ATOM     21  C   UNL     1      -4.029  13.443  23.319  0.00  0.00    +0.000 A 
ATOM     22  H   UNL     1      -4.037  11.445  22.583  0.00  0.00    +0.000 HD
ENDBRANCH   7  19
ENDBRANCH   1  10
BRANCH   4  23
ATOM     23  C   UNL     1       3.498   7.267  17.127  0.00  0.00    +0.000 C 
BRANCH  23  24
ATOM     24  N   UNL     1       4.374   6.243  17.696  0.00  0.00    +0.000 NA
ATOM     25  H   UNL     1       3.972   5.925  18.578  0.00  0.00    +0.000 HD
BRANCH  24  26
ATOM     26  C   UNL     1       4.535   5.110  16.787  0.00  0.00    +0.000 C 
BRANCH  26  27
ATOM     27  C   UNL     1       4.267   3.806  17.541  0.00  0.00    +0.000 C 
BRANCH  27  28
ATOM     28  C   UNL     1       2.765   3.578  17.719  0.00  0.00    +0.000 C 
BRANCH  28  29
ATOM     29  N   UNL     1       2.404   3.269  19.091  0.00  0.00    +0.000 N 
ATOM     30  C   UNL     1       3.093   3.836  20.222  0.00  0.00    +0.000 C 
ATOM     31  C   UNL     1       2.481   3.099  21.397  0.00  0.00    +0.000 C 
ATOM     32  C   UNL     1       1.045   2.848  20.952  0.00  0.00    +0.000 C 
ATOM     33  C   UNL     1       1.172   2.739  19.452  0.00  0.00    +0.000 C 
ATOM     34  O   UNL     1       0.308   2.322  18.696  0.00  0.00    +0.000 OA
ENDBRANCH  28  29
ENDBRANCH  27  28
ENDBRANCH  26  27
ENDBRANCH  24  26
ENDBRANCH  23  24
ENDBRANCH   4  23
TORSDOF 8
ENDMDL
MODEL 5
REMARK VINA RESULT:      -8.1      1.218      1.935
REMARK  Name = 
REMARK  9 active torsions:
REMARK  status: ('A' for Active; 'I' for Inactive)
REMARK    1  A    between atoms: C_1  and  C_2
REMARK    2  A    between atoms: C_8  and  C_9
REMARK    3  A    between atoms: C_12  and  C_13
REMARK    4  A    between atoms: C_16  and  C_17
REMARK    5  A    between atoms: C_17  and  N_18
REMARK    6  A    between atoms: N_18  and  C_19
REMARK    7  A    between atoms: C_19  and  C_20
REMARK    8  A    between atoms: C_20  and  C_21
REMARK    9  A    between atoms: C_21  and  N_22
REMARK                            x       y       z     vdW  Elec       q    Type
REMARK                         _______ _______ _______ _____ _____    ______ ____
ROOT
ATOM      1  C   UNL     1       1.128   8.988  20.111  0.00  0.00    +0.000 A 
ATOM      2  C   UNL     1       1.328   9.567  18.849  0.00  0.00    +0.000 A 
ATOM      3  C   UNL     1       2.122   8.938  17.886  0.00  0.00    +0.000 A 
ATOM      4  C   UNL     1       2.737   7.710  18.157  0.00  0.00    +0.000 A 
ATOM      5  C   UNL     1       2.534   7.121  19.410  0.00  0.00    +0.000 A 
ATOM      6  C   UNL     1       1.739   7.753  20.373  0.00  0.00    +0.000 A 
ENDROOT
BRANCH   1  10
ATOM      7  C   UNL     1      -1.172  11.213  22.388  0.00  0.00    +0.000 A 
ATOM      8  C   UNL     1      -0.804  10.127  23.153  0.00  0.00    +0.000 A 
ATOM      9  C   UNL     1       0.044   9.226  22.443  0.00  0.00    +0.000 A 
ATOM     10  C   UNL     1       0.300   9.636  21.145  0.00  0.00    +0.000 A 
ATOM     11  S   UNL     1      -0.477  11.134  20.829  0.00  0.00    +0.000 S 
BRANCH   7  19
ATOM     12  C   UNL     1      -1.844  15.643  25.744  0.00  0.00    +0.000 C 
ATOM     13  C   UNL     1      -2.873  15.207  24.748  0.00  0.00    +0.000 A 
ATOM     14  C   UNL     1      -4.099  15.884  24.611  0.00  0.00    +0.000 A 
ATOM     15  C   UNL     1      -5.070  15.479  23.691  0.00  0.00    +0.000 A 
ATOM     16  C   UNL     1      -4.859  14.371  22.863  0.00  0.00    +0.000 A 
ATOM     17  C   UNL     1      -3.651  13.673  22.978  0.00  0.00    +0.000 A 
ATOM     18  N   UNL     1      -3.209  12.563  22.295  0.00  0.00    +0.000 NA
ATOM     19  C   UNL     1      -2.015  12.301  22.786  0.00  0.00    +0.000 A 
ATOM     20  N   UNL     1      -1.673  13.213  23.751  0.00  0.00    +0.000 N 
ATOM     21  C   UNL     1      -2.705  14.102  23.902  0.00  0.00    +0.000 A 
ATOM     22  H   UNL     1      -0.805  13.211  24.265  0.00  0.00    +0.000 HD
ENDBRANCH   7  19
ENDBRANCH   1  10
BRANCH   4  23
ATOM     23  C   UNL     1       3.595   7.041  17.109  0.00  0.00    +0.000 C 
BRANCH  23  24
ATOM     24  N   UNL     1       4.413   5.984  17.704  0.00  0.00    +0.000 NA
ATOM     25  H   UNL     1       3.921   5.612  18.517  0.00  0.00    +0.000 HD
BRANCH  24  26
ATOM     26  C   UNL     1       4.679   4.910  16.750  0.00  0.00    +0.000 C 
BRANCH  26  27
ATOM     27  C   UNL     1       4.253   3.570  17.355  0.00  0.00    +0.000 C 
BRANCH  27  28
ATOM     28  C   UNL     1       2.743   3.537  17.597  0.00  0.00    +0.000 C 
BRANCH  28  29
ATOM     29  N   UNL     1       2.403   3.186  18.965  0.00  0.00    +0.000 N 
ATOM     30  C   UNL     1       3.157   3.657  20.098  0.00  0.00    +0.000 C 
ATOM     31  C   UNL     1       2.535   2.902  21.257  0.00  0.00    +0.000 C 
ATOM     32  C   UNL     1       1.074   2.759  20.846  0.00  0.00    +0.000 C 
ATOM     33  C   UNL     1       1.151   2.714  19.339  0.00  0.00    +0.000 C 
ATOM     34  O   UNL     1       0.243   2.386  18.592  0.00  0.00    +0.000 OA
ENDBRANCH  28  29
ENDBRANCH  27  28
ENDBRANCH  26  27
ENDBRANCH  24  26
ENDBRANCH  23  24
ENDBRANCH   4  23
TORSDOF 8
ENDMDL
MODEL 6
REMARK VINA RESULT:      -8.1      1.577      2.118
REMARK  Name = 
REMARK  9 active torsions:
REMARK  status: ('A' for Active; 'I' for Inactive)
REMARK    1  A    between atoms: C_1  and  C_2
REMARK    2  A    between atoms: C_8  and  C_9
REMARK    3  A    between atoms: C_12  and  C_13
REMARK    4  A    between atoms: C_16  and  C_17
REMARK    5  A    between atoms: C_17  and  N_18
REMARK    6  A    between atoms: N_18  and  C_19
REMARK    7  A    between atoms: C_19  and  C_20
REMARK    8  A    between atoms: C_20  and  C_21
REMARK    9  A    between atoms: C_21  and  N_22
REMARK                            x       y       z     vdW  Elec       q    Type
REMARK                         _______ _______ _______ _____ _____    ______ ____
ROOT
ATOM      1  C   UNL     1       1.547   8.843  18.963  0.00  0.00    +0.000 A 
ATOM      2  C   UNL     1       2.176   8.984  17.717  0.00  0.00    +0.000 A 
ATOM      3  C   UNL     1       3.104   8.041  17.268  0.00  0.00    +0.000 A 
ATOM      4  C   UNL     1       3.427   6.926  18.050  0.00  0.00    +0.000 A 
ATOM      5  C   UNL     1       2.795   6.772  19.290  0.00  0.00    +0.000 A 
ATOM      6  C   UNL     1       1.868   7.718  19.738  0.00  0.00    +0.000 A 
ENDROOT
BRANCH   1  10
ATOM      7  C   UNL     1      -0.691  11.435  20.885  0.00  0.00    +0.000 A 
ATOM      8  C   UNL     1      -1.248  11.297  19.631  0.00  0.00    +0.000 A 
ATOM      9  C   UNL     1      -0.528  10.373  18.817  0.00  0.00    +0.000 A 
ATOM     10  C   UNL     1       0.570   9.829  19.461  0.00  0.00    +0.000 A 
ATOM     11  S   UNL     1       0.683  10.436  21.063  0.00  0.00    +0.000 S 
BRANCH   7  19
ATOM     12  C   UNL     1      -4.872  12.695  24.387  0.00  0.00    +0.000 C 
ATOM     13  C   UNL     1      -3.574  13.440  24.361  0.00  0.00    +0.000 A 
ATOM     14  C   UNL     1      -3.334  14.532  25.215  0.00  0.00    +0.000 A 
ATOM     15  C   UNL     1      -2.129  15.240  25.191  0.00  0.00    +0.000 A 
ATOM     16  C   UNL     1      -1.104  14.887  24.306  0.00  0.00    +0.000 A 
ATOM     17  C   UNL     1      -1.314  13.806  23.440  0.00  0.00    +0.000 A 
ATOM     18  N   UNL     1      -0.481  13.271  22.485  0.00  0.00    +0.000 NA
ATOM     19  C   UNL     1      -1.157  12.278  21.945  0.00  0.00    +0.000 A 
ATOM     20  N   UNL     1      -2.390  12.152  22.532  0.00  0.00    +0.000 N 
ATOM     21  C   UNL     1      -2.523  13.122  23.490  0.00  0.00    +0.000 A 
ATOM     22  H   UNL     1      -3.079  11.459  22.281  0.00  0.00    +0.000 HD
ENDBRANCH   7  19
ENDBRANCH   1  10
BRANCH   4  23
ATOM     23  C   UNL     1       4.433   5.914  17.555  0.00  0.00    +0.000 C 
BRANCH  23  24
ATOM     24  N   UNL     1       4.691   4.896  18.573  0.00  0.00    +0.000 NA
ATOM     25  H   UNL     1       3.841   4.763  19.122  0.00  0.00    +0.000 HD
BRANCH  24  26
ATOM     26  C   UNL     1       5.097   3.627  17.973  0.00  0.00    +0.000 C 
BRANCH  26  27
ATOM     27  C   UNL     1       3.858   2.863  17.501  0.00  0.00    +0.000 C 
BRANCH  27  28
ATOM     28  C   UNL     1       3.449   1.802  18.524  0.00  0.00    +0.000 C 
BRANCH  28  29
ATOM     29  N   UNL     1       2.546   2.321  19.537  0.00  0.00    +0.000 N 
ATOM     30  C   UNL     1       2.990   2.696  20.855  0.00  0.00    +0.000 C 
ATOM     31  C   UNL     1       1.692   3.004  21.576  0.00  0.00    +0.000 C 
ATOM     32  C   UNL     1       0.799   3.568  20.476  0.00  0.00    +0.000 C 
ATOM     33  C   UNL     1       1.301   2.861  19.240  0.00  0.00    +0.000 C 
ATOM     34  O   UNL     1       0.735   2.837  18.158  0.00  0.00    +0.000 OA
ENDBRANCH  28  29
ENDBRANCH  27  28
ENDBRANCH  26  27
ENDBRANCH  24  26
ENDBRANCH  23  24
ENDBRANCH   4  23
TORSDOF 8
ENDMDL
MODEL 7
REMARK VINA RESULT:      -8.1      0.579      1.471
REMARK  Name = 
REMARK  9 active torsions:
REMARK  status: ('A' for Active; 'I' for Inactive)
REMARK    1  A    between atoms: C_1  and  C_2
REMARK    2  A    between atoms: C_8  and  C_9
REMARK    3  A    between atoms: C_12  and  C_13
REMARK    4  A    between atoms: C_16  and  C_17
REMARK    5  A    between atoms: C_17  and  N_18
REMARK    6  A    between atoms: N_18  and  C_19
REMARK    7  A    between atoms: C_19  and  C_20
REMARK    8  A    between atoms: C_20  and  C_21
REMARK    9  A    between atoms: C_21  and  N_22
REMARK                            x       y       z     vdW  Elec       q    Type
REMARK                         _______ _______ _______ _____ _____    ______ ____
ROOT
ATOM      1  C   UNL     1       1.366   8.562  20.166  0.00  0.00    +0.000 A 
ATOM      2  C   UNL     1       1.954   7.327  20.479  0.00  0.00    +0.000 A 
ATOM      3  C   UNL     1       2.738   6.645  19.545  0.00  0.00    +0.000 A 
ATOM      4  C   UNL     1       2.959   7.180  18.270  0.00  0.00    +0.000 A 
ATOM      5  C   UNL     1       2.385   8.416  17.953  0.00  0.00    +0.000 A 
ATOM      6  C   UNL     1       1.600   9.097  18.890  0.00  0.00    +0.000 A 
ENDROOT
BRANCH   1  10
ATOM      7  C   UNL     1      -1.037  10.914  22.195  0.00  0.00    +0.000 A 
ATOM      8  C   UNL     1      -0.517  10.016  23.102  0.00  0.00    +0.000 A 
ATOM      9  C   UNL     1       0.384   9.092  22.495  0.00  0.00    +0.000 A 
ATOM     10  C   UNL     1       0.529   9.296  21.133  0.00  0.00    +0.000 A 
ATOM     11  S   UNL     1      -0.418  10.636  20.626  0.00  0.00    +0.000 S 
BRANCH   7  19
ATOM     12  C   UNL     1      -2.700  16.125  21.002  0.00  0.00    +0.000 C 
ATOM     13  C   UNL     1      -3.369  15.267  22.030  0.00  0.00    +0.000 A 
ATOM     14  C   UNL     1      -4.461  15.737  22.784  0.00  0.00    +0.000 A 
ATOM     15  C   UNL     1      -5.086  14.947  23.753  0.00  0.00    +0.000 A 
ATOM     16  C   UNL     1      -4.645  13.645  24.015  0.00  0.00    +0.000 A 
ATOM     17  C   UNL     1      -3.559  13.149  23.284  0.00  0.00    +0.000 A 
ATOM     18  N   UNL     1      -2.938  11.924  23.354  0.00  0.00    +0.000 NA
ATOM     19  C   UNL     1      -1.968  11.969  22.464  0.00  0.00    +0.000 A 
ATOM     20  N   UNL     1      -1.955  13.178  21.817  0.00  0.00    +0.000 N 
ATOM     21  C   UNL     1      -2.960  13.960  22.325  0.00  0.00    +0.000 A 
ATOM     22  H   UNL     1      -1.301  13.439  21.095  0.00  0.00    +0.000 HD
ENDBRANCH   7  19
ENDBRANCH   1  10
BRANCH   4  23
ATOM     23  C   UNL     1       3.807   6.433  17.268  0.00  0.00    +0.000 C 
BRANCH  23  24
ATOM     24  N   UNL     1       4.915   5.747  17.934  0.00  0.00    +0.000 NA
ATOM     25  H   UNL     1       4.675   5.621  18.917  0.00  0.00    +0.000 HD
BRANCH  24  26
ATOM     26  C   UNL     1       5.189   4.449  17.320  0.00  0.00    +0.000 C 
BRANCH  26  27
ATOM     27  C   UNL     1       3.895   3.637  17.240  0.00  0.00    +0.000 C 
BRANCH  27  28
ATOM     28  C   UNL     1       3.798   2.650  18.404  0.00  0.00    +0.000 C 
BRANCH  28  29
ATOM     29  N   UNL     1       2.742   2.992  19.341  0.00  0.00    +0.000 N 
ATOM     30  C   UNL     1       1.391   3.268  18.922  0.00  0.00    +0.000 C 
ATOM     31  C   UNL     1       0.726   3.727  20.205  0.00  0.00    +0.000 C 
ATOM     32  C   UNL     1       1.436   2.918  21.284  0.00  0.00    +0.000 C 
ATOM     33  C   UNL     1       2.812   2.713  20.700  0.00  0.00    +0.000 C 
ATOM     34  O   UNL     1       3.788   2.307  21.311  0.00  0.00    +0.000 OA
ENDBRANCH  28  29
ENDBRANCH  27  28
ENDBRANCH  26  27
ENDBRANCH  24  26
ENDBRANCH  23  24
ENDBRANCH   4  23
TORSDOF 8
ENDMDL
MODEL 8
REMARK VINA RESULT:      -8.0      1.642      1.968
REMARK  Name = 
REMARK  9 active torsions:
REMARK  status: ('A' for Active; 'I' for Inactive)
REMARK    1  A    between atoms: C_1  and  C_2
REMARK    2  A    between atoms: C_8  and  C_9
REMARK    3  A    between atoms: C_12  and  C_13
REMARK    4  A    between atoms: C_16  and  C_17
REMARK    5  A    between atoms: C_17  and  N_18
REMARK    6  A    between atoms: N_18  and  C_19
REMARK    7  A    between atoms: C_19  and  C_20
REMARK    8  A    between atoms: C_20  and  C_21
REMARK    9  A    between atoms: C_21  and  N_22
REMARK                            x       y       z     vdW  Elec       q    Type
REMARK                         _______ _______ _______ _____ _____    ______ ____
ROOT
ATOM      1  C   UNL     1       1.530   9.178  19.236  0.00  0.00    +0.000 A 
ATOM      2  C   UNL     1       1.779   8.056  20.041  0.00  0.00    +0.000 A 
ATOM      3  C   UNL     1       2.493   6.960  19.548  0.00  0.00    +0.000 A 
ATOM      4  C   UNL     1       2.982   6.957  18.236  0.00  0.00    +0.000 A 
ATOM      5  C   UNL     1       2.748   8.077  17.431  0.00  0.00    +0.000 A 
ATOM      6  C   UNL     1       2.032   9.172  17.926  0.00  0.00    +0.000 A 
ENDROOT
BRANCH   1  10
ATOM      7  C   UNL     1      -1.026  11.838  20.582  0.00  0.00    +0.000 A 
ATOM      8  C   UNL     1       0.169  12.503  20.407  0.00  0.00    +0.000 A 
ATOM      9  C   UNL     1       1.198  11.647  19.915  0.00  0.00    +0.000 A 
ATOM     10  C   UNL     1       0.773  10.342  19.732  0.00  0.00    +0.000 A 
ATOM     11  S   UNL     1      -0.889  10.194  20.136  0.00  0.00    +0.000 S 
BRANCH   7  19
ATOM     12  C   UNL     1      -4.549  12.413  24.895  0.00  0.00    +0.000 C 
ATOM     13  C   UNL     1      -4.805  13.006  23.544  0.00  0.00    +0.000 A 
ATOM     14  C   UNL     1      -5.975  13.737  23.271  0.00  0.00    +0.000 A 
ATOM     15  C   UNL     1      -6.228  14.287  22.010  0.00  0.00    +0.000 A 
ATOM     16  C   UNL     1      -5.316  14.128  20.960  0.00  0.00    +0.000 A 
ATOM     17  C   UNL     1      -4.143  13.402  21.200  0.00  0.00    +0.000 A 
ATOM     18  N   UNL     1      -3.106  13.102  20.347  0.00  0.00    +0.000 NA
ATOM     19  C   UNL     1      -2.258  12.391  21.061  0.00  0.00    +0.000 A 
ATOM     20  N   UNL     1      -2.711  12.238  22.347  0.00  0.00    +0.000 N 
ATOM     21  C   UNL     1      -3.921  12.870  22.465  0.00  0.00    +0.000 A 
ATOM     22  H   UNL     1      -2.226  11.732  23.072  0.00  0.00    +0.000 HD
ENDBRANCH   7  19
ENDBRANCH   1  10
BRANCH   4  23
ATOM     23  C   UNL     1       3.751   5.766  17.715  0.00  0.00    +0.000 C 
BRANCH  23  24
ATOM     24  N   UNL     1       4.892   5.464  18.580  0.00  0.00    +0.000 NA
ATOM     25  H   UNL     1       4.676   5.783  19.524  0.00  0.00    +0.000 HD
BRANCH  24  26
ATOM     26  C   UNL     1       5.190   4.033  18.596  0.00  0.00    +0.000 C 
BRANCH  26  27
ATOM     27  C   UNL     1       4.269   3.307  17.613  0.00  0.00    +0.000 C 
BRANCH  27  28
ATOM     28  C   UNL     1       3.556   2.139  18.296  0.00  0.00    +0.000 C 
BRANCH  28  29
ATOM     29  N   UNL     1       2.586   2.576  19.284  0.00  0.00    +0.000 N 
ATOM     30  C   UNL     1       2.902   2.693  20.685  0.00  0.00    +0.000 C 
ATOM     31  C   UNL     1       1.558   3.009  21.311  0.00  0.00    +0.000 C 
ATOM     32  C   UNL     1       0.847   3.823  20.237  0.00  0.00    +0.000 C 
ATOM     33  C   UNL     1       1.431   3.276  18.958  0.00  0.00    +0.000 C 
ATOM     34  O   UNL     1       0.995   3.479  17.835  0.00  0.00    +0.000 OA
ENDBRANCH  28  29
ENDBRANCH  27  28
ENDBRANCH  26  27
ENDBRANCH  24  26
ENDBRANCH  23  24
ENDBRANCH   4  23
TORSDOF 8
ENDMDL
MODEL 9
REMARK VINA RESULT:      -7.9      1.545      2.021
REMARK  Name = 
REMARK  9 active torsions:
REMARK  status: ('A' for Active; 'I' for Inactive)
REMARK    1  A    between atoms: C_1  and  C_2
REMARK    2  A    between atoms: C_8  and  C_9
REMARK    3  A    between atoms: C_12  and  C_13
REMARK    4  A    between atoms: C_16  and  C_17
REMARK    5  A    between atoms: C_17  and  N_18
REMARK    6  A    between atoms: N_18  and  C_19
REMARK    7  A    between atoms: C_19  and  C_20
REMARK    8  A    between atoms: C_20  and  C_21
REMARK    9  A    between atoms: C_21  and  N_22
REMARK                            x       y       z     vdW  Elec       q    Type
REMARK                         _______ _______ _______ _____ _____    ______ ____
ROOT
ATOM      1  C   UNL     1       1.486   8.904  19.070  0.00  0.00    +0.000 A 
ATOM      2  C   UNL     1       2.078   8.908  17.798  0.00  0.00    +0.000 A 
ATOM      3  C   UNL     1       2.909   7.862  17.387  0.00  0.00    +0.000 A 
ATOM      4  C   UNL     1       3.168   6.779  18.236  0.00  0.00    +0.000 A 
ATOM      5  C   UNL     1       2.572   6.761  19.501  0.00  0.00    +0.000 A 
ATOM      6  C   UNL     1       1.742   7.811  19.911  0.00  0.00    +0.000 A 
ENDROOT
BRANCH   1  10
ATOM      7  C   UNL     1      -0.595  11.670  20.925  0.00  0.00    +0.000 A 
ATOM      8  C   UNL     1      -0.946  11.749  19.594  0.00  0.00    +0.000 A 
ATOM      9  C   UNL     1      -0.258  10.788  18.794  0.00  0.00    +0.000 A 
ATOM     10  C   UNL     1       0.612   9.999  19.528  0.00  0.00    +0.000 A 
ATOM     11  S   UNL     1       0.548  10.428  21.190  0.00  0.00    +0.000 S 
BRANCH   7  19
ATOM     12  C   UNL     1      -4.664  12.522  24.674  0.00  0.00    +0.000 C 
ATOM     13  C   UNL     1      -3.471  13.417  24.543  0.00  0.00    +0.000 A 
ATOM     14  C   UNL     1      -3.312  14.555  25.354  0.00  0.00    +0.000 A 
ATOM     15  C   UNL     1      -2.207  15.403  25.232  0.00  0.00    +0.000 A 
ATOM     16  C   UNL     1      -1.206  15.149  24.288  0.00  0.00    +0.000 A 
ATOM     17  C   UNL     1      -1.337  14.026  23.463  0.00  0.00    +0.000 A 
ATOM     18  N   UNL     1      -0.508  13.566  22.465  0.00  0.00    +0.000 NA
ATOM     19  C   UNL     1      -1.091  12.483  21.995  0.00  0.00    +0.000 A 
ATOM     20  N   UNL     1      -2.259  12.226  22.667  0.00  0.00    +0.000 N 
ATOM     21  C   UNL     1      -2.448  13.202  23.610  0.00  0.00    +0.000 A 
ATOM     22  H   UNL     1      -2.873  11.448  22.479  0.00  0.00    +0.000 HD
ENDBRANCH   7  19
ENDBRANCH   1  10
BRANCH   4  23
ATOM     23  C   UNL     1       4.069   5.655  17.781  0.00  0.00    +0.000 C 
BRANCH  23  24
ATOM     24  N   UNL     1       5.434   5.853  18.269  0.00  0.00    +0.000 NA
ATOM     25  H   UNL     1       5.471   6.736  18.779  0.00  0.00    +0.000 HD
BRANCH  24  26
ATOM     26  C   UNL     1       5.856   4.758  19.142  0.00  0.00    +0.000 C 
BRANCH  26  27
ATOM     27  C   UNL     1       5.132   3.473  18.738  0.00  0.00    +0.000 C 
BRANCH  27  28
ATOM     28  C   UNL     1       4.406   2.856  19.935  0.00  0.00    +0.000 C 
BRANCH  28  29
ATOM     29  N   UNL     1       2.966   3.032  19.868  0.00  0.00    +0.000 N 
ATOM     30  C   UNL     1       2.198   2.713  18.691  0.00  0.00    +0.000 C 
ATOM     31  C   UNL     1       0.812   3.216  19.045  0.00  0.00    +0.000 C 
ATOM     32  C   UNL     1       0.726   2.995  20.550  0.00  0.00    +0.000 C 
ATOM     33  C   UNL     1       2.161   3.141  20.995  0.00  0.00    +0.000 C 
ATOM     34  O   UNL     1       2.537   3.261  22.150  0.00  0.00    +0.000 OA
ENDBRANCH  28  29
ENDBRANCH  27  28
ENDBRANCH  26  27
ENDBRANCH  24  26
ENDBRANCH  23  24
ENDBRANCH   4  23
TORSDOF 8
ENDMDL
