MODEL 1
REMARK VINA RESULT:      -6.9      0.000      0.000
REMARK  Name = 
REMARK  6 active torsions:
REMARK  status: ('A' for Active; 'I' for Inactive)
REMARK    1  A    between atoms: C_1  and  C_2
REMARK    2  A    between atoms: C_2  and  N_3
REMARK    3  A    between atoms: C_4  and  C_5
REMARK    4  A    between atoms: C_8  and  O_9
REMARK    5  A    between atoms: C_12  and  C_13
REMARK    6  A    between atoms: C_17  and  O_18
REMARK                            x       y       z     vdW  Elec       q    Type
REMARK                         _______ _______ _______ _____ _____    ______ ____
ROOT
ATOM      1  N   UNL     1       1.983   6.645  20.173  0.00  0.00    +0.000 N 
ATOM      2  C   UNL     1       2.528   6.920  18.902  0.00  0.00    +0.000 A 
ATOM      3  C   UNL     1       2.089   8.236  18.619  0.00  0.00    +0.000 A 
ATOM      4  C   UNL     1       2.270   9.101  17.408  0.00  0.00    +0.000 C 
ATOM      5  C   UNL     1       1.391   8.754  19.757  0.00  0.00    +0.000 A 
ATOM      6  C   UNL     1       0.806  10.010  20.055  0.00  0.00    +0.000 A 
ATOM      7  C   UNL     1       0.157  10.211  21.274  0.00  0.00    +0.000 A 
ATOM      8  C   UNL     1       0.081   9.172  22.188  0.00  0.00    +0.000 A 
ATOM      9  C   UNL     1       0.645   7.928  21.924  0.00  0.00    +0.000 A 
ATOM     10  C   UNL     1       1.313   7.744  20.696  0.00  0.00    +0.000 A 
ENDROOT
BRANCH   2  11
ATOM     11  C   UNL     1       3.402   5.991  18.082  0.00  0.00    +0.000 A 
ATOM     12  C   UNL     1       2.992   4.734  17.596  0.00  0.00    +0.000 A 
ATOM     13  C   UNL     1       3.850   3.845  16.926  0.00  0.00    +0.000 A 
ATOM     14  C   UNL     1       5.142   4.229  16.638  0.00  0.00    +0.000 A 
ATOM     15  C   UNL     1       5.580   5.480  17.021  0.00  0.00    +0.000 A 
ATOM     16  C   UNL     1       4.733   6.324  17.763  0.00  0.00    +0.000 A 
BRANCH  14  17
ATOM     17  O   UNL     1       6.012   3.397  16.004  0.00  0.00    +0.000 OA
ATOM     18  H   UNL     1       5.770   3.360  15.061  0.00  0.00    +0.000 HD
ENDBRANCH  14  17
ENDBRANCH   2  11
BRANCH   1  20
ATOM     19  C   UNL     1       1.026   4.388  20.496  0.00  0.00    +0.000 C 
ATOM     20  C   UNL     1       2.058   5.414  20.954  0.00  0.00    +0.000 C 
ENDBRANCH   1  20
BRANCH   8  21
ATOM     21  O   UNL     1      -0.547   9.325  23.393  0.00  0.00    +0.000 OA
ATOM     22  H   UNL     1      -1.291   8.705  23.431  0.00  0.00    +0.000 HD
ENDBRANCH   8  21
TORSDOF 4
ENDMDL
MODEL 2
REMARK VINA RESULT:      -6.8      0.177      1.074
REMARK  Name = 
REMARK  6 active torsions:
REMARK  status: ('A' for Active; 'I' for Inactive)
REMARK    1  A    between atoms: C_1  and  C_2
REMARK    2  A    between atoms: C_2  and  N_3
REMARK    3  A    between atoms: C_4  and  C_5
REMARK    4  A    between atoms: C_8  and  O_9
REMARK    5  A    between atoms: C_12  and  C_13
REMARK    6  A    between atoms: C_17  and  O_18
REMARK                            x       y       z     vdW  Elec       q    Type
REMARK                         _______ _______ _______ _____ _____    ______ ____
ROOT
ATOM      1  N   UNL     1       1.982   6.550  20.193  0.00  0.00    +0.000 N 
ATOM      2  C   UNL     1       2.608   6.817  18.957  0.00  0.00    +0.000 A 
ATOM      3  C   UNL     1       2.181   8.128  18.634  0.00  0.00    +0.000 A 
ATOM      4  C   UNL     1       2.436   8.983  17.429  0.00  0.00    +0.000 C 
ATOM      5  C   UNL     1       1.408   8.652  19.719  0.00  0.00    +0.000 A 
ATOM      6  C   UNL     1       0.798   9.908  19.967  0.00  0.00    +0.000 A 
ATOM      7  C   UNL     1       0.071  10.117  21.139  0.00  0.00    +0.000 A 
ATOM      8  C   UNL     1      -0.059   9.085  22.056  0.00  0.00    +0.000 A 
ATOM      9  C   UNL     1       0.527   7.843  21.840  0.00  0.00    +0.000 A 
ATOM     10  C   UNL     1       1.274   7.651  20.661  0.00  0.00    +0.000 A 
ENDROOT
BRANCH   2  11
ATOM     11  C   UNL     1       3.537   5.886  18.204  0.00  0.00    +0.000 A 
ATOM     12  C   UNL     1       4.902   6.142  17.968  0.00  0.00    +0.000 A 
ATOM     13  C   UNL     1       5.721   5.314  17.181  0.00  0.00    +0.000 A 
ATOM     14  C   UNL     1       5.215   4.138  16.671  0.00  0.00    +0.000 A 
ATOM     15  C   UNL     1       3.904   3.794  16.932  0.00  0.00    +0.000 A 
ATOM     16  C   UNL     1       3.077   4.675  17.652  0.00  0.00    +0.000 A 
BRANCH  14  17
ATOM     17  O   UNL     1       5.965   3.312  15.893  0.00  0.00    +0.000 OA
ATOM     18  H   UNL     1       5.627   3.359  14.980  0.00  0.00    +0.000 HD
ENDBRANCH  14  17
ENDBRANCH   2  11
BRANCH   1  20
ATOM     19  C   UNL     1       1.027   4.287  20.465  0.00  0.00    +0.000 C 
ATOM     20  C   UNL     1       2.011   5.327  20.988  0.00  0.00    +0.000 C 
ENDBRANCH   1  20
BRANCH   8  21
ATOM     21  O   UNL     1      -0.766   9.246  23.215  0.00  0.00    +0.000 OA
ATOM     22  H   UNL     1      -0.234   8.902  23.948  0.00  0.00    +0.000 HD
ENDBRANCH   8  21
TORSDOF 4
ENDMDL
MODEL 3
REMARK VINA RESULT:      -6.2      2.312      3.584
REMARK  Name = 
REMARK  6 active torsions:
REMARK  status: ('A' for Active; 'I' for Inactive)
REMARK    1  A    between atoms: C_1  and  C_2
REMARK    2  A    between atoms: C_2  and  N_3
REMARK    3  A    between atoms: C_4  and  C_5
REMARK    4  A    between atoms: C_8  and  O_9
REMARK    5  A    between atoms: C_12  and  C_13
REMARK    6  A    between atoms: C_17  and  O_18
REMARK                            x       y       z     vdW  Elec       q    Type
REMARK                         _______ _______ _______ _____ _____    ______ ____
ROOT
ATOM      1  N   UNL     1       3.093   7.112  17.931  0.00  0.00    +0.000 N 
ATOM      2  C   UNL     1       2.738   6.060  18.802  0.00  0.00    +0.000 A 
ATOM      3  C   UNL     1       1.950   6.690  19.795  0.00  0.00    +0.000 A 
ATOM      4  C   UNL     1       1.310   6.151  21.039  0.00  0.00    +0.000 C 
ATOM      5  C   UNL     1       1.763   8.065  19.446  0.00  0.00    +0.000 A 
ATOM      6  C   UNL     1       1.026   9.129  20.025  0.00  0.00    +0.000 A 
ATOM      7  C   UNL     1       1.058  10.400  19.451  0.00  0.00    +0.000 A 
ATOM      8  C   UNL     1       1.822  10.619  18.316  0.00  0.00    +0.000 A 
ATOM      9  C   UNL     1       2.556   9.596  17.726  0.00  0.00    +0.000 A 
ATOM     10  C   UNL     1       2.501   8.313  18.305  0.00  0.00    +0.000 A 
ENDROOT
BRANCH   2  11
ATOM     11  C   UNL     1       3.118   4.601  18.644  0.00  0.00    +0.000 A 
ATOM     12  C   UNL     1       2.561   3.731  17.687  0.00  0.00    +0.000 A 
ATOM     13  C   UNL     1       2.853   2.357  17.625  0.00  0.00    +0.000 A 
ATOM     14  C   UNL     1       3.794   1.820  18.476  0.00  0.00    +0.000 A 
ATOM     15  C   UNL     1       4.431   2.637  19.387  0.00  0.00    +0.000 A 
ATOM     16  C   UNL     1       4.067   3.992  19.490  0.00  0.00    +0.000 A 
BRANCH  14  17
ATOM     17  O   UNL     1       4.099   0.494  18.462  0.00  0.00    +0.000 OA
ATOM     18  H   UNL     1       3.590   0.054  19.166  0.00  0.00    +0.000 HD
ENDBRANCH  14  17
ENDBRANCH   2  11
BRANCH   1  20
ATOM     19  C   UNL     1       5.417   6.892  17.116  0.00  0.00    +0.000 C 
ATOM     20  C   UNL     1       3.948   7.072  16.749  0.00  0.00    +0.000 C 
ENDBRANCH   1  20
BRANCH   8  21
ATOM     21  O   UNL     1       1.885  11.850  17.723  0.00  0.00    +0.000 OA
ATOM     22  H   UNL     1       2.091  11.728  16.785  0.00  0.00    +0.000 HD
ENDBRANCH   8  21
TORSDOF 4
ENDMDL
MODEL 4
REMARK VINA RESULT:      -6.2      3.793      8.977
REMARK  Name = 
REMARK  6 active torsions:
REMARK  status: ('A' for Active; 'I' for Inactive)
REMARK    1  A    between atoms: C_1  and  C_2
REMARK    2  A    between atoms: C_2  and  N_3
REMARK    3  A    between atoms: C_4  and  C_5
REMARK    4  A    between atoms: C_8  and  O_9
REMARK    5  A    between atoms: C_12  and  C_13
REMARK    6  A    between atoms: C_17  and  O_18
REMARK                            x       y       z     vdW  Elec       q    Type
REMARK                         _______ _______ _______ _____ _____    ______ ____
ROOT
ATOM      1  N   UNL     1      -0.490  11.452  20.441  0.00  0.00    +0.000 N 
ATOM      2  C   UNL     1      -0.755  11.339  21.822  0.00  0.00    +0.000 A 
ATOM      3  C   UNL     1      -0.138  10.118  22.189  0.00  0.00    +0.000 A 
ATOM      4  C   UNL     1      -0.095   9.385  23.496  0.00  0.00    +0.000 C 
ATOM      5  C   UNL     1       0.564   9.588  21.060  0.00  0.00    +0.000 A 
ATOM      6  C   UNL     1       1.393   8.453  20.870  0.00  0.00    +0.000 A 
ATOM      7  C   UNL     1       1.931   8.179  19.612  0.00  0.00    +0.000 A 
ATOM      8  C   UNL     1       1.643   9.018  18.547  0.00  0.00    +0.000 A 
ATOM      9  C   UNL     1       0.833  10.138  18.703  0.00  0.00    +0.000 A 
ATOM     10  C   UNL     1       0.311  10.413  19.982  0.00  0.00    +0.000 A 
ENDROOT
BRANCH   2  11
ATOM     11  C   UNL     1      -1.509  12.340  22.674  0.00  0.00    +0.000 A 
ATOM     12  C   UNL     1      -0.991  13.583  23.090  0.00  0.00    +0.000 A 
ATOM     13  C   UNL     1      -1.668  14.451  23.964  0.00  0.00    +0.000 A 
ATOM     14  C   UNL     1      -2.943  14.139  24.386  0.00  0.00    +0.000 A 
ATOM     15  C   UNL     1      -3.534  12.971  23.951  0.00  0.00    +0.000 A 
ATOM     16  C   UNL     1      -2.811  12.075  23.144  0.00  0.00    +0.000 A 
BRANCH  14  17
ATOM     17  O   UNL     1      -3.631  14.941  25.242  0.00  0.00    +0.000 OA
ATOM     18  H   UNL     1      -4.143  14.377  25.848  0.00  0.00    +0.000 HD
ENDBRANCH  14  17
ENDBRANCH   2  11
BRANCH   1  20
ATOM     19  C   UNL     1      -2.287  12.163  18.899  0.00  0.00    +0.000 C 
ATOM     20  C   UNL     1      -0.927  12.486  19.508  0.00  0.00    +0.000 C 
ENDBRANCH   1  20
BRANCH   8  21
ATOM     21  O   UNL     1       2.146   8.785  17.298  0.00  0.00    +0.000 OA
ATOM     22  H   UNL     1       2.789   9.480  17.091  0.00  0.00    +0.000 HD
ENDBRANCH   8  21
TORSDOF 4
ENDMDL
MODEL 5
REMARK VINA RESULT:      -6.2      7.309      8.996
REMARK  Name = 
REMARK  6 active torsions:
REMARK  status: ('A' for Active; 'I' for Inactive)
REMARK    1  A    between atoms: C_1  and  C_2
REMARK    2  A    between atoms: C_2  and  N_3
REMARK    3  A    between atoms: C_4  and  C_5
REMARK    4  A    between atoms: C_8  and  O_9
REMARK    5  A    between atoms: C_12  and  C_13
REMARK    6  A    between atoms: C_17  and  O_18
REMARK                            x       y       z     vdW  Elec       q    Type
REMARK                         _______ _______ _______ _____ _____    ______ ____
ROOT
ATOM      1  N   UNL     1      -5.840  11.744  19.877  0.00  0.00    +0.000 N 
ATOM      2  C   UNL     1      -4.537  11.896  19.357  0.00  0.00    +0.000 A 
ATOM      3  C   UNL     1      -3.858  12.643  20.350  0.00  0.00    +0.000 A 
ATOM      4  C   UNL     1      -2.463  13.191  20.394  0.00  0.00    +0.000 C 
ATOM      5  C   UNL     1      -4.723  12.827  21.475  0.00  0.00    +0.000 A 
ATOM      6  C   UNL     1      -4.555  13.426  22.749  0.00  0.00    +0.000 A 
ATOM      7  C   UNL     1      -5.619  13.473  23.649  0.00  0.00    +0.000 A 
ATOM      8  C   UNL     1      -6.845  12.938  23.287  0.00  0.00    +0.000 A 
ATOM      9  C   UNL     1      -7.041  12.344  22.045  0.00  0.00    +0.000 A 
ATOM     10  C   UNL     1      -5.952  12.288  21.152  0.00  0.00    +0.000 A 
ENDROOT
BRANCH   2  11
ATOM     11  C   UNL     1      -4.028  11.341  18.041  0.00  0.00    +0.000 A 
ATOM     12  C   UNL     1      -2.957  10.435  17.920  0.00  0.00    +0.000 A 
ATOM     13  C   UNL     1      -2.436  10.013  16.684  0.00  0.00    +0.000 A 
ATOM     14  C   UNL     1      -3.037  10.420  15.513  0.00  0.00    +0.000 A 
ATOM     15  C   UNL     1      -4.140  11.248  15.569  0.00  0.00    +0.000 A 
ATOM     16  C   UNL     1      -4.596  11.727  16.811  0.00  0.00    +0.000 A 
BRANCH  14  17
ATOM     17  O   UNL     1      -2.560  10.049  14.295  0.00  0.00    +0.000 OA
ATOM     18  H   UNL     1      -1.678   9.654  14.417  0.00  0.00    +0.000 HD
ENDBRANCH  14  17
ENDBRANCH   2  11
BRANCH   1  20
ATOM     19  C   UNL     1      -6.951   9.586  19.406  0.00  0.00    +0.000 C 
ATOM     20  C   UNL     1      -7.000  11.104  19.266  0.00  0.00    +0.000 C 
ENDBRANCH   1  20
BRANCH   8  21
ATOM     21  O   UNL     1      -7.916  12.966  24.137  0.00  0.00    +0.000 OA
ATOM     22  H   UNL     1      -8.725  13.045  23.610  0.00  0.00    +0.000 HD
ENDBRANCH   8  21
TORSDOF 4
ENDMDL
MODEL 6
REMARK VINA RESULT:      -6.2      4.044      9.170
REMARK  Name = 
REMARK  6 active torsions:
REMARK  status: ('A' for Active; 'I' for Inactive)
REMARK    1  A    between atoms: C_1  and  C_2
REMARK    2  A    between atoms: C_2  and  N_3
REMARK    3  A    between atoms: C_4  and  C_5
REMARK    4  A    between atoms: C_8  and  O_9
REMARK    5  A    between atoms: C_12  and  C_13
REMARK    6  A    between atoms: C_17  and  O_18
REMARK                            x       y       z     vdW  Elec       q    Type
REMARK                         _______ _______ _______ _____ _____    ______ ____
ROOT
ATOM      1  N   UNL     1      -0.750  11.735  20.558  0.00  0.00    +0.000 N 
ATOM      2  C   UNL     1      -0.980  11.517  21.933  0.00  0.00    +0.000 A 
ATOM      3  C   UNL     1      -0.327  10.288  22.197  0.00  0.00    +0.000 A 
ATOM      4  C   UNL     1      -0.237   9.465  23.447  0.00  0.00    +0.000 C 
ATOM      5  C   UNL     1       0.360   9.857  21.018  0.00  0.00    +0.000 A 
ATOM      6  C   UNL     1       1.208   8.759  20.728  0.00  0.00    +0.000 A 
ATOM      7  C   UNL     1       1.723   8.588  19.443  0.00  0.00    +0.000 A 
ATOM      8  C   UNL     1       1.391   9.495  18.447  0.00  0.00    +0.000 A 
ATOM      9  C   UNL     1       0.561  10.581  18.701  0.00  0.00    +0.000 A 
ATOM     10  C   UNL     1       0.063  10.751  20.008  0.00  0.00    +0.000 A 
ENDROOT
BRANCH   2  11
ATOM     11  C   UNL     1      -1.735  12.436  22.872  0.00  0.00    +0.000 A 
ATOM     12  C   UNL     1      -3.035  12.188  23.355  0.00  0.00    +0.000 A 
ATOM     13  C   UNL     1      -3.756  13.102  24.143  0.00  0.00    +0.000 A 
ATOM     14  C   UNL     1      -3.157  14.274  24.552  0.00  0.00    +0.000 A 
ATOM     15  C   UNL     1      -1.857  14.540  24.173  0.00  0.00    +0.000 A 
ATOM     16  C   UNL     1      -1.180  13.652  23.317  0.00  0.00    +0.000 A 
BRANCH  14  17
ATOM     17  O   UNL     1      -3.820  15.195  25.302  0.00  0.00    +0.000 OA
ATOM     18  H   UNL     1      -3.888  14.858  26.213  0.00  0.00    +0.000 HD
ENDBRANCH  14  17
ENDBRANCH   2  11
BRANCH   1  20
ATOM     19  C   UNL     1      -0.291  14.022  19.738  0.00  0.00    +0.000 C 
ATOM     20  C   UNL     1      -1.232  12.822  19.712  0.00  0.00    +0.000 C 
ENDBRANCH   1  20
BRANCH   8  21
ATOM     21  O   UNL     1       1.870   9.363  17.173  0.00  0.00    +0.000 OA
ATOM     22  H   UNL     1       2.369   8.535  17.118  0.00  0.00    +0.000 HD
ENDBRANCH   8  21
TORSDOF 4
ENDMDL
MODEL 7
REMARK VINA RESULT:      -6.1      2.629      4.742
REMARK  Name = 
REMARK  6 active torsions:
REMARK  status: ('A' for Active; 'I' for Inactive)
REMARK    1  A    between atoms: C_1  and  C_2
REMARK    2  A    between atoms: C_2  and  N_3
REMARK    3  A    between atoms: C_4  and  C_5
REMARK    4  A    between atoms: C_8  and  O_9
REMARK    5  A    between atoms: C_12  and  C_13
REMARK    6  A    between atoms: C_17  and  O_18
REMARK                            x       y       z     vdW  Elec       q    Type
REMARK                         _______ _______ _______ _____ _____    ______ ____
ROOT
ATOM      1  N   UNL     1       4.287   5.831  17.375  0.00  0.00    +0.000 N 
ATOM      2  C   UNL     1       4.505   4.598  16.727  0.00  0.00    +0.000 A 
ATOM      3  C   UNL     1       3.794   3.665  17.519  0.00  0.00    +0.000 A 
ATOM      4  C   UNL     1       3.664   2.175  17.415  0.00  0.00    +0.000 C 
ATOM      5  C   UNL     1       3.088   4.364  18.549  0.00  0.00    +0.000 A 
ATOM      6  C   UNL     1       2.187   3.956  19.565  0.00  0.00    +0.000 A 
ATOM      7  C   UNL     1       1.666   4.892  20.459  0.00  0.00    +0.000 A 
ATOM      8  C   UNL     1       2.041   6.222  20.353  0.00  0.00    +0.000 A 
ATOM      9  C   UNL     1       2.923   6.652  19.367  0.00  0.00    +0.000 A 
ATOM     10  C   UNL     1       3.428   5.699  18.460  0.00  0.00    +0.000 A 
ENDROOT
BRANCH   2  11
ATOM     11  C   UNL     1       5.304   4.384  15.456  0.00  0.00    +0.000 A 
ATOM     12  C   UNL     1       6.677   4.668  15.321  0.00  0.00    +0.000 A 
ATOM     13  C   UNL     1       7.375   4.559  14.105  0.00  0.00    +0.000 A 
ATOM     14  C   UNL     1       6.731   4.068  12.990  0.00  0.00    +0.000 A 
ATOM     15  C   UNL     1       5.404   3.699  13.079  0.00  0.00    +0.000 A 
ATOM     16  C   UNL     1       4.701   3.894  14.281  0.00  0.00    +0.000 A 
BRANCH  14  17
ATOM     17  O   UNL     1       7.362   3.957  11.789  0.00  0.00    +0.000 OA
ATOM     18  H   UNL     1       8.010   3.232  11.848  0.00  0.00    +0.000 HD
ENDBRANCH  14  17
ENDBRANCH   2  11
BRANCH   1  20
ATOM     19  C   UNL     1       6.284   7.288  17.450  0.00  0.00    +0.000 C 
ATOM     20  C   UNL     1       4.821   7.148  17.041  0.00  0.00    +0.000 C 
ENDBRANCH   1  20
BRANCH   8  21
ATOM     21  O   UNL     1       1.557   7.171  21.210  0.00  0.00    +0.000 OA
ATOM     22  H   UNL     1       1.862   6.960  22.105  0.00  0.00    +0.000 HD
ENDBRANCH   8  21
TORSDOF 4
ENDMDL
MODEL 8
REMARK VINA RESULT:      -6.1      2.306      3.647
REMARK  Name = 
REMARK  6 active torsions:
REMARK  status: ('A' for Active; 'I' for Inactive)
REMARK    1  A    between atoms: C_1  and  C_2
REMARK    2  A    between atoms: C_2  and  N_3
REMARK    3  A    between atoms: C_4  and  C_5
REMARK    4  A    between atoms: C_8  and  O_9
REMARK    5  A    between atoms: C_12  and  C_13
REMARK    6  A    between atoms: C_17  and  O_18
REMARK                            x       y       z     vdW  Elec       q    Type
REMARK                         _______ _______ _______ _____ _____    ______ ____
ROOT
ATOM      1  N   UNL     1       3.018   7.184  18.022  0.00  0.00    +0.000 N 
ATOM      2  C   UNL     1       2.639   6.164  18.920  0.00  0.00    +0.000 A 
ATOM      3  C   UNL     1       1.865   6.839  19.896  0.00  0.00    +0.000 A 
ATOM      4  C   UNL     1       1.214   6.347  21.154  0.00  0.00    +0.000 C 
ATOM      5  C   UNL     1       1.709   8.207  19.509  0.00  0.00    +0.000 A 
ATOM      6  C   UNL     1       0.996   9.303  20.059  0.00  0.00    +0.000 A 
ATOM      7  C   UNL     1       1.056  10.557  19.451  0.00  0.00    +0.000 A 
ATOM      8  C   UNL     1       1.826  10.728  18.311  0.00  0.00    +0.000 A 
ATOM      9  C   UNL     1       2.537   9.673  17.749  0.00  0.00    +0.000 A 
ATOM     10  C   UNL     1       2.453   8.407  18.363  0.00  0.00    +0.000 A 
ENDROOT
BRANCH   2  11
ATOM     11  C   UNL     1       2.986   4.693  18.802  0.00  0.00    +0.000 A 
ATOM     12  C   UNL     1       3.988   4.049  19.554  0.00  0.00    +0.000 A 
ATOM     13  C   UNL     1       4.363   2.709  19.356  0.00  0.00    +0.000 A 
ATOM     14  C   UNL     1       3.676   1.933  18.447  0.00  0.00    +0.000 A 
ATOM     15  C   UNL     1       2.633   2.488  17.734  0.00  0.00    +0.000 A 
ATOM     16  C   UNL     1       2.326   3.852  17.885  0.00  0.00    +0.000 A 
BRANCH  14  17
ATOM     17  O   UNL     1       4.012   0.636  18.213  0.00  0.00    +0.000 OA
ATOM     18  H   UNL     1       3.411   0.065  18.724  0.00  0.00    +0.000 HD
ENDBRANCH  14  17
ENDBRANCH   2  11
BRANCH   1  20
ATOM     19  C   UNL     1       5.325   6.817  17.212  0.00  0.00    +0.000 C 
ATOM     20  C   UNL     1       3.872   7.094  16.842  0.00  0.00    +0.000 C 
ENDBRANCH   1  20
BRANCH   8  21
ATOM     21  O   UNL     1       1.916  11.941  17.685  0.00  0.00    +0.000 OA
ATOM     22  H   UNL     1       1.292  12.550  18.107  0.00  0.00    +0.000 HD
ENDBRANCH   8  21
TORSDOF 4
ENDMDL
MODEL 9
REMARK VINA RESULT:      -6.1      1.318      6.354
REMARK  Name = 
REMARK  6 active torsions:
REMARK  status: ('A' for Active; 'I' for Inactive)
REMARK    1  A    between atoms: C_1  and  C_2
REMARK    2  A    between atoms: C_2  and  N_3
REMARK    3  A    between atoms: C_4  and  C_5
REMARK    4  A    between atoms: C_8  and  O_9
REMARK    5  A    between atoms: C_12  and  C_13
REMARK    6  A    between atoms: C_17  and  O_18
REMARK                            x       y       z     vdW  Elec       q    Type
REMARK                         _______ _______ _______ _____ _____    ______ ____
ROOT
ATOM      1  N   UNL     1       2.455   5.520  19.763  0.00  0.00    +0.000 N 
ATOM      2  C   UNL     1       2.471   6.873  19.364  0.00  0.00    +0.000 A 
ATOM      3  C   UNL     1       3.267   6.874  18.192  0.00  0.00    +0.000 A 
ATOM      4  C   UNL     1       3.725   7.996  17.309  0.00  0.00    +0.000 C 
ATOM      5  C   UNL     1       3.614   5.527  17.858  0.00  0.00    +0.000 A 
ATOM      6  C   UNL     1       4.324   4.940  16.780  0.00  0.00    +0.000 A 
ATOM      7  C   UNL     1       4.527   3.560  16.741  0.00  0.00    +0.000 A 
ATOM      8  C   UNL     1       4.038   2.767  17.768  0.00  0.00    +0.000 A 
ATOM      9  C   UNL     1       3.340   3.315  18.839  0.00  0.00    +0.000 A 
ATOM     10  C   UNL     1       3.126   4.707  18.857  0.00  0.00    +0.000 A 
ENDROOT
BRANCH   2  11
ATOM     11  C   UNL     1       1.759   8.019  20.055  0.00  0.00    +0.000 A 
ATOM     12  C   UNL     1       1.196   9.125  19.389  0.00  0.00    +0.000 A 
ATOM     13  C   UNL     1       0.631  10.226  20.056  0.00  0.00    +0.000 A 
ATOM     14  C   UNL     1       0.528  10.213  21.430  0.00  0.00    +0.000 A 
ATOM     15  C   UNL     1       0.993   9.122  22.135  0.00  0.00    +0.000 A 
ATOM     16  C   UNL     1       1.630   8.067  21.457  0.00  0.00    +0.000 A 
BRANCH  14  17
ATOM     17  O   UNL     1       0.001  11.261  22.119  0.00  0.00    +0.000 OA
ATOM     18  H   UNL     1       0.317  11.214  23.039  0.00  0.00    +0.000 HD
ENDBRANCH  14  17
ENDBRANCH   2  11
BRANCH   1  20
ATOM     19  C   UNL     1       0.793   3.872  20.561  0.00  0.00    +0.000 C 
ATOM     20  C   UNL     1       1.834   4.921  20.940  0.00  0.00    +0.000 C 
ENDBRANCH   1  20
BRANCH   8  21
ATOM     21  O   UNL     1       4.218   1.412  17.772  0.00  0.00    +0.000 OA
ATOM     22  H   UNL     1       3.586   1.021  18.394  0.00  0.00    +0.000 HD
ENDBRANCH   8  21
TORSDOF 4
ENDMDL
