MODEL 1
REMARK VINA RESULT:      -6.9      0.000      0.000
REMARK  Name = 
REMARK  4 active torsions:
REMARK  status: ('A' for Active; 'I' for Inactive)
REMARK    1  A    between atoms: C_1  and  C_2
REMARK    2  A    between atoms: C_2  and  C_4
REMARK    3  A    between atoms: C_5  and  C_6
REMARK    4  A    between atoms: C_11  and  C_12
REMARK                            x       y       z     vdW  Elec       q    Type
REMARK                         _______ _______ _______ _____ _____    ______ ____
ROOT
ATOM      1  C   UNL     1       3.576   3.786  19.648  0.00  0.00    +0.000 C 
ATOM      2  C   UNL     1       2.654   4.160  20.572  0.00  0.00    +0.000 C 
ATOM      3  C   UNL     1       2.014   3.342  21.667  0.00  0.00    +0.000 C 
ATOM      4  N   UNL     1       2.174   5.456  20.535  0.00  0.00    +0.000 N 
ATOM      5  C   UNL     1       2.636   6.458  19.742  0.00  0.00    +0.000 C 
ATOM      6  O   UNL     1       2.176   7.591  19.782  0.00  0.00    +0.000 OA
ATOM      7  N   UNL     1       3.667   6.135  18.929  0.00  0.00    +0.000 N 
ATOM      8  C   UNL     1       4.075   4.781  18.628  0.00  0.00    +0.000 C 
ATOM      9  H   UNL     1       1.443   5.742  21.175  0.00  0.00    +0.000 HD
ATOM     10  H   UNL     1       4.001   6.895  18.352  0.00  0.00    +0.000 HD
ENDROOT
BRANCH   8  11
ATOM     11  C   UNL     1       5.559   4.862  18.448  0.00  0.00    +0.000 A 
ATOM     12  C   UNL     1       6.303   4.444  17.297  0.00  0.00    +0.000 A 
ATOM     13  C   UNL     1       7.622   4.725  17.558  0.00  0.00    +0.000 A 
ATOM     14  O   UNL     1       7.754   5.259  18.797  0.00  0.00    +0.000 OA
ATOM     15  C   UNL     1       6.509   5.345  19.330  0.00  0.00    +0.000 A 
ENDBRANCH   8  11
BRANCH   1  17
ATOM     16  C   UNL     1       3.475   1.423  18.528  0.00  0.00    +0.000 C 
ATOM     17  C   UNL     1       4.057   2.355  19.566  0.00  0.00    +0.000 C 
ATOM     18  O   UNL     1       4.874   1.892  20.360  0.00  0.00    +0.000 OA
ENDBRANCH   1  17
TORSDOF 2
ENDMDL
MODEL 2
REMARK VINA RESULT:      -6.8      1.962      4.212
REMARK  Name = 
REMARK  4 active torsions:
REMARK  status: ('A' for Active; 'I' for Inactive)
REMARK    1  A    between atoms: C_1  and  C_2
REMARK    2  A    between atoms: C_2  and  C_4
REMARK    3  A    between atoms: C_5  and  C_6
REMARK    4  A    between atoms: C_11  and  C_12
REMARK                            x       y       z     vdW  Elec       q    Type
REMARK                         _______ _______ _______ _____ _____    ______ ____
ROOT
ATOM      1  C   UNL     1       3.094   4.106  18.975  0.00  0.00    +0.000 C 
ATOM      2  C   UNL     1       3.968   3.170  18.523  0.00  0.00    +0.000 C 
ATOM      3  C   UNL     1       3.687   1.828  17.891  0.00  0.00    +0.000 C 
ATOM      4  N   UNL     1       5.322   3.413  18.659  0.00  0.00    +0.000 N 
ATOM      5  C   UNL     1       5.887   4.574  19.084  0.00  0.00    +0.000 C 
ATOM      6  O   UNL     1       7.099   4.725  19.157  0.00  0.00    +0.000 OA
ATOM      7  N   UNL     1       5.025   5.571  19.385  0.00  0.00    +0.000 N 
ATOM      8  C   UNL     1       3.605   5.388  19.587  0.00  0.00    +0.000 C 
ATOM      9  H   UNL     1       5.993   2.705  18.384  0.00  0.00    +0.000 HD
ATOM     10  H   UNL     1       5.465   6.427  19.692  0.00  0.00    +0.000 HD
ENDROOT
BRANCH   8  11
ATOM     11  C   UNL     1       2.984   6.657  19.090  0.00  0.00    +0.000 A 
ATOM     12  C   UNL     1       3.193   7.265  17.811  0.00  0.00    +0.000 A 
ATOM     13  C   UNL     1       2.409   8.391  17.778  0.00  0.00    +0.000 A 
ATOM     14  O   UNL     1       1.751   8.543  18.953  0.00  0.00    +0.000 OA
ATOM     15  C   UNL     1       2.095   7.494  19.741  0.00  0.00    +0.000 A 
ENDBRANCH   8  11
BRANCH   1  17
ATOM     16  C   UNL     1       0.861   3.624  20.252  0.00  0.00    +0.000 C 
ATOM     17  C   UNL     1       1.604   3.851  18.956  0.00  0.00    +0.000 C 
ATOM     18  O   UNL     1       0.969   3.762  17.906  0.00  0.00    +0.000 OA
ENDBRANCH   1  17
TORSDOF 2
ENDMDL
MODEL 3
REMARK VINA RESULT:      -6.6      1.883      3.594
REMARK  Name = 
REMARK  4 active torsions:
REMARK  status: ('A' for Active; 'I' for Inactive)
REMARK    1  A    between atoms: C_1  and  C_2
REMARK    2  A    between atoms: C_2  and  C_4
REMARK    3  A    between atoms: C_5  and  C_6
REMARK    4  A    between atoms: C_11  and  C_12
REMARK                            x       y       z     vdW  Elec       q    Type
REMARK                         _______ _______ _______ _____ _____    ______ ____
ROOT
ATOM      1  C   UNL     1       3.227   4.828  19.355  0.00  0.00    +0.000 C 
ATOM      2  C   UNL     1       2.552   3.798  19.927  0.00  0.00    +0.000 C 
ATOM      3  C   UNL     1       1.086   3.687  20.265  0.00  0.00    +0.000 C 
ATOM      4  N   UNL     1       3.264   2.673  20.300  0.00  0.00    +0.000 N 
ATOM      5  C   UNL     1       4.572   2.426  20.027  0.00  0.00    +0.000 C 
ATOM      6  O   UNL     1       5.130   1.393  20.369  0.00  0.00    +0.000 OA
ATOM      7  N   UNL     1       5.212   3.380  19.314  0.00  0.00    +0.000 N 
ATOM      8  C   UNL     1       4.714   4.722  19.115  0.00  0.00    +0.000 C 
ATOM      9  H   UNL     1       2.795   1.915  20.782  0.00  0.00    +0.000 HD
ATOM     10  H   UNL     1       6.182   3.175  19.115  0.00  0.00    +0.000 HD
ENDROOT
BRANCH   8  11
ATOM     11  C   UNL     1       5.197   5.110  17.752  0.00  0.00    +0.000 A 
ATOM     12  C   UNL     1       4.878   4.459  16.517  0.00  0.00    +0.000 A 
ATOM     13  C   UNL     1       5.517   5.162  15.525  0.00  0.00    +0.000 A 
ATOM     14  O   UNL     1       6.232   6.184  16.057  0.00  0.00    +0.000 OA
ATOM     15  C   UNL     1       6.034   6.153  17.399  0.00  0.00    +0.000 A 
ENDBRANCH   8  11
BRANCH   1  17
ATOM     16  C   UNL     1       2.185   7.100  20.131  0.00  0.00    +0.000 C 
ATOM     17  C   UNL     1       2.527   6.127  19.026  0.00  0.00    +0.000 C 
ATOM     18  O   UNL     1       2.166   6.405  17.884  0.00  0.00    +0.000 OA
ENDBRANCH   1  17
TORSDOF 2
ENDMDL
MODEL 4
REMARK VINA RESULT:      -6.5      2.086      3.701
REMARK  Name = 
REMARK  4 active torsions:
REMARK  status: ('A' for Active; 'I' for Inactive)
REMARK    1  A    between atoms: C_1  and  C_2
REMARK    2  A    between atoms: C_2  and  C_4
REMARK    3  A    between atoms: C_5  and  C_6
REMARK    4  A    between atoms: C_11  and  C_12
REMARK                            x       y       z     vdW  Elec       q    Type
REMARK                         _______ _______ _______ _____ _____    ______ ____
ROOT
ATOM      1  C   UNL     1       3.189   4.596  19.373  0.00  0.00    +0.000 C 
ATOM      2  C   UNL     1       2.588   3.643  20.130  0.00  0.00    +0.000 C 
ATOM      3  C   UNL     1       1.158   3.563  20.606  0.00  0.00    +0.000 C 
ATOM      4  N   UNL     1       3.352   2.583  20.582  0.00  0.00    +0.000 N 
ATOM      5  C   UNL     1       4.637   2.316  20.230  0.00  0.00    +0.000 C 
ATOM      6  O   UNL     1       5.244   1.342  20.653  0.00  0.00    +0.000 OA
ATOM      7  N   UNL     1       5.194   3.175  19.347  0.00  0.00    +0.000 N 
ATOM      8  C   UNL     1       4.652   4.475  19.021  0.00  0.00    +0.000 C 
ATOM      9  H   UNL     1       2.941   1.890  21.197  0.00  0.00    +0.000 HD
ATOM     10  H   UNL     1       6.147   2.955  19.093  0.00  0.00    +0.000 HD
ENDROOT
BRANCH   8  11
ATOM     11  C   UNL     1       5.010   4.686  17.582  0.00  0.00    +0.000 A 
ATOM     12  C   UNL     1       5.580   5.868  17.010  0.00  0.00    +0.000 A 
ATOM     13  C   UNL     1       5.762   5.610  15.673  0.00  0.00    +0.000 A 
ATOM     14  O   UNL     1       5.319   4.365  15.369  0.00  0.00    +0.000 OA
ATOM     15  C   UNL     1       4.870   3.808  16.522  0.00  0.00    +0.000 A 
ENDBRANCH   8  11
BRANCH   1  17
ATOM     16  C   UNL     1       2.283   6.995  19.898  0.00  0.00    +0.000 C 
ATOM     17  C   UNL     1       2.436   5.835  18.942  0.00  0.00    +0.000 C 
ATOM     18  O   UNL     1       1.883   5.916  17.847  0.00  0.00    +0.000 OA
ENDBRANCH   1  17
TORSDOF 2
ENDMDL
MODEL 5
REMARK VINA RESULT:      -6.5      1.192      1.284
REMARK  Name = 
REMARK  4 active torsions:
REMARK  status: ('A' for Active; 'I' for Inactive)
REMARK    1  A    between atoms: C_1  and  C_2
REMARK    2  A    between atoms: C_2  and  C_4
REMARK    3  A    between atoms: C_5  and  C_6
REMARK    4  A    between atoms: C_11  and  C_12
REMARK                            x       y       z     vdW  Elec       q    Type
REMARK                         _______ _______ _______ _____ _____    ______ ____
ROOT
ATOM      1  C   UNL     1       3.549   4.267  18.884  0.00  0.00    +0.000 C 
ATOM      2  C   UNL     1       2.832   4.943  19.818  0.00  0.00    +0.000 C 
ATOM      3  C   UNL     1       2.353   4.483  21.173  0.00  0.00    +0.000 C 
ATOM      4  N   UNL     1       2.430   6.234  19.529  0.00  0.00    +0.000 N 
ATOM      5  C   UNL     1       2.798   6.964  18.444  0.00  0.00    +0.000 C 
ATOM      6  O   UNL     1       2.420   8.113  18.267  0.00  0.00    +0.000 OA
ATOM      7  N   UNL     1       3.645   6.351  17.586  0.00  0.00    +0.000 N 
ATOM      8  C   UNL     1       3.913   4.931  17.578  0.00  0.00    +0.000 C 
ATOM      9  H   UNL     1       1.843   6.739  20.184  0.00  0.00    +0.000 HD
ATOM     10  H   UNL     1       3.913   6.913  16.789  0.00  0.00    +0.000 HD
ENDROOT
BRANCH   8  11
ATOM     11  C   UNL     1       5.343   4.815  17.148  0.00  0.00    +0.000 A 
ATOM     12  C   UNL     1       5.815   4.416  15.856  0.00  0.00    +0.000 A 
ATOM     13  C   UNL     1       7.186   4.475  15.904  0.00  0.00    +0.000 A 
ATOM     14  O   UNL     1       7.599   4.853  17.139  0.00  0.00    +0.000 OA
ATOM     15  C   UNL     1       6.487   5.062  17.886  0.00  0.00    +0.000 A 
ENDBRANCH   8  11
BRANCH   1  17
ATOM     16  C   UNL     1       3.156   1.729  18.376  0.00  0.00    +0.000 C 
ATOM     17  C   UNL     1       3.923   2.817  19.093  0.00  0.00    +0.000 C 
ATOM     18  O   UNL     1       4.803   2.475  19.881  0.00  0.00    +0.000 OA
ENDBRANCH   1  17
TORSDOF 2
ENDMDL
MODEL 6
REMARK VINA RESULT:      -6.4      2.628      5.278
REMARK  Name = 
REMARK  4 active torsions:
REMARK  status: ('A' for Active; 'I' for Inactive)
REMARK    1  A    between atoms: C_1  and  C_2
REMARK    2  A    between atoms: C_2  and  C_4
REMARK    3  A    between atoms: C_5  and  C_6
REMARK    4  A    between atoms: C_11  and  C_12
REMARK                            x       y       z     vdW  Elec       q    Type
REMARK                         _______ _______ _______ _____ _____    ______ ____
ROOT
ATOM      1  C   UNL     1       6.346   5.757  17.113  0.00  0.00    +0.000 C 
ATOM      2  C   UNL     1       7.211   6.655  17.650  0.00  0.00    +0.000 C 
ATOM      3  C   UNL     1       7.727   7.949  17.071  0.00  0.00    +0.000 C 
ATOM      4  N   UNL     1       7.751   6.383  18.893  0.00  0.00    +0.000 N 
ATOM      5  C   UNL     1       7.399   5.359  19.714  0.00  0.00    +0.000 C 
ATOM      6  O   UNL     1       7.906   5.195  20.815  0.00  0.00    +0.000 OA
ATOM      7  N   UNL     1       6.419   4.549  19.252  0.00  0.00    +0.000 N 
ATOM      8  C   UNL     1       5.973   4.510  17.878  0.00  0.00    +0.000 C 
ATOM      9  H   UNL     1       8.445   7.007  19.290  0.00  0.00    +0.000 HD
ATOM     10  H   UNL     1       6.166   3.798  19.879  0.00  0.00    +0.000 HD
ENDROOT
BRANCH   8  11
ATOM     11  C   UNL     1       4.512   4.192  17.960  0.00  0.00    +0.000 A 
ATOM     12  C   UNL     1       3.480   5.047  18.465  0.00  0.00    +0.000 A 
ATOM     13  C   UNL     1       2.298   4.362  18.327  0.00  0.00    +0.000 A 
ATOM     14  O   UNL     1       2.525   3.133  17.801  0.00  0.00    +0.000 OA
ATOM     15  C   UNL     1       3.859   3.034  17.576  0.00  0.00    +0.000 A 
ENDBRANCH   8  11
BRANCH   1  17
ATOM     16  C   UNL     1       6.218   4.986  14.615  0.00  0.00    +0.000 C 
ATOM     17  C   UNL     1       5.807   5.941  15.712  0.00  0.00    +0.000 C 
ATOM     18  O   UNL     1       5.081   6.886  15.409  0.00  0.00    +0.000 OA
ENDBRANCH   1  17
TORSDOF 2
ENDMDL
MODEL 7
REMARK VINA RESULT:      -6.4      1.924      4.354
REMARK  Name = 
REMARK  4 active torsions:
REMARK  status: ('A' for Active; 'I' for Inactive)
REMARK    1  A    between atoms: C_1  and  C_2
REMARK    2  A    between atoms: C_2  and  C_4
REMARK    3  A    between atoms: C_5  and  C_6
REMARK    4  A    between atoms: C_11  and  C_12
REMARK                            x       y       z     vdW  Elec       q    Type
REMARK                         _______ _______ _______ _____ _____    ______ ____
ROOT
ATOM      1  C   UNL     1       4.015   5.560  18.497  0.00  0.00    +0.000 C 
ATOM      2  C   UNL     1       4.062   6.530  17.548  0.00  0.00    +0.000 C 
ATOM      3  C   UNL     1       4.873   6.584  16.277  0.00  0.00    +0.000 C 
ATOM      4  N   UNL     1       3.298   7.668  17.732  0.00  0.00    +0.000 N 
ATOM      5  C   UNL     1       2.382   7.866  18.716  0.00  0.00    +0.000 C 
ATOM      6  O   UNL     1       1.724   8.894  18.802  0.00  0.00    +0.000 OA
ATOM      7  N   UNL     1       2.212   6.836  19.576  0.00  0.00    +0.000 N 
ATOM      8  C   UNL     1       3.126   5.724  19.707  0.00  0.00    +0.000 C 
ATOM      9  H   UNL     1       3.361   8.431  17.069  0.00  0.00    +0.000 HD
ATOM     10  H   UNL     1       1.522   7.001  20.296  0.00  0.00    +0.000 HD
ENDROOT
BRANCH   8  11
ATOM     11  C   UNL     1       2.256   4.556  20.057  0.00  0.00    +0.000 A 
ATOM     12  C   UNL     1       2.235   3.852  21.303  0.00  0.00    +0.000 A 
ATOM     13  C   UNL     1       1.275   2.876  21.187  0.00  0.00    +0.000 A 
ATOM     14  O   UNL     1       0.721   2.905  19.951  0.00  0.00    +0.000 OA
ATOM     15  C   UNL     1       1.310   3.921  19.272  0.00  0.00    +0.000 A 
ENDBRANCH   8  11
BRANCH   1  17
ATOM     16  C   UNL     1       4.528   3.192  17.508  0.00  0.00    +0.000 C 
ATOM     17  C   UNL     1       4.908   4.344  18.409  0.00  0.00    +0.000 C 
ATOM     18  O   UNL     1       5.921   4.225  19.097  0.00  0.00    +0.000 OA
ENDBRANCH   1  17
TORSDOF 2
ENDMDL
MODEL 8
REMARK VINA RESULT:      -6.3      1.363      1.432
REMARK  Name = 
REMARK  4 active torsions:
REMARK  status: ('A' for Active; 'I' for Inactive)
REMARK    1  A    between atoms: C_1  and  C_2
REMARK    2  A    between atoms: C_2  and  C_4
REMARK    3  A    between atoms: C_5  and  C_6
REMARK    4  A    between atoms: C_11  and  C_12
REMARK                            x       y       z     vdW  Elec       q    Type
REMARK                         _______ _______ _______ _____ _____    ______ ____
ROOT
ATOM      1  C   UNL     1       2.666   3.905  18.762  0.00  0.00    +0.000 C 
ATOM      2  C   UNL     1       1.833   4.165  19.802  0.00  0.00    +0.000 C 
ATOM      3  C   UNL     1       0.994   3.211  20.616  0.00  0.00    +0.000 C 
ATOM      4  N   UNL     1       1.667   5.479  20.199  0.00  0.00    +0.000 N 
ATOM      5  C   UNL     1       2.368   6.549  19.739  0.00  0.00    +0.000 C 
ATOM      6  O   UNL     1       2.183   7.684  20.157  0.00  0.00    +0.000 OA
ATOM      7  N   UNL     1       3.316   6.275  18.815  0.00  0.00    +0.000 N 
ATOM      8  C   UNL     1       3.407   5.032  18.082  0.00  0.00    +0.000 C 
ATOM      9  H   UNL     1       1.006   5.706  20.934  0.00  0.00    +0.000 HD
ATOM     10  H   UNL     1       3.831   7.082  18.490  0.00  0.00    +0.000 HD
ENDROOT
BRANCH   8  11
ATOM     11  C   UNL     1       4.873   4.826  17.861  0.00  0.00    +0.000 A 
ATOM     12  C   UNL     1       5.536   4.700  16.598  0.00  0.00    +0.000 A 
ATOM     13  C   UNL     1       6.874   4.551  16.869  0.00  0.00    +0.000 A 
ATOM     14  O   UNL     1       7.086   4.546  18.208  0.00  0.00    +0.000 OA
ATOM     15  C   UNL     1       5.879   4.717  18.804  0.00  0.00    +0.000 A 
ENDBRANCH   8  11
BRANCH   1  17
ATOM     16  C   UNL     1       3.737   1.520  18.875  0.00  0.00    +0.000 C 
ATOM     17  C   UNL     1       2.804   2.505  18.209  0.00  0.00    +0.000 C 
ATOM     18  O   UNL     1       2.222   2.145  17.187  0.00  0.00    +0.000 OA
ENDBRANCH   1  17
TORSDOF 2
ENDMDL
MODEL 9
REMARK VINA RESULT:      -6.2      1.632      1.917
REMARK  Name = 
REMARK  4 active torsions:
REMARK  status: ('A' for Active; 'I' for Inactive)
REMARK    1  A    between atoms: C_1  and  C_2
REMARK    2  A    between atoms: C_2  and  C_4
REMARK    3  A    between atoms: C_5  and  C_6
REMARK    4  A    between atoms: C_11  and  C_12
REMARK                            x       y       z     vdW  Elec       q    Type
REMARK                         _______ _______ _______ _____ _____    ______ ____
ROOT
ATOM      1  C   UNL     1       3.579   4.995  18.703  0.00  0.00    +0.000 C 
ATOM      2  C   UNL     1       2.755   5.419  19.695  0.00  0.00    +0.000 C 
ATOM      3  C   UNL     1       2.321   4.699  20.948  0.00  0.00    +0.000 C 
ATOM      4  N   UNL     1       2.180   6.671  19.583  0.00  0.00    +0.000 N 
ATOM      5  C   UNL     1       2.462   7.599  18.631  0.00  0.00    +0.000 C 
ATOM      6  O   UNL     1       1.928   8.700  18.609  0.00  0.00    +0.000 OA
ATOM      7  N   UNL     1       3.404   7.245  17.728  0.00  0.00    +0.000 N 
ATOM      8  C   UNL     1       3.870   5.892  17.523  0.00  0.00    +0.000 C 
ATOM      9  H   UNL     1       1.515   6.987  20.280  0.00  0.00    +0.000 HD
ATOM     10  H   UNL     1       3.604   7.951  17.032  0.00  0.00    +0.000 HD
ENDROOT
BRANCH   8  11
ATOM     11  C   UNL     1       5.309   6.039  17.138  0.00  0.00    +0.000 A 
ATOM     12  C   UNL     1       6.347   6.630  17.929  0.00  0.00    +0.000 A 
ATOM     13  C   UNL     1       7.505   6.528  17.197  0.00  0.00    +0.000 A 
ATOM     14  O   UNL     1       7.256   5.944  16.000  0.00  0.00    +0.000 OA
ATOM     15  C   UNL     1       5.933   5.645  15.968  0.00  0.00    +0.000 A 
ENDBRANCH   8  11
BRANCH   1  17
ATOM     16  C   UNL     1       3.475   2.500  17.919  0.00  0.00    +0.000 C 
ATOM     17  C   UNL     1       4.150   3.596  18.712  0.00  0.00    +0.000 C 
ATOM     18  O   UNL     1       5.125   3.292  19.397  0.00  0.00    +0.000 OA
ENDBRANCH   1  17
TORSDOF 2
ENDMDL
