MODEL 1
REMARK VINA RESULT:      -8.5      0.000      0.000
REMARK  Name = 
REMARK  5 active torsions:
REMARK  status: ('A' for Active; 'I' for Inactive)
REMARK    1  A    between atoms: C_1  and  C_2
REMARK    2  A    between atoms: C_4  and  C_5
REMARK    3  A    between atoms: C_11  and  C_12
REMARK    4  A    between atoms: C_15  and  O_16
REMARK    5  A    between atoms: O_16  and  C_17
REMARK                            x       y       z     vdW  Elec       q    Type
REMARK                         _______ _______ _______ _____ _____    ______ ____
ROOT
ATOM      1  C   UNL     1      -0.052  13.138  19.211  0.00  0.00    +0.000 C 
ATOM      2  C   UNL     1       0.147  11.852  19.915  0.00  0.00    +0.000 A 
ATOM      3  N   UNL     1      -0.358  11.660  21.177  0.00  0.00    +0.000 NA
ATOM      4  C   UNL     1      -0.022  10.422  21.527  0.00  0.00    +0.000 A 
ATOM      5  N   UNL     1       0.696   9.801  20.525  0.00  0.00    +0.000 N 
ATOM      6  C   UNL     1       1.249   8.518  20.449  0.00  0.00    +0.000 A 
ATOM      7  C   UNL     1       1.909   8.135  19.336  0.00  0.00    +0.000 A 
ATOM      8  C   UNL     1       2.023   9.092  18.236  0.00  0.00    +0.000 A 
ATOM      9  C   UNL     1       1.491  10.327  18.308  0.00  0.00    +0.000 A 
ATOM     10  C   UNL     1       0.798  10.720  19.485  0.00  0.00    +0.000 A 
ENDROOT
BRANCH   7  11
ATOM     11  C   UNL     1       2.453   6.772  19.282  0.00  0.00    +0.000 A 
ATOM     12  C   UNL     1       3.337   6.416  18.261  0.00  0.00    +0.000 A 
ATOM     13  C   UNL     1       3.820   5.108  18.180  0.00  0.00    +0.000 A 
ATOM     14  C   UNL     1       3.442   4.144  19.120  0.00  0.00    +0.000 A 
ATOM     15  C   UNL     1       2.549   4.495  20.131  0.00  0.00    +0.000 A 
ATOM     16  C   UNL     1       2.070   5.809  20.222  0.00  0.00    +0.000 A 
BRANCH  14  17
ATOM     17  O   UNL     1       3.971   2.912  18.893  0.00  0.00    +0.000 OA
BRANCH  17  18
ATOM     18  C   UNL     1       3.143   1.844  18.467  0.00  0.00    +0.000 C 
ATOM     19  F   UNL     1       2.527   2.057  17.285  0.00  0.00    +0.000 F 
ATOM     20  F   UNL     1       3.876   0.712  18.380  0.00  0.00    +0.000 F 
ATOM     21  F   UNL     1       2.184   1.652  19.401  0.00  0.00    +0.000 F 
ENDBRANCH  17  18
ENDBRANCH  14  17
ENDBRANCH   7  11
BRANCH   4  22
ATOM     22  C   UNL     1      -0.334   9.721  22.801  0.00  0.00    +0.000 C 
ATOM     23  F   UNL     1      -0.950   8.525  22.619  0.00  0.00    +0.000 F 
ATOM     24  F   UNL     1       0.789   9.472  23.529  0.00  0.00    +0.000 F 
ATOM     25  F   UNL     1      -1.150  10.460  23.600  0.00  0.00    +0.000 F 
ENDBRANCH   4  22
TORSDOF 4
ENDMDL
MODEL 2
REMARK VINA RESULT:      -8.2      0.422      1.134
REMARK  Name = 
REMARK  5 active torsions:
REMARK  status: ('A' for Active; 'I' for Inactive)
REMARK    1  A    between atoms: C_1  and  C_2
REMARK    2  A    between atoms: C_4  and  C_5
REMARK    3  A    between atoms: C_11  and  C_12
REMARK    4  A    between atoms: C_15  and  O_16
REMARK    5  A    between atoms: O_16  and  C_17
REMARK                            x       y       z     vdW  Elec       q    Type
REMARK                         _______ _______ _______ _____ _____    ______ ____
ROOT
ATOM      1  C   UNL     1      -0.004  13.273  19.328  0.00  0.00    +0.000 C 
ATOM      2  C   UNL     1       0.172  11.955  19.977  0.00  0.00    +0.000 A 
ATOM      3  N   UNL     1      -0.339  11.717  21.228  0.00  0.00    +0.000 NA
ATOM      4  C   UNL     1      -0.026  10.460  21.526  0.00  0.00    +0.000 A 
ATOM      5  N   UNL     1       0.683   9.869  20.498  0.00  0.00    +0.000 N 
ATOM      6  C   UNL     1       1.213   8.581  20.368  0.00  0.00    +0.000 A 
ATOM      7  C   UNL     1       1.869   8.235  19.240  0.00  0.00    +0.000 A 
ATOM      8  C   UNL     1       2.001   9.236  18.182  0.00  0.00    +0.000 A 
ATOM      9  C   UNL     1       1.491  10.476  18.307  0.00  0.00    +0.000 A 
ATOM     10  C   UNL     1       0.803  10.830  19.499  0.00  0.00    +0.000 A 
ENDROOT
BRANCH   7  11
ATOM     11  C   UNL     1       2.389   6.866  19.128  0.00  0.00    +0.000 A 
ATOM     12  C   UNL     1       2.146   5.944  20.148  0.00  0.00    +0.000 A 
ATOM     13  C   UNL     1       2.678   4.655  20.065  0.00  0.00    +0.000 A 
ATOM     14  C   UNL     1       3.442   4.264  18.961  0.00  0.00    +0.000 A 
ATOM     15  C   UNL     1       3.696   5.188  17.949  0.00  0.00    +0.000 A 
ATOM     16  C   UNL     1       3.156   6.479  18.024  0.00  0.00    +0.000 A 
BRANCH  14  17
ATOM     17  O   UNL     1       3.913   2.990  19.037  0.00  0.00    +0.000 OA
BRANCH  17  18
ATOM     18  C   UNL     1       3.523   2.024  18.076  0.00  0.00    +0.000 C 
ATOM     19  F   UNL     1       2.228   2.099  17.706  0.00  0.00    +0.000 F 
ATOM     20  F   UNL     1       4.300   2.145  16.976  0.00  0.00    +0.000 F 
ATOM     21  F   UNL     1       3.730   0.795  18.601  0.00  0.00    +0.000 F 
ENDBRANCH  17  18
ENDBRANCH  14  17
ENDBRANCH   7  11
BRANCH   4  22
ATOM     22  C   UNL     1      -0.352   9.710  22.767  0.00  0.00    +0.000 C 
ATOM     23  F   UNL     1      -0.946   8.512  22.532  0.00  0.00    +0.000 F 
ATOM     24  F   UNL     1       0.760   9.452  23.509  0.00  0.00    +0.000 F 
ATOM     25  F   UNL     1      -1.195  10.409  23.575  0.00  0.00    +0.000 F 
ENDBRANCH   4  22
TORSDOF 4
ENDMDL
MODEL 3
REMARK VINA RESULT:      -8.2      3.909      5.903
REMARK  Name = 
REMARK  5 active torsions:
REMARK  status: ('A' for Active; 'I' for Inactive)
REMARK    1  A    between atoms: C_1  and  C_2
REMARK    2  A    between atoms: C_4  and  C_5
REMARK    3  A    between atoms: C_11  and  C_12
REMARK    4  A    between atoms: C_15  and  O_16
REMARK    5  A    between atoms: O_16  and  C_17
REMARK                            x       y       z     vdW  Elec       q    Type
REMARK                         _______ _______ _______ _____ _____    ______ ____
ROOT
ATOM      1  C   UNL     1       0.887   8.410  21.214  0.00  0.00    +0.000 C 
ATOM      2  C   UNL     1       1.483   7.181  20.646  0.00  0.00    +0.000 A 
ATOM      3  N   UNL     1       1.273   5.962  21.241  0.00  0.00    +0.000 NA
ATOM      4  C   UNL     1       1.924   5.070  20.501  0.00  0.00    +0.000 A 
ATOM      5  N   UNL     1       2.560   5.678  19.437  0.00  0.00    +0.000 N 
ATOM      6  C   UNL     1       3.351   5.146  18.413  0.00  0.00    +0.000 A 
ATOM      7  C   UNL     1       3.862   5.961  17.466  0.00  0.00    +0.000 A 
ATOM      8  C   UNL     1       3.562   7.390  17.549  0.00  0.00    +0.000 A 
ATOM      9  C   UNL     1       2.802   7.902  18.535  0.00  0.00    +0.000 A 
ATOM     10  C   UNL     1       2.270   7.035  19.528  0.00  0.00    +0.000 A 
ENDROOT
BRANCH   7  11
ATOM     11  C   UNL     1       4.665   5.364  16.391  0.00  0.00    +0.000 A 
ATOM     12  C   UNL     1       4.844   3.980  16.342  0.00  0.00    +0.000 A 
ATOM     13  C   UNL     1       5.645   3.414  15.348  0.00  0.00    +0.000 A 
ATOM     14  C   UNL     1       6.262   4.215  14.382  0.00  0.00    +0.000 A 
ATOM     15  C   UNL     1       6.095   5.597  14.437  0.00  0.00    +0.000 A 
ATOM     16  C   UNL     1       5.284   6.168  15.428  0.00  0.00    +0.000 A 
BRANCH  14  17
ATOM     17  O   UNL     1       7.031   3.523  13.498  0.00  0.00    +0.000 OA
BRANCH  17  18
ATOM     18  C   UNL     1       6.709   3.520  12.118  0.00  0.00    +0.000 C 
ATOM     19  F   UNL     1       5.385   3.515  11.857  0.00  0.00    +0.000 F 
ATOM     20  F   UNL     1       7.268   4.597  11.523  0.00  0.00    +0.000 F 
ATOM     21  F   UNL     1       7.242   2.409  11.560  0.00  0.00    +0.000 F 
ENDBRANCH  17  18
ENDBRANCH  14  17
ENDBRANCH   7  11
BRANCH   4  22
ATOM     22  C   UNL     1       2.010   3.601  20.714  0.00  0.00    +0.000 C 
ATOM     23  F   UNL     1       1.455   3.193  21.884  0.00  0.00    +0.000 F 
ATOM     24  F   UNL     1       1.379   2.909  19.725  0.00  0.00    +0.000 F 
ATOM     25  F   UNL     1       3.298   3.163  20.722  0.00  0.00    +0.000 F 
ENDBRANCH   4  22
TORSDOF 4
ENDMDL
MODEL 4
REMARK VINA RESULT:      -8.0      3.203      7.835
REMARK  Name = 
REMARK  5 active torsions:
REMARK  status: ('A' for Active; 'I' for Inactive)
REMARK    1  A    between atoms: C_1  and  C_2
REMARK    2  A    between atoms: C_4  and  C_5
REMARK    3  A    between atoms: C_11  and  C_12
REMARK    4  A    between atoms: C_15  and  O_16
REMARK    5  A    between atoms: O_16  and  C_17
REMARK                            x       y       z     vdW  Elec       q    Type
REMARK                         _______ _______ _______ _____ _____    ______ ____
ROOT
ATOM      1  C   UNL     1       6.518   4.357  14.846  0.00  0.00    +0.000 C 
ATOM      2  C   UNL     1       5.494   4.329  15.913  0.00  0.00    +0.000 A 
ATOM      3  N   UNL     1       5.074   3.138  16.449  0.00  0.00    +0.000 NA
ATOM      4  C   UNL     1       4.169   3.443  17.374  0.00  0.00    +0.000 A 
ATOM      5  N   UNL     1       3.984   4.809  17.453  0.00  0.00    +0.000 N 
ATOM      6  C   UNL     1       3.145   5.578  18.268  0.00  0.00    +0.000 A 
ATOM      7  C   UNL     1       3.152   6.923  18.160  0.00  0.00    +0.000 A 
ATOM      8  C   UNL     1       4.051   7.534  17.181  0.00  0.00    +0.000 A 
ATOM      9  C   UNL     1       4.858   6.795  16.396  0.00  0.00    +0.000 A 
ATOM     10  C   UNL     1       4.841   5.379  16.517  0.00  0.00    +0.000 A 
ENDROOT
BRANCH   7  11
ATOM     11  C   UNL     1       2.279   7.699  19.051  0.00  0.00    +0.000 A 
ATOM     12  C   UNL     1       1.804   8.947  18.644  0.00  0.00    +0.000 A 
ATOM     13  C   UNL     1       1.011   9.708  19.507  0.00  0.00    +0.000 A 
ATOM     14  C   UNL     1       0.670   9.229  20.775  0.00  0.00    +0.000 A 
ATOM     15  C   UNL     1       1.155   7.989  21.188  0.00  0.00    +0.000 A 
ATOM     16  C   UNL     1       1.942   7.219  20.321  0.00  0.00    +0.000 A 
BRANCH  14  17
ATOM     17  O   UNL     1      -0.083  10.093  21.509  0.00  0.00    +0.000 OA
BRANCH  17  18
ATOM     18  C   UNL     1      -0.563   9.716  22.788  0.00  0.00    +0.000 C 
ATOM     19  F   UNL     1      -1.441  10.585  23.330  0.00  0.00    +0.000 F 
ATOM     20  F   UNL     1      -1.144   8.498  22.710  0.00  0.00    +0.000 F 
ATOM     21  F   UNL     1       0.494   9.623  23.627  0.00  0.00    +0.000 F 
ENDBRANCH  17  18
ENDBRANCH  14  17
ENDBRANCH   7  11
BRANCH   4  22
ATOM     22  C   UNL     1       3.413   2.510  18.250  0.00  0.00    +0.000 C 
ATOM     23  F   UNL     1       3.588   1.204  17.923  0.00  0.00    +0.000 F 
ATOM     24  F   UNL     1       3.779   2.635  19.556  0.00  0.00    +0.000 F 
ATOM     25  F   UNL     1       2.074   2.746  18.206  0.00  0.00    +0.000 F 
ENDBRANCH   4  22
TORSDOF 4
ENDMDL
MODEL 5
REMARK VINA RESULT:      -8.0      3.262      7.850
REMARK  Name = 
REMARK  5 active torsions:
REMARK  status: ('A' for Active; 'I' for Inactive)
REMARK    1  A    between atoms: C_1  and  C_2
REMARK    2  A    between atoms: C_4  and  C_5
REMARK    3  A    between atoms: C_11  and  C_12
REMARK    4  A    between atoms: C_15  and  O_16
REMARK    5  A    between atoms: O_16  and  C_17
REMARK                            x       y       z     vdW  Elec       q    Type
REMARK                         _______ _______ _______ _____ _____    ______ ____
ROOT
ATOM      1  C   UNL     1       4.544   3.793  16.792  0.00  0.00    +0.000 C 
ATOM      2  C   UNL     1       3.713   4.186  17.950  0.00  0.00    +0.000 A 
ATOM      3  N   UNL     1       3.285   3.248  18.856  0.00  0.00    +0.000 NA
ATOM      4  C   UNL     1       2.576   3.906  19.767  0.00  0.00    +0.000 A 
ATOM      5  N   UNL     1       2.526   5.255  19.477  0.00  0.00    +0.000 N 
ATOM      6  C   UNL     1       1.904   6.317  20.143  0.00  0.00    +0.000 A 
ATOM      7  C   UNL     1       2.011   7.571  19.655  0.00  0.00    +0.000 A 
ATOM      8  C   UNL     1       2.785   7.773  18.431  0.00  0.00    +0.000 A 
ATOM      9  C   UNL     1       3.383   6.752  17.789  0.00  0.00    +0.000 A 
ATOM     10  C   UNL     1       3.263   5.435  18.311  0.00  0.00    +0.000 A 
ENDROOT
BRANCH   7  11
ATOM     11  C   UNL     1       1.368   8.664  20.396  0.00  0.00    +0.000 A 
ATOM     12  C   UNL     1       1.115   9.881  19.758  0.00  0.00    +0.000 A 
ATOM     13  C   UNL     1       0.546  10.938  20.472  0.00  0.00    +0.000 A 
ATOM     14  C   UNL     1       0.208  10.792  21.822  0.00  0.00    +0.000 A 
ATOM     15  C   UNL     1       0.474   9.583  22.462  0.00  0.00    +0.000 A 
ATOM     16  C   UNL     1       1.035   8.517  21.746  0.00  0.00    +0.000 A 
BRANCH  14  17
ATOM     17  O   UNL     1      -0.310  11.916  22.387  0.00  0.00    +0.000 OA
BRANCH  17  18
ATOM     18  C   UNL     1      -1.700  12.008  22.653  0.00  0.00    +0.000 C 
ATOM     19  F   UNL     1      -2.148  11.129  23.573  0.00  0.00    +0.000 F 
ATOM     20  F   UNL     1      -1.998  13.261  23.063  0.00  0.00    +0.000 F 
ATOM     21  F   UNL     1      -2.369  11.775  21.500  0.00  0.00    +0.000 F 
ENDBRANCH  17  18
ENDBRANCH  14  17
ENDBRANCH   7  11
BRANCH   4  22
ATOM     22  C   UNL     1       1.897   3.350  20.967  0.00  0.00    +0.000 C 
ATOM     23  F   UNL     1       0.549   3.515  20.947  0.00  0.00    +0.000 F 
ATOM     24  F   UNL     1       2.122   2.014  21.102  0.00  0.00    +0.000 F 
ATOM     25  F   UNL     1       2.341   3.928  22.116  0.00  0.00    +0.000 F 
ENDBRANCH   4  22
TORSDOF 4
ENDMDL
MODEL 6
REMARK VINA RESULT:      -7.8      0.945      1.327
REMARK  Name = 
REMARK  5 active torsions:
REMARK  status: ('A' for Active; 'I' for Inactive)
REMARK    1  A    between atoms: C_1  and  C_2
REMARK    2  A    between atoms: C_4  and  C_5
REMARK    3  A    between atoms: C_11  and  C_12
REMARK    4  A    between atoms: C_15  and  O_16
REMARK    5  A    between atoms: O_16  and  C_17
REMARK                            x       y       z     vdW  Elec       q    Type
REMARK                         _______ _______ _______ _____ _____    ______ ____
ROOT
ATOM      1  C   UNL     1       0.631  13.147  19.120  0.00  0.00    +0.000 C 
ATOM      2  C   UNL     1       0.711  11.786  19.693  0.00  0.00    +0.000 A 
ATOM      3  N   UNL     1       0.198  11.520  20.938  0.00  0.00    +0.000 NA
ATOM      4  C   UNL     1       0.416  10.228  21.162  0.00  0.00    +0.000 A 
ATOM      5  N   UNL     1       1.065   9.642  20.093  0.00  0.00    +0.000 N 
ATOM      6  C   UNL     1       1.492   8.326  19.886  0.00  0.00    +0.000 A 
ATOM      7  C   UNL     1       2.107   7.993  18.731  0.00  0.00    +0.000 A 
ATOM      8  C   UNL     1       2.304   9.038  17.727  0.00  0.00    +0.000 A 
ATOM      9  C   UNL     1       1.893  10.304  17.926  0.00  0.00    +0.000 A 
ATOM     10  C   UNL     1       1.248  10.644  19.146  0.00  0.00    +0.000 A 
ENDROOT
BRANCH   7  11
ATOM     11  C   UNL     1       2.517   6.597  18.537  0.00  0.00    +0.000 A 
ATOM     12  C   UNL     1       3.831   6.213  18.814  0.00  0.00    +0.000 A 
ATOM     13  C   UNL     1       4.237   4.896  18.586  0.00  0.00    +0.000 A 
ATOM     14  C   UNL     1       3.338   3.943  18.097  0.00  0.00    +0.000 A 
ATOM     15  C   UNL     1       2.030   4.328  17.807  0.00  0.00    +0.000 A 
ATOM     16  C   UNL     1       1.617   5.647  18.044  0.00  0.00    +0.000 A 
BRANCH  14  17
ATOM     17  O   UNL     1       3.886   2.714  17.901  0.00  0.00    +0.000 OA
BRANCH  17  18
ATOM     18  C   UNL     1       3.606   1.654  18.799  0.00  0.00    +0.000 C 
ATOM     19  F   UNL     1       2.301   1.521  19.113  0.00  0.00    +0.000 F 
ATOM     20  F   UNL     1       4.051   0.490  18.275  0.00  0.00    +0.000 F 
ATOM     21  F   UNL     1       4.284   1.881  19.948  0.00  0.00    +0.000 F 
ENDBRANCH  17  18
ENDBRANCH  14  17
ENDBRANCH   7  11
BRANCH   4  22
ATOM     22  C   UNL     1       0.046   9.438  22.366  0.00  0.00    +0.000 C 
ATOM     23  F   UNL     1      -0.680  10.145  23.271  0.00  0.00    +0.000 F 
ATOM     24  F   UNL     1      -0.697   8.343  22.044  0.00  0.00    +0.000 F 
ATOM     25  F   UNL     1       1.142   8.974  23.026  0.00  0.00    +0.000 F 
ENDBRANCH   4  22
TORSDOF 4
ENDMDL
MODEL 7
REMARK VINA RESULT:      -7.8      3.268      8.073
REMARK  Name = 
REMARK  5 active torsions:
REMARK  status: ('A' for Active; 'I' for Inactive)
REMARK    1  A    between atoms: C_1  and  C_2
REMARK    2  A    between atoms: C_4  and  C_5
REMARK    3  A    between atoms: C_11  and  C_12
REMARK    4  A    between atoms: C_15  and  O_16
REMARK    5  A    between atoms: O_16  and  C_17
REMARK                            x       y       z     vdW  Elec       q    Type
REMARK                         _______ _______ _______ _____ _____    ______ ____
ROOT
ATOM      1  C   UNL     1       5.915   3.910  15.922  0.00  0.00    +0.000 C 
ATOM      2  C   UNL     1       4.775   4.137  16.837  0.00  0.00    +0.000 A 
ATOM      3  N   UNL     1       4.110   3.079  17.402  0.00  0.00    +0.000 NA
ATOM      4  C   UNL     1       3.157   3.603  18.167  0.00  0.00    +0.000 A 
ATOM      5  N   UNL     1       3.181   4.982  18.112  0.00  0.00    +0.000 N 
ATOM      6  C   UNL     1       2.380   5.942  18.742  0.00  0.00    +0.000 A 
ATOM      7  C   UNL     1       2.613   7.254  18.531  0.00  0.00    +0.000 A 
ATOM      8  C   UNL     1       3.711   7.628  17.640  0.00  0.00    +0.000 A 
ATOM      9  C   UNL     1       4.482   6.705  17.034  0.00  0.00    +0.000 A 
ATOM     10  C   UNL     1       4.227   5.325  17.262  0.00  0.00    +0.000 A 
ENDROOT
BRANCH   7  11
ATOM     11  C   UNL     1       1.770   8.233  19.229  0.00  0.00    +0.000 A 
ATOM     12  C   UNL     1       1.497   8.072  20.589  0.00  0.00    +0.000 A 
ATOM     13  C   UNL     1       0.658   8.975  21.245  0.00  0.00    +0.000 A 
ATOM     14  C   UNL     1       0.095  10.058  20.562  0.00  0.00    +0.000 A 
ATOM     15  C   UNL     1       0.356  10.212  19.201  0.00  0.00    +0.000 A 
ATOM     16  C   UNL     1       1.206   9.313  18.542  0.00  0.00    +0.000 A 
BRANCH  14  17
ATOM     17  O   UNL     1      -0.720  10.833  21.327  0.00  0.00    +0.000 OA
BRANCH  17  18
ATOM     18  C   UNL     1      -0.437  12.210  21.505  0.00  0.00    +0.000 C 
ATOM     19  F   UNL     1       0.875  12.520  21.454  0.00  0.00    +0.000 F 
ATOM     20  F   UNL     1      -1.094  12.929  20.567  0.00  0.00    +0.000 F 
ATOM     21  F   UNL     1      -0.902  12.585  22.719  0.00  0.00    +0.000 F 
ENDBRANCH  17  18
ENDBRANCH  14  17
ENDBRANCH   7  11
BRANCH   4  22
ATOM     22  C   UNL     1       2.160   2.882  19.001  0.00  0.00    +0.000 C 
ATOM     23  F   UNL     1       2.176   3.260  20.305  0.00  0.00    +0.000 F 
ATOM     24  F   UNL     1       0.889   3.080  18.555  0.00  0.00    +0.000 F 
ATOM     25  F   UNL     1       2.363   1.536  18.985  0.00  0.00    +0.000 F 
ENDBRANCH   4  22
TORSDOF 4
ENDMDL
MODEL 8
REMARK VINA RESULT:      -7.8      0.911      1.332
REMARK  Name = 
REMARK  5 active torsions:
REMARK  status: ('A' for Active; 'I' for Inactive)
REMARK    1  A    between atoms: C_1  and  C_2
REMARK    2  A    between atoms: C_4  and  C_5
REMARK    3  A    between atoms: C_11  and  C_12
REMARK    4  A    between atoms: C_15  and  O_16
REMARK    5  A    between atoms: O_16  and  C_17
REMARK                            x       y       z     vdW  Elec       q    Type
REMARK                         _______ _______ _______ _____ _____    ______ ____
ROOT
ATOM      1  C   UNL     1       0.517  13.170  19.109  0.00  0.00    +0.000 C 
ATOM      2  C   UNL     1       0.615  11.815  19.693  0.00  0.00    +0.000 A 
ATOM      3  N   UNL     1       0.108  11.552  20.941  0.00  0.00    +0.000 NA
ATOM      4  C   UNL     1       0.343  10.264  21.175  0.00  0.00    +0.000 A 
ATOM      5  N   UNL     1       0.997   9.679  20.108  0.00  0.00    +0.000 N 
ATOM      6  C   UNL     1       1.441   8.367  19.910  0.00  0.00    +0.000 A 
ATOM      7  C   UNL     1       2.056   8.033  18.757  0.00  0.00    +0.000 A 
ATOM      8  C   UNL     1       2.238   9.072  17.744  0.00  0.00    +0.000 A 
ATOM      9  C   UNL     1       1.812  10.335  17.934  0.00  0.00    +0.000 A 
ATOM     10  C   UNL     1       1.166  10.676  19.153  0.00  0.00    +0.000 A 
ENDROOT
BRANCH   7  11
ATOM     11  C   UNL     1       2.484   6.640  18.572  0.00  0.00    +0.000 A 
ATOM     12  C   UNL     1       3.767   6.248  18.963  0.00  0.00    +0.000 A 
ATOM     13  C   UNL     1       4.192   4.936  18.746  0.00  0.00    +0.000 A 
ATOM     14  C   UNL     1       3.344   3.995  18.154  0.00  0.00    +0.000 A 
ATOM     15  C   UNL     1       2.069   4.388  17.751  0.00  0.00    +0.000 A 
ATOM     16  C   UNL     1       1.634   5.702  17.976  0.00  0.00    +0.000 A 
BRANCH  14  17
ATOM     17  O   UNL     1       3.909   2.769  17.985  0.00  0.00    +0.000 OA
BRANCH  17  18
ATOM     18  C   UNL     1       3.664   1.733  18.920  0.00  0.00    +0.000 C 
ATOM     19  F   UNL     1       4.108   0.519  18.533  0.00  0.00    +0.000 F 
ATOM     20  F   UNL     1       4.234   2.050  20.104  0.00  0.00    +0.000 F 
ATOM     21  F   UNL     1       2.328   1.640  19.111  0.00  0.00    +0.000 F 
ENDBRANCH  17  18
ENDBRANCH  14  17
ENDBRANCH   7  11
BRANCH   4  22
ATOM     22  C   UNL     1      -0.014   9.480  22.386  0.00  0.00    +0.000 C 
ATOM     23  F   UNL     1       1.067   9.056  23.090  0.00  0.00    +0.000 F 
ATOM     24  F   UNL     1      -0.779  10.202  23.249  0.00  0.00    +0.000 F 
ATOM     25  F   UNL     1      -0.735   8.368  22.076  0.00  0.00    +0.000 F 
ENDBRANCH   4  22
TORSDOF 4
ENDMDL
MODEL 9
REMARK VINA RESULT:      -7.8      3.406      8.031
REMARK  Name = 
REMARK  5 active torsions:
REMARK  status: ('A' for Active; 'I' for Inactive)
REMARK    1  A    between atoms: C_1  and  C_2
REMARK    2  A    between atoms: C_4  and  C_5
REMARK    3  A    between atoms: C_11  and  C_12
REMARK    4  A    between atoms: C_15  and  O_16
REMARK    5  A    between atoms: O_16  and  C_17
REMARK                            x       y       z     vdW  Elec       q    Type
REMARK                         _______ _______ _______ _____ _____    ______ ____
ROOT
ATOM      1  C   UNL     1       4.635   4.490  16.617  0.00  0.00    +0.000 C 
ATOM      2  C   UNL     1       3.802   4.738  17.814  0.00  0.00    +0.000 A 
ATOM      3  N   UNL     1       3.507   3.720  18.685  0.00  0.00    +0.000 NA
ATOM      4  C   UNL     1       2.760   4.256  19.646  0.00  0.00    +0.000 A 
ATOM      5  N   UNL     1       2.557   5.603  19.421  0.00  0.00    +0.000 N 
ATOM      6  C   UNL     1       1.846   6.560  20.153  0.00  0.00    +0.000 A 
ATOM      7  C   UNL     1       1.802   7.838  19.723  0.00  0.00    +0.000 A 
ATOM      8  C   UNL     1       2.510   8.178  18.490  0.00  0.00    +0.000 A 
ATOM      9  C   UNL     1       3.194   7.257  17.785  0.00  0.00    +0.000 A 
ATOM     10  C   UNL     1       3.233   5.914  18.246  0.00  0.00    +0.000 A 
ENDROOT
BRANCH   7  11
ATOM     11  C   UNL     1       1.069   8.822  20.532  0.00  0.00    +0.000 A 
ATOM     12  C   UNL     1       1.023   8.684  21.921  0.00  0.00    +0.000 A 
ATOM     13  C   UNL     1       0.289   9.591  22.688  0.00  0.00    +0.000 A 
ATOM     14  C   UNL     1      -0.394  10.653  22.086  0.00  0.00    +0.000 A 
ATOM     15  C   UNL     1      -0.361  10.782  20.698  0.00  0.00    +0.000 A 
ATOM     16  C   UNL     1       0.384   9.880  19.926  0.00  0.00    +0.000 A 
BRANCH  14  17
ATOM     17  O   UNL     1      -1.085  11.433  22.959  0.00  0.00    +0.000 OA
BRANCH  17  18
ATOM     18  C   UNL     1      -1.154  12.836  22.767  0.00  0.00    +0.000 C 
ATOM     19  F   UNL     1       0.026  13.412  22.455  0.00  0.00    +0.000 F 
ATOM     20  F   UNL     1      -2.048  13.113  21.792  0.00  0.00    +0.000 F 
ATOM     21  F   UNL     1      -1.597  13.400  23.913  0.00  0.00    +0.000 F 
ENDBRANCH  17  18
ENDBRANCH  14  17
ENDBRANCH   7  11
BRANCH   4  22
ATOM     22  C   UNL     1       2.183   3.576  20.835  0.00  0.00    +0.000 C 
ATOM     23  F   UNL     1       2.470   4.203  22.005  0.00  0.00    +0.000 F 
ATOM     24  F   UNL     1       0.826   3.495  20.762  0.00  0.00    +0.000 F 
ATOM     25  F   UNL     1       2.634   2.299  20.959  0.00  0.00    +0.000 F 
ENDBRANCH   4  22
TORSDOF 4
ENDMDL
