MODEL 1
REMARK VINA RESULT:      -8.5      0.000      0.000
REMARK  Name = 
REMARK  8 active torsions:
REMARK  status: ('A' for Active; 'I' for Inactive)
REMARK    1  A    between atoms: C_1  and  C_2
REMARK    2  A    between atoms: C_4  and  N_5
REMARK    3  A    between atoms: C_6  and  C_8
REMARK    4  A    between atoms: C_10  and  C_11
REMARK    5  A    between atoms: N_13  and  C_14
REMARK    6  A    between atoms: C_16  and  O_17
REMARK    7  A    between atoms: O_17  and  C_18
REMARK    8  A    between atoms: C_25  and  C_27
REMARK                            x       y       z     vdW  Elec       q    Type
REMARK                         _______ _______ _______ _____ _____    ______ ____
ROOT
ATOM      1  C   UNL     1      -4.087  10.530  17.395  0.00  0.00    +0.000 C 
ATOM      2  C   UNL     1      -3.194  11.219  18.383  0.00  0.00    +0.000 A 
ATOM      3  C   UNL     1      -3.702  12.188  19.252  0.00  0.00    +0.000 A 
ATOM      4  C   UNL     1      -2.879  12.864  20.163  0.00  0.00    +0.000 A 
ATOM      5  C   UNL     1      -1.499  12.623  20.118  0.00  0.00    +0.000 A 
ATOM      6  C   UNL     1      -0.978  11.681  19.231  0.00  0.00    +0.000 A 
ATOM      7  C   UNL     1      -1.833  10.927  18.421  0.00  0.00    +0.000 A 
ENDROOT
BRANCH   4   8
ATOM      8  N   UNL     1      -3.387  13.786  21.112  0.00  0.00    +0.000 N 
ATOM      9  C   UNL     1      -3.922  13.441  22.346  0.00  0.00    +0.000 C 
ATOM     10  O   UNL     1      -3.960  12.287  22.764  0.00  0.00    +0.000 OA
ATOM     11  H   UNL     1      -3.239  14.765  20.927  0.00  0.00    +0.000 HD
BRANCH   9  12
ATOM     12  C   UNL     1      -4.427  14.532  23.157  0.00  0.00    +0.000 A 
ATOM     13  C   UNL     1      -3.806  15.500  23.925  0.00  0.00    +0.000 A 
ATOM     14  C   UNL     1      -4.844  16.304  24.452  0.00  0.00    +0.000 A 
ATOM     15  C   UNL     1      -4.751  17.501  25.317  0.00  0.00    +0.000 C 
ATOM     16  N   UNL     1      -6.044  15.866  24.063  0.00  0.00    +0.000 NA
ATOM     17  N   UNL     1      -5.777  14.800  23.292  0.00  0.00    +0.000 N 
ATOM     18  C   UNL     1      -6.880  14.084  22.693  0.00  0.00    +0.000 C 
ENDBRANCH   9  12
ENDBRANCH   4   8
BRANCH   6  19
ATOM     19  O   UNL     1       0.391  11.521  19.235  0.00  0.00    +0.000 OA
BRANCH  19  20
ATOM     20  C   UNL     1       0.967  10.258  19.306  0.00  0.00    +0.000 A 
ATOM     21  C   UNL     1       0.760   9.393  20.472  0.00  0.00    +0.000 A 
ATOM     22  C   UNL     1       1.353   8.189  20.575  0.00  0.00    +0.000 A 
ATOM     23  C   UNL     1       2.133   7.699  19.493  0.00  0.00    +0.000 A 
ATOM     24  N   UNL     1       2.766   6.563  19.300  0.00  0.00    +0.000 NA
ATOM     25  C   UNL     1       3.331   6.735  18.065  0.00  0.00    +0.000 A 
ATOM     26  N   UNL     1       4.112   5.729  17.575  0.00  0.00    +0.000 N 
ATOM     27  C   UNL     1       4.898   5.852  16.460  0.00  0.00    +0.000 C 
ATOM     28  O   UNL     1       5.050   6.848  15.768  0.00  0.00    +0.000 OA
ATOM     29  N   UNL     1       3.038   7.887  17.469  0.00  0.00    +0.000 NA
ATOM     30  N   UNL     1       2.268   8.518  18.372  0.00  0.00    +0.000 N 
ATOM     31  C   UNL     1       1.686   9.777  18.279  0.00  0.00    +0.000 A 
ATOM     32  H   UNL     1       4.116   4.898  18.137  0.00  0.00    +0.000 HD
BRANCH  27  33
ATOM     33  C   UNL     1       5.681   4.639  16.072  0.00  0.00    +0.000 C 
ATOM     34  C   UNL     1       6.788   4.571  15.052  0.00  0.00    +0.000 C 
ATOM     35  C   UNL     1       7.120   4.513  16.517  0.00  0.00    +0.000 C 
ENDBRANCH  27  33
ENDBRANCH  19  20
ENDBRANCH   6  19
TORSDOF 5
ENDMDL
MODEL 2
REMARK VINA RESULT:      -8.5      2.761     12.103
REMARK  Name = 
REMARK  8 active torsions:
REMARK  status: ('A' for Active; 'I' for Inactive)
REMARK    1  A    between atoms: C_1  and  C_2
REMARK    2  A    between atoms: C_4  and  N_5
REMARK    3  A    between atoms: C_6  and  C_8
REMARK    4  A    between atoms: C_10  and  C_11
REMARK    5  A    between atoms: N_13  and  C_14
REMARK    6  A    between atoms: C_16  and  O_17
REMARK    7  A    between atoms: O_17  and  C_18
REMARK    8  A    between atoms: C_25  and  C_27
REMARK                            x       y       z     vdW  Elec       q    Type
REMARK                         _______ _______ _______ _____ _____    ______ ____
ROOT
ATOM      1  C   UNL     1       1.162   2.929  20.968  0.00  0.00    +0.000 C 
ATOM      2  C   UNL     1       1.742   4.149  20.316  0.00  0.00    +0.000 A 
ATOM      3  C   UNL     1       2.598   4.036  19.218  0.00  0.00    +0.000 A 
ATOM      4  C   UNL     1       3.173   5.162  18.613  0.00  0.00    +0.000 A 
ATOM      5  C   UNL     1       2.952   6.416  19.198  0.00  0.00    +0.000 A 
ATOM      6  C   UNL     1       2.124   6.536  20.314  0.00  0.00    +0.000 A 
ATOM      7  C   UNL     1       1.461   5.415  20.823  0.00  0.00    +0.000 A 
ENDROOT
BRANCH   4   8
ATOM      8  N   UNL     1       3.974   5.077  17.447  0.00  0.00    +0.000 N 
ATOM      9  C   UNL     1       5.237   4.501  17.393  0.00  0.00    +0.000 C 
ATOM     10  O   UNL     1       5.770   3.956  18.354  0.00  0.00    +0.000 OA
ATOM     11  H   UNL     1       3.547   5.345  16.575  0.00  0.00    +0.000 HD
BRANCH   9  12
ATOM     12  C   UNL     1       5.913   4.551  16.110  0.00  0.00    +0.000 A 
ATOM     13  C   UNL     1       5.784   3.811  14.949  0.00  0.00    +0.000 A 
ATOM     14  C   UNL     1       6.708   4.364  14.031  0.00  0.00    +0.000 A 
ATOM     15  C   UNL     1       6.972   3.980  12.626  0.00  0.00    +0.000 C 
ATOM     16  N   UNL     1       7.392   5.373  14.576  0.00  0.00    +0.000 NA
ATOM     17  N   UNL     1       6.907   5.468  15.824  0.00  0.00    +0.000 N 
ATOM     18  C   UNL     1       7.439   6.490  16.697  0.00  0.00    +0.000 C 
ENDBRANCH   9  12
ENDBRANCH   4   8
BRANCH   6  19
ATOM     19  O   UNL     1       1.979   7.801  20.841  0.00  0.00    +0.000 OA
BRANCH  19  20
ATOM     20  C   UNL     1       1.200   8.760  20.204  0.00  0.00    +0.000 A 
ATOM     21  C   UNL     1       1.455   9.144  18.812  0.00  0.00    +0.000 A 
ATOM     22  C   UNL     1       0.741  10.107  18.200  0.00  0.00    +0.000 A 
ATOM     23  C   UNL     1      -0.346  10.713  18.885  0.00  0.00    +0.000 A 
ATOM     24  N   UNL     1      -1.230  11.616  18.522  0.00  0.00    +0.000 NA
ATOM     25  C   UNL     1      -1.989  11.770  19.650  0.00  0.00    +0.000 A 
ATOM     26  N   UNL     1      -2.995  12.693  19.622  0.00  0.00    +0.000 N 
ATOM     27  C   UNL     1      -3.690  13.094  20.732  0.00  0.00    +0.000 C 
ATOM     28  O   UNL     1      -3.512  12.733  21.886  0.00  0.00    +0.000 OA
ATOM     29  N   UNL     1      -1.657  10.976  20.664  0.00  0.00    +0.000 NA
ATOM     30  N   UNL     1      -0.604  10.289  20.189  0.00  0.00    +0.000 N 
ATOM     31  C   UNL     1       0.155   9.320  20.835  0.00  0.00    +0.000 A 
ATOM     32  H   UNL     1      -3.148  13.110  18.722  0.00  0.00    +0.000 HD
BRANCH  27  33
ATOM     33  C   UNL     1      -4.760  14.112  20.504  0.00  0.00    +0.000 C 
ATOM     34  C   UNL     1      -5.917  14.002  19.544  0.00  0.00    +0.000 C 
ATOM     35  C   UNL     1      -6.155  13.847  21.020  0.00  0.00    +0.000 C 
ENDBRANCH  27  33
ENDBRANCH  19  20
ENDBRANCH   6  19
TORSDOF 5
ENDMDL
MODEL 3
REMARK VINA RESULT:      -8.0      3.501      6.289
REMARK  Name = 
REMARK  8 active torsions:
REMARK  status: ('A' for Active; 'I' for Inactive)
REMARK    1  A    between atoms: C_1  and  C_2
REMARK    2  A    between atoms: C_4  and  N_5
REMARK    3  A    between atoms: C_6  and  C_8
REMARK    4  A    between atoms: C_10  and  C_11
REMARK    5  A    between atoms: N_13  and  C_14
REMARK    6  A    between atoms: C_16  and  O_17
REMARK    7  A    between atoms: O_17  and  C_18
REMARK    8  A    between atoms: C_25  and  C_27
REMARK                            x       y       z     vdW  Elec       q    Type
REMARK                         _______ _______ _______ _____ _____    ______ ____
ROOT
ATOM      1  C   UNL     1       2.049   4.146  20.605  0.00  0.00    +0.000 C 
ATOM      2  C   UNL     1       2.173   5.586  20.204  0.00  0.00    +0.000 A 
ATOM      3  C   UNL     1       1.262   6.539  20.666  0.00  0.00    +0.000 A 
ATOM      4  C   UNL     1       1.344   7.884  20.279  0.00  0.00    +0.000 A 
ATOM      5  C   UNL     1       2.308   8.244  19.328  0.00  0.00    +0.000 A 
ATOM      6  C   UNL     1       3.202   7.294  18.836  0.00  0.00    +0.000 A 
ATOM      7  C   UNL     1       3.182   5.986  19.331  0.00  0.00    +0.000 A 
ENDROOT
BRANCH   4   8
ATOM      8  N   UNL     1       0.484   8.882  20.802  0.00  0.00    +0.000 N 
ATOM      9  C   UNL     1       0.732   9.619  21.953  0.00  0.00    +0.000 C 
ATOM     10  O   UNL     1       1.762   9.512  22.612  0.00  0.00    +0.000 OA
ATOM     11  H   UNL     1      -0.300   9.157  20.234  0.00  0.00    +0.000 HD
BRANCH   9  12
ATOM     12  C   UNL     1      -0.294  10.567  22.344  0.00  0.00    +0.000 A 
ATOM     13  C   UNL     1      -1.395  10.472  23.175  0.00  0.00    +0.000 A 
ATOM     14  C   UNL     1      -1.994  11.753  23.176  0.00  0.00    +0.000 A 
ATOM     15  C   UNL     1      -3.184  12.227  23.916  0.00  0.00    +0.000 C 
ATOM     16  N   UNL     1      -1.332  12.600  22.384  0.00  0.00    +0.000 NA
ATOM     17  N   UNL     1      -0.319  11.872  21.888  0.00  0.00    +0.000 N 
ATOM     18  C   UNL     1       0.613  12.506  20.983  0.00  0.00    +0.000 C 
ENDBRANCH   9  12
ENDBRANCH   4   8
BRANCH   6  19
ATOM     19  O   UNL     1       4.102   7.726  17.887  0.00  0.00    +0.000 OA
BRANCH  19  20
ATOM     20  C   UNL     1       4.913   6.826  17.204  0.00  0.00    +0.000 A 
ATOM     21  C   UNL     1       6.271   6.524  17.669  0.00  0.00    +0.000 A 
ATOM     22  C   UNL     1       7.084   5.694  16.989  0.00  0.00    +0.000 A 
ATOM     23  C   UNL     1       6.593   5.023  15.836  0.00  0.00    +0.000 A 
ATOM     24  N   UNL     1       7.133   4.136  15.030  0.00  0.00    +0.000 NA
ATOM     25  C   UNL     1       6.139   3.911  14.116  0.00  0.00    +0.000 A 
ATOM     26  N   UNL     1       6.399   3.049  13.090  0.00  0.00    +0.000 N 
ATOM     27  C   UNL     1       5.581   2.894  12.002  0.00  0.00    +0.000 C 
ATOM     28  O   UNL     1       4.545   3.497  11.764  0.00  0.00    +0.000 OA
ATOM     29  N   UNL     1       5.006   4.568  14.345  0.00  0.00    +0.000 NA
ATOM     30  N   UNL     1       5.280   5.286  15.448  0.00  0.00    +0.000 N 
ATOM     31  C   UNL     1       4.450   6.170  16.128  0.00  0.00    +0.000 A 
ATOM     32  H   UNL     1       7.281   2.576  13.161  0.00  0.00    +0.000 HD
BRANCH  27  33
ATOM     33  C   UNL     1       6.029   1.899  10.981  0.00  0.00    +0.000 C 
ATOM     34  C   UNL     1       7.375   1.225  10.911  0.00  0.00    +0.000 C 
ATOM     35  C   UNL     1       6.176   0.448  11.376  0.00  0.00    +0.000 C 
ENDBRANCH  27  33
ENDBRANCH  19  20
ENDBRANCH   6  19
TORSDOF 5
ENDMDL
MODEL 4
REMARK VINA RESULT:      -7.9      3.444     13.108
REMARK  Name = 
REMARK  8 active torsions:
REMARK  status: ('A' for Active; 'I' for Inactive)
REMARK    1  A    between atoms: C_1  and  C_2
REMARK    2  A    between atoms: C_4  and  N_5
REMARK    3  A    between atoms: C_6  and  C_8
REMARK    4  A    between atoms: C_10  and  C_11
REMARK    5  A    between atoms: N_13  and  C_14
REMARK    6  A    between atoms: C_16  and  O_17
REMARK    7  A    between atoms: O_17  and  C_18
REMARK    8  A    between atoms: C_25  and  C_27
REMARK                            x       y       z     vdW  Elec       q    Type
REMARK                         _______ _______ _______ _____ _____    ______ ____
ROOT
ATOM      1  C   UNL     1       7.963   5.839  19.957  0.00  0.00    +0.000 C 
ATOM      2  C   UNL     1       6.816   5.380  19.106  0.00  0.00    +0.000 A 
ATOM      3  C   UNL     1       7.034   4.879  17.820  0.00  0.00    +0.000 A 
ATOM      4  C   UNL     1       5.973   4.472  16.999  0.00  0.00    +0.000 A 
ATOM      5  C   UNL     1       4.664   4.673  17.456  0.00  0.00    +0.000 A 
ATOM      6  C   UNL     1       4.435   5.203  18.726  0.00  0.00    +0.000 A 
ATOM      7  C   UNL     1       5.509   5.483  19.576  0.00  0.00    +0.000 A 
ENDROOT
BRANCH   4   8
ATOM      8  N   UNL     1       6.176   3.880  15.727  0.00  0.00    +0.000 N 
ATOM      9  C   UNL     1       6.092   4.555  14.516  0.00  0.00    +0.000 C 
ATOM     10  O   UNL     1       5.880   5.761  14.431  0.00  0.00    +0.000 OA
ATOM     11  H   UNL     1       6.522   2.935  15.710  0.00  0.00    +0.000 HD
BRANCH   9  12
ATOM     12  C   UNL     1       6.293   3.759  13.321  0.00  0.00    +0.000 A 
ATOM     13  C   UNL     1       5.758   2.561  12.886  0.00  0.00    +0.000 A 
ATOM     14  C   UNL     1       6.330   2.316  11.616  0.00  0.00    +0.000 A 
ATOM     15  C   UNL     1       6.091   1.191  10.685  0.00  0.00    +0.000 C 
ATOM     16  N   UNL     1       7.187   3.281  11.274  0.00  0.00    +0.000 NA
ATOM     17  N   UNL     1       7.158   4.135  12.309  0.00  0.00    +0.000 N 
ATOM     18  C   UNL     1       7.984   5.321  12.253  0.00  0.00    +0.000 C 
ENDBRANCH   9  12
ENDBRANCH   4   8
BRANCH   6  19
ATOM     19  O   UNL     1       3.119   5.390  19.088  0.00  0.00    +0.000 OA
BRANCH  19  20
ATOM     20  C   UNL     1       2.549   6.658  19.097  0.00  0.00    +0.000 A 
ATOM     21  C   UNL     1       2.618   7.530  17.920  0.00  0.00    +0.000 A 
ATOM     22  C   UNL     1       2.115   8.779  17.932  0.00  0.00    +0.000 A 
ATOM     23  C   UNL     1       1.423   9.242  19.083  0.00  0.00    +0.000 A 
ATOM     24  N   UNL     1       0.796  10.366  19.348  0.00  0.00    +0.000 NA
ATOM     25  C   UNL     1       0.364  10.180  20.633  0.00  0.00    +0.000 A 
ATOM     26  N   UNL     1      -0.303  11.206  21.238  0.00  0.00    +0.000 N 
ATOM     27  C   UNL     1      -0.604  11.234  22.574  0.00  0.00    +0.000 C 
ATOM     28  O   UNL     1      -0.310  10.398  23.416  0.00  0.00    +0.000 OA
ATOM     29  N   UNL     1       0.644   8.988  21.152  0.00  0.00    +0.000 NA
ATOM     30  N   UNL     1       1.322   8.372  20.169  0.00  0.00    +0.000 N 
ATOM     31  C   UNL     1       1.872   7.095  20.171  0.00  0.00    +0.000 A 
ATOM     32  H   UNL     1      -0.505  11.981  20.633  0.00  0.00    +0.000 HD
BRANCH  27  33
ATOM     33  C   UNL     1      -1.344  12.441  23.055  0.00  0.00    +0.000 C 
ATOM     34  C   UNL     1      -2.371  13.231  22.286  0.00  0.00    +0.000 C 
ATOM     35  C   UNL     1      -2.810  12.321  23.399  0.00  0.00    +0.000 C 
ENDBRANCH  27  33
ENDBRANCH  19  20
ENDBRANCH   6  19
TORSDOF 5
ENDMDL
MODEL 5
REMARK VINA RESULT:      -7.8      2.720     12.118
REMARK  Name = 
REMARK  8 active torsions:
REMARK  status: ('A' for Active; 'I' for Inactive)
REMARK    1  A    between atoms: C_1  and  C_2
REMARK    2  A    between atoms: C_4  and  N_5
REMARK    3  A    between atoms: C_6  and  C_8
REMARK    4  A    between atoms: C_10  and  C_11
REMARK    5  A    between atoms: N_13  and  C_14
REMARK    6  A    between atoms: C_16  and  O_17
REMARK    7  A    between atoms: O_17  and  C_18
REMARK    8  A    between atoms: C_25  and  C_27
REMARK                            x       y       z     vdW  Elec       q    Type
REMARK                         _______ _______ _______ _____ _____    ______ ____
ROOT
ATOM      1  C   UNL     1       0.606   3.092  19.974  0.00  0.00    +0.000 C 
ATOM      2  C   UNL     1       1.426   4.314  19.687  0.00  0.00    +0.000 A 
ATOM      3  C   UNL     1       2.400   4.303  18.685  0.00  0.00    +0.000 A 
ATOM      4  C   UNL     1       3.197   5.426  18.420  0.00  0.00    +0.000 A 
ATOM      5  C   UNL     1       3.068   6.544  19.256  0.00  0.00    +0.000 A 
ATOM      6  C   UNL     1       2.121   6.553  20.279  0.00  0.00    +0.000 A 
ATOM      7  C   UNL     1       1.251   5.470  20.444  0.00  0.00    +0.000 A 
ENDROOT
BRANCH   4   8
ATOM      8  N   UNL     1       4.130   5.466  17.354  0.00  0.00    +0.000 N 
ATOM      9  C   UNL     1       4.754   4.354  16.804  0.00  0.00    +0.000 C 
ATOM     10  O   UNL     1       4.515   3.204  17.160  0.00  0.00    +0.000 OA
ATOM     11  H   UNL     1       4.256   6.350  16.887  0.00  0.00    +0.000 HD
BRANCH   9  12
ATOM     12  C   UNL     1       5.710   4.611  15.744  0.00  0.00    +0.000 A 
ATOM     13  C   UNL     1       5.755   4.253  14.410  0.00  0.00    +0.000 A 
ATOM     14  C   UNL     1       6.934   4.836  13.889  0.00  0.00    +0.000 A 
ATOM     15  C   UNL     1       7.463   4.800  12.508  0.00  0.00    +0.000 C 
ATOM     16  N   UNL     1       7.605   5.501  14.832  0.00  0.00    +0.000 NA
ATOM     17  N   UNL     1       6.861   5.352  15.940  0.00  0.00    +0.000 N 
ATOM     18  C   UNL     1       7.311   5.972  17.166  0.00  0.00    +0.000 C 
ENDBRANCH   9  12
ENDBRANCH   4   8
BRANCH   6  19
ATOM     19  O   UNL     1       2.075   7.681  21.069  0.00  0.00    +0.000 OA
BRANCH  19  20
ATOM     20  C   UNL     1       1.317   8.786  20.700  0.00  0.00    +0.000 A 
ATOM     21  C   UNL     1       0.869   8.973  19.316  0.00  0.00    +0.000 A 
ATOM     22  C   UNL     1       0.178  10.064  18.935  0.00  0.00    +0.000 A 
ATOM     23  C   UNL     1      -0.205  11.023  19.910  0.00  0.00    +0.000 A 
ATOM     24  N   UNL     1      -0.914  12.128  19.836  0.00  0.00    +0.000 NA
ATOM     25  C   UNL     1      -0.895  12.590  21.124  0.00  0.00    +0.000 A 
ATOM     26  N   UNL     1      -1.521  13.774  21.388  0.00  0.00    +0.000 N 
ATOM     27  C   UNL     1      -1.403  14.448  22.574  0.00  0.00    +0.000 C 
ATOM     28  O   UNL     1      -0.723  14.133  23.539  0.00  0.00    +0.000 OA
ATOM     29  N   UNL     1      -0.262  11.806  21.993  0.00  0.00    +0.000 NA
ATOM     30  N   UNL     1       0.186  10.794  21.230  0.00  0.00    +0.000 N 
ATOM     31  C   UNL     1       0.930   9.686  21.618  0.00  0.00    +0.000 A 
ATOM     32  H   UNL     1      -2.032  14.153  20.611  0.00  0.00    +0.000 HD
BRANCH  27  33
ATOM     33  C   UNL     1      -2.167  15.729  22.679  0.00  0.00    +0.000 C 
ATOM     34  C   UNL     1      -3.475  16.055  22.006  0.00  0.00    +0.000 C 
ATOM     35  C   UNL     1      -3.447  15.764  23.481  0.00  0.00    +0.000 C 
ENDBRANCH  27  33
ENDBRANCH  19  20
ENDBRANCH   6  19
TORSDOF 5
ENDMDL
MODEL 6
REMARK VINA RESULT:      -7.8      4.430      5.510
REMARK  Name = 
REMARK  8 active torsions:
REMARK  status: ('A' for Active; 'I' for Inactive)
REMARK    1  A    between atoms: C_1  and  C_2
REMARK    2  A    between atoms: C_4  and  N_5
REMARK    3  A    between atoms: C_6  and  C_8
REMARK    4  A    between atoms: C_10  and  C_11
REMARK    5  A    between atoms: N_13  and  C_14
REMARK    6  A    between atoms: C_16  and  O_17
REMARK    7  A    between atoms: O_17  and  C_18
REMARK    8  A    between atoms: C_25  and  C_27
REMARK                            x       y       z     vdW  Elec       q    Type
REMARK                         _______ _______ _______ _____ _____    ______ ____
ROOT
ATOM      1  C   UNL     1      -2.350  10.767  17.998  0.00  0.00    +0.000 C 
ATOM      2  C   UNL     1      -1.035  10.834  18.715  0.00  0.00    +0.000 A 
ATOM      3  C   UNL     1      -0.151  11.894  18.494  0.00  0.00    +0.000 A 
ATOM      4  C   UNL     1       1.095  11.960  19.132  0.00  0.00    +0.000 A 
ATOM      5  C   UNL     1       1.490  10.879  19.932  0.00  0.00    +0.000 A 
ATOM      6  C   UNL     1       0.629   9.801  20.134  0.00  0.00    +0.000 A 
ATOM      7  C   UNL     1      -0.659   9.816  19.588  0.00  0.00    +0.000 A 
ENDROOT
BRANCH   4   8
ATOM      8  N   UNL     1       1.968  13.067  18.989  0.00  0.00    +0.000 N 
ATOM      9  C   UNL     1       2.172  14.046  19.953  0.00  0.00    +0.000 C 
ATOM     10  O   UNL     1       1.646  14.020  21.061  0.00  0.00    +0.000 OA
ATOM     11  H   UNL     1       2.569  13.076  18.181  0.00  0.00    +0.000 HD
BRANCH   9  12
ATOM     12  C   UNL     1       3.078  15.122  19.595  0.00  0.00    +0.000 A 
ATOM     13  C   UNL     1       4.439  15.298  19.757  0.00  0.00    +0.000 A 
ATOM     14  C   UNL     1       4.742  16.549  19.169  0.00  0.00    +0.000 A 
ATOM     15  C   UNL     1       6.052  17.224  19.031  0.00  0.00    +0.000 C 
ATOM     16  N   UNL     1       3.646  17.138  18.685  0.00  0.00    +0.000 NA
ATOM     17  N   UNL     1       2.656  16.272  18.954  0.00  0.00    +0.000 N 
ATOM     18  C   UNL     1       1.311  16.608  18.545  0.00  0.00    +0.000 C 
ENDBRANCH   9  12
ENDBRANCH   4   8
BRANCH   6  19
ATOM     19  O   UNL     1       1.103   8.769  20.914  0.00  0.00    +0.000 OA
BRANCH  19  20
ATOM     20  C   UNL     1       1.624   7.615  20.340  0.00  0.00    +0.000 A 
ATOM     21  C   UNL     1       1.314   6.289  20.885  0.00  0.00    +0.000 A 
ATOM     22  C   UNL     1       1.851   5.167  20.370  0.00  0.00    +0.000 A 
ATOM     23  C   UNL     1       2.673   5.254  19.215  0.00  0.00    +0.000 A 
ATOM     24  N   UNL     1       3.271   4.340  18.482  0.00  0.00    +0.000 NA
ATOM     25  C   UNL     1       3.915   5.085  17.531  0.00  0.00    +0.000 A 
ATOM     26  N   UNL     1       4.683   4.426  16.615  0.00  0.00    +0.000 N 
ATOM     27  C   UNL     1       5.538   5.053  15.749  0.00  0.00    +0.000 C 
ATOM     28  O   UNL     1       5.770   6.251  15.675  0.00  0.00    +0.000 OA
ATOM     29  N   UNL     1       3.704   6.396  17.607  0.00  0.00    +0.000 NA
ATOM     30  N   UNL     1       2.907   6.521  18.682  0.00  0.00    +0.000 N 
ATOM     31  C   UNL     1       2.382   7.684  19.234  0.00  0.00    +0.000 A 
ATOM     32  H   UNL     1       4.621   3.426  16.668  0.00  0.00    +0.000 HD
BRANCH  27  33
ATOM     33  C   UNL     1       6.294   4.164  14.814  0.00  0.00    +0.000 C 
ATOM     34  C   UNL     1       5.904   3.801  13.405  0.00  0.00    +0.000 C 
ATOM     35  C   UNL     1       7.025   4.774  13.641  0.00  0.00    +0.000 C 
ENDBRANCH  27  33
ENDBRANCH  19  20
ENDBRANCH   6  19
TORSDOF 5
ENDMDL
MODEL 7
REMARK VINA RESULT:      -7.8      2.570     11.921
REMARK  Name = 
REMARK  8 active torsions:
REMARK  status: ('A' for Active; 'I' for Inactive)
REMARK    1  A    between atoms: C_1  and  C_2
REMARK    2  A    between atoms: C_4  and  N_5
REMARK    3  A    between atoms: C_6  and  C_8
REMARK    4  A    between atoms: C_10  and  C_11
REMARK    5  A    between atoms: N_13  and  C_14
REMARK    6  A    between atoms: C_16  and  O_17
REMARK    7  A    between atoms: O_17  and  C_18
REMARK    8  A    between atoms: C_25  and  C_27
REMARK                            x       y       z     vdW  Elec       q    Type
REMARK                         _______ _______ _______ _____ _____    ______ ____
ROOT
ATOM      1  C   UNL     1       0.727   2.874  20.606  0.00  0.00    +0.000 C 
ATOM      2  C   UNL     1       1.529   4.044  20.122  0.00  0.00    +0.000 A 
ATOM      3  C   UNL     1       2.534   3.877  19.165  0.00  0.00    +0.000 A 
ATOM      4  C   UNL     1       3.314   4.954  18.721  0.00  0.00    +0.000 A 
ATOM      5  C   UNL     1       3.135   6.202  19.333  0.00  0.00    +0.000 A 
ATOM      6  C   UNL     1       2.156   6.372  20.312  0.00  0.00    +0.000 A 
ATOM      7  C   UNL     1       1.306   5.314  20.649  0.00  0.00    +0.000 A 
ENDROOT
BRANCH   4   8
ATOM      8  N   UNL     1       4.279   4.824  17.690  0.00  0.00    +0.000 N 
ATOM      9  C   UNL     1       4.608   5.821  16.781  0.00  0.00    +0.000 C 
ATOM     10  O   UNL     1       4.124   6.948  16.814  0.00  0.00    +0.000 OA
ATOM     11  H   UNL     1       4.847   3.992  17.696  0.00  0.00    +0.000 HD
BRANCH   9  12
ATOM     12  C   UNL     1       5.593   5.474  15.775  0.00  0.00    +0.000 A 
ATOM     13  C   UNL     1       5.504   4.844  14.548  0.00  0.00    +0.000 A 
ATOM     14  C   UNL     1       6.817   4.828  14.021  0.00  0.00    +0.000 A 
ATOM     15  C   UNL     1       7.297   4.302  12.724  0.00  0.00    +0.000 C 
ATOM     16  N   UNL     1       7.686   5.389  14.865  0.00  0.00    +0.000 NA
ATOM     17  N   UNL     1       6.938   5.767  15.914  0.00  0.00    +0.000 N 
ATOM     18  C   UNL     1       7.584   6.429  17.024  0.00  0.00    +0.000 C 
ENDBRANCH   9  12
ENDBRANCH   4   8
BRANCH   6  19
ATOM     19  O   UNL     1       2.062   7.623  20.880  0.00  0.00    +0.000 OA
BRANCH  19  20
ATOM     20  C   UNL     1       1.337   8.639  20.266  0.00  0.00    +0.000 A 
ATOM     21  C   UNL     1       1.456   8.893  18.826  0.00  0.00    +0.000 A 
ATOM     22  C   UNL     1       0.799   9.905  18.229  0.00  0.00    +0.000 A 
ATOM     23  C   UNL     1      -0.101  10.699  18.989  0.00  0.00    +0.000 A 
ATOM     24  N   UNL     1      -0.899  11.691  18.664  0.00  0.00    +0.000 NA
ATOM     25  C   UNL     1      -1.478  12.022  19.859  0.00  0.00    +0.000 A 
ATOM     26  N   UNL     1      -2.350  13.072  19.878  0.00  0.00    +0.000 N 
ATOM     27  C   UNL     1      -2.835  13.636  21.027  0.00  0.00    +0.000 C 
ATOM     28  O   UNL     1      -2.557  13.329  22.177  0.00  0.00    +0.000 OA
ATOM     29  N   UNL     1      -1.122  11.256  20.886  0.00  0.00    +0.000 NA
ATOM     30  N   UNL     1      -0.239  10.400  20.345  0.00  0.00    +0.000 N 
ATOM     31  C   UNL     1       0.467   9.378  20.971  0.00  0.00    +0.000 A 
ATOM     32  H   UNL     1      -2.564  13.447  18.972  0.00  0.00    +0.000 HD
BRANCH  27  33
ATOM     33  C   UNL     1      -3.786  14.777  20.848  0.00  0.00    +0.000 C 
ATOM     34  C   UNL     1      -4.099  15.852  21.855  0.00  0.00    +0.000 C 
ATOM     35  C   UNL     1      -3.239  16.173  20.665  0.00  0.00    +0.000 C 
ENDBRANCH  27  33
ENDBRANCH  19  20
ENDBRANCH   6  19
TORSDOF 5
ENDMDL
MODEL 8
REMARK VINA RESULT:      -7.7      3.968     11.769
REMARK  Name = 
REMARK  8 active torsions:
REMARK  status: ('A' for Active; 'I' for Inactive)
REMARK    1  A    between atoms: C_1  and  C_2
REMARK    2  A    between atoms: C_4  and  N_5
REMARK    3  A    between atoms: C_6  and  C_8
REMARK    4  A    between atoms: C_10  and  C_11
REMARK    5  A    between atoms: N_13  and  C_14
REMARK    6  A    between atoms: C_16  and  O_17
REMARK    7  A    between atoms: O_17  and  C_18
REMARK    8  A    between atoms: C_25  and  C_27
REMARK                            x       y       z     vdW  Elec       q    Type
REMARK                         _______ _______ _______ _____ _____    ______ ____
ROOT
ATOM      1  C   UNL     1       1.446   2.435  21.279  0.00  0.00    +0.000 C 
ATOM      2  C   UNL     1       1.843   3.716  20.609  0.00  0.00    +0.000 A 
ATOM      3  C   UNL     1       2.730   3.715  19.529  0.00  0.00    +0.000 A 
ATOM      4  C   UNL     1       3.136   4.904  18.908  0.00  0.00    +0.000 A 
ATOM      5  C   UNL     1       2.710   6.120  19.459  0.00  0.00    +0.000 A 
ATOM      6  C   UNL     1       1.850   6.134  20.557  0.00  0.00    +0.000 A 
ATOM      7  C   UNL     1       1.358   4.934  21.081  0.00  0.00    +0.000 A 
ENDROOT
BRANCH   4   8
ATOM      8  N   UNL     1       3.965   4.921  17.758  0.00  0.00    +0.000 N 
ATOM      9  C   UNL     1       5.298   4.534  17.737  0.00  0.00    +0.000 C 
ATOM     10  O   UNL     1       5.884   4.083  18.717  0.00  0.00    +0.000 OA
ATOM     11  H   UNL     1       3.521   5.113  16.875  0.00  0.00    +0.000 HD
BRANCH   9  12
ATOM     12  C   UNL     1       5.986   4.664  16.467  0.00  0.00    +0.000 A 
ATOM     13  C   UNL     1       5.897   3.973  15.273  0.00  0.00    +0.000 A 
ATOM     14  C   UNL     1       6.811   4.597  14.391  0.00  0.00    +0.000 A 
ATOM     15  C   UNL     1       7.103   4.286  12.975  0.00  0.00    +0.000 C 
ATOM     16  N   UNL     1       7.453   5.603  14.990  0.00  0.00    +0.000 NA
ATOM     17  N   UNL     1       6.951   5.626  16.235  0.00  0.00    +0.000 N 
ATOM     18  C   UNL     1       7.438   6.626  17.159  0.00  0.00    +0.000 C 
ENDBRANCH   9  12
ENDBRANCH   4   8
BRANCH   6  19
ATOM     19  O   UNL     1       1.499   7.371  21.052  0.00  0.00    +0.000 OA
BRANCH  19  20
ATOM     20  C   UNL     1       1.416   8.481  20.218  0.00  0.00    +0.000 A 
ATOM     21  C   UNL     1       1.899   8.430  18.835  0.00  0.00    +0.000 A 
ATOM     22  C   UNL     1       1.871   9.512  18.034  0.00  0.00    +0.000 A 
ATOM     23  C   UNL     1       1.282  10.715  18.506  0.00  0.00    +0.000 A 
ATOM     24  N   UNL     1       1.070  11.881  17.937  0.00  0.00    +0.000 NA
ATOM     25  C   UNL     1       0.482  12.607  18.937  0.00  0.00    +0.000 A 
ATOM     26  N   UNL     1       0.166  13.909  18.680  0.00  0.00    +0.000 N 
ATOM     27  C   UNL     1      -0.230  14.799  19.643  0.00  0.00    +0.000 C 
ATOM     28  O   UNL     1      -0.331  14.594  20.843  0.00  0.00    +0.000 OA
ATOM     29  N   UNL     1       0.272  11.938  20.067  0.00  0.00    +0.000 NA
ATOM     30  N   UNL     1       0.779  10.720  19.807  0.00  0.00    +0.000 N 
ATOM     31  C   UNL     1       0.839   9.615  20.647  0.00  0.00    +0.000 A 
ATOM     32  H   UNL     1       0.309  14.189  17.727  0.00  0.00    +0.000 HD
BRANCH  27  33
ATOM     33  C   UNL     1      -0.538  16.184  19.170  0.00  0.00    +0.000 C 
ATOM     34  C   UNL     1      -1.337  17.229  19.905  0.00  0.00    +0.000 C 
ATOM     35  C   UNL     1       0.158  17.359  19.816  0.00  0.00    +0.000 C 
ENDBRANCH  27  33
ENDBRANCH  19  20
ENDBRANCH   6  19
TORSDOF 5
ENDMDL
MODEL 9
REMARK VINA RESULT:      -7.6      3.776     11.790
REMARK  Name = 
REMARK  8 active torsions:
REMARK  status: ('A' for Active; 'I' for Inactive)
REMARK    1  A    between atoms: C_1  and  C_2
REMARK    2  A    between atoms: C_4  and  N_5
REMARK    3  A    between atoms: C_6  and  C_8
REMARK    4  A    between atoms: C_10  and  C_11
REMARK    5  A    between atoms: N_13  and  C_14
REMARK    6  A    between atoms: C_16  and  O_17
REMARK    7  A    between atoms: O_17  and  C_18
REMARK    8  A    between atoms: C_25  and  C_27
REMARK                            x       y       z     vdW  Elec       q    Type
REMARK                         _______ _______ _______ _____ _____    ______ ____
ROOT
ATOM      1  C   UNL     1       0.794   3.535  20.712  0.00  0.00    +0.000 C 
ATOM      2  C   UNL     1       1.459   4.771  20.185  0.00  0.00    +0.000 A 
ATOM      3  C   UNL     1       2.435   4.691  19.189  0.00  0.00    +0.000 A 
ATOM      4  C   UNL     1       3.088   5.833  18.704  0.00  0.00    +0.000 A 
ATOM      5  C   UNL     1       2.814   7.064  19.314  0.00  0.00    +0.000 A 
ATOM      6  C   UNL     1       1.865   7.151  20.331  0.00  0.00    +0.000 A 
ATOM      7  C   UNL     1       1.135   6.020  20.712  0.00  0.00    +0.000 A 
ENDROOT
BRANCH   4   8
ATOM      8  N   UNL     1       4.018   5.784  17.635  0.00  0.00    +0.000 N 
ATOM      9  C   UNL     1       4.718   4.650  17.244  0.00  0.00    +0.000 C 
ATOM     10  O   UNL     1       4.559   3.549  17.762  0.00  0.00    +0.000 OA
ATOM     11  H   UNL     1       4.083   6.598  17.046  0.00  0.00    +0.000 HD
BRANCH   9  12
ATOM     12  C   UNL     1       5.656   4.819  16.151  0.00  0.00    +0.000 A 
ATOM     13  C   UNL     1       5.640   4.421  14.827  0.00  0.00    +0.000 A 
ATOM     14  C   UNL     1       6.836   4.915  14.256  0.00  0.00    +0.000 A 
ATOM     15  C   UNL     1       7.320   4.808  12.862  0.00  0.00    +0.000 C 
ATOM     16  N   UNL     1       7.573   5.565  15.160  0.00  0.00    +0.000 NA
ATOM     17  N   UNL     1       6.855   5.493  16.292  0.00  0.00    +0.000 N 
ATOM     18  C   UNL     1       7.377   6.119  17.485  0.00  0.00    +0.000 C 
ENDBRANCH   9  12
ENDBRANCH   4   8
BRANCH   6  19
ATOM     19  O   UNL     1       1.673   8.394  20.893  0.00  0.00    +0.000 OA
BRANCH  19  20
ATOM     20  C   UNL     1       1.004   9.399  20.204  0.00  0.00    +0.000 A 
ATOM     21  C   UNL     1       0.263   9.111  18.971  0.00  0.00    +0.000 A 
ATOM     22  C   UNL     1      -0.347  10.083  18.267  0.00  0.00    +0.000 A 
ATOM     23  C   UNL     1      -0.349  11.412  18.769  0.00  0.00    +0.000 A 
ATOM     24  N   UNL     1      -0.900  12.523  18.332  0.00  0.00    +0.000 NA
ATOM     25  C   UNL     1      -0.508  13.445  19.265  0.00  0.00    +0.000 A 
ATOM     26  N   UNL     1      -0.886  14.743  19.078  0.00  0.00    +0.000 N 
ATOM     27  C   UNL     1      -0.395  15.791  19.811  0.00  0.00    +0.000 C 
ATOM     28  O   UNL     1       0.450  15.745  20.693  0.00  0.00    +0.000 OA
ATOM     29  N   UNL     1       0.205  12.954  20.275  0.00  0.00    +0.000 NA
ATOM     30  N   UNL     1       0.315  11.649  19.972  0.00  0.00    +0.000 N 
ATOM     31  C   UNL     1       0.975  10.653  20.682  0.00  0.00    +0.000 A 
ATOM     32  H   UNL     1      -1.514  14.884  18.308  0.00  0.00    +0.000 HD
BRANCH  27  33
ATOM     33  C   UNL     1      -0.931  17.143  19.464  0.00  0.00    +0.000 C 
ATOM     34  C   UNL     1      -0.563  18.450  20.116  0.00  0.00    +0.000 C 
ATOM     35  C   UNL     1      -0.042  18.129  18.743  0.00  0.00    +0.000 C 
ENDBRANCH  27  33
ENDBRANCH  19  20
ENDBRANCH   6  19
TORSDOF 5
ENDMDL
