MODEL 1
REMARK VINA RESULT:      -8.5      0.000      0.000
REMARK  Name = 
REMARK  7 active torsions:
REMARK  status: ('A' for Active; 'I' for Inactive)
REMARK    1  A    between atoms: C_2  and  C_3
REMARK    2  A    between atoms: C_3  and  C_4
REMARK    3  A    between atoms: N_10  and  C_11
REMARK    4  A    between atoms: N_14  and  C_15
REMARK    5  A    between atoms: C_15  and  C_16
REMARK    6  A    between atoms: C_16  and  C_17
REMARK    7  A    between atoms: C_17  and  N_18
REMARK                            x       y       z     vdW  Elec       q    Type
REMARK                         _______ _______ _______ _____ _____    ______ ____
ROOT
ATOM      1  C   UNL     1      -0.442  11.909  21.493  0.00  0.00    +0.000 C 
ATOM      2  C   UNL     1       0.873  12.334  20.833  0.00  0.00    +0.000 C 
ATOM      3  C   UNL     1       1.004  11.806  19.383  0.00  0.00    +0.000 C 
ATOM      4  N   UNL     1       0.819  10.354  19.288  0.00  0.00    +0.000 NA
ATOM      5  C   UNL     1      -0.399   9.884  19.946  0.00  0.00    +0.000 C 
ATOM      6  C   UNL     1      -0.534  10.386  21.403  0.00  0.00    +0.000 C 
ENDROOT
BRANCH   1   9
ATOM      7  O   UNL     1      -3.052  12.249  22.678  0.00  0.00    +0.000 OA
ATOM      8  C   UNL     1      -2.841  12.638  21.534  0.00  0.00    +0.000 C 
ATOM      9  N   UNL     1      -1.626  12.522  20.891  0.00  0.00    +0.000 N 
ATOM     10  H   UNL     1      -1.663  12.559  19.881  0.00  0.00    +0.000 HD
BRANCH   8  11
ATOM     11  C   UNL     1      -3.899  13.331  20.686  0.00  0.00    +0.000 C 
BRANCH  11  12
ATOM     12  C   UNL     1      -4.867  12.386  20.021  0.00  0.00    +0.000 A 
ATOM     13  C   UNL     1      -6.073  12.041  20.655  0.00  0.00    +0.000 A 
ATOM     14  C   UNL     1      -6.995  11.203  20.022  0.00  0.00    +0.000 A 
ATOM     15  C   UNL     1      -6.725  10.699  18.754  0.00  0.00    +0.000 A 
ATOM     16  C   UNL     1      -5.531  11.035  18.115  0.00  0.00    +0.000 A 
ATOM     17  C   UNL     1      -4.613  11.873  18.739  0.00  0.00    +0.000 A 
ENDBRANCH  11  12
ENDBRANCH   8  11
ENDBRANCH   1   9
BRANCH   4  18
ATOM     18  C   UNL     1       1.167   9.702  17.993  0.00  0.00    +0.000 C 
BRANCH  18  19
ATOM     19  C   UNL     1       2.376   8.725  17.743  0.00  0.00    +0.000 C 
BRANCH  19  20
ATOM     20  C   UNL     1       2.414   7.506  18.803  0.00  0.00    +0.000 C 
BRANCH  20  21
ATOM     21  N   UNL     1       3.060   6.170  18.527  0.00  0.00    +0.000 N 
ATOM     22  C   UNL     1       4.163   6.074  17.691  0.00  0.00    +0.000 C 
ATOM     23  O   UNL     1       4.947   7.004  17.492  0.00  0.00    +0.000 OA
ATOM     24  C   UNL     1       4.362   4.796  16.903  0.00  0.00    +0.000 C 
ATOM     25  C   UNL     1       3.604   3.568  17.312  0.00  0.00    +0.000 C 
ATOM     26  C   UNL     1       2.859   3.693  18.594  0.00  0.00    +0.000 A 
ATOM     27  C   UNL     1       2.383   2.486  19.167  0.00  0.00    +0.000 A 
ATOM     28  F   UNL     1       2.676   1.323  18.578  0.00  0.00    +0.000 F 
ATOM     29  C   UNL     1       1.595   2.487  20.298  0.00  0.00    +0.000 A 
ATOM     30  C   UNL     1       1.287   3.714  20.878  0.00  0.00    +0.000 A 
ATOM     31  C   UNL     1       1.752   4.925  20.313  0.00  0.00    +0.000 A 
ATOM     32  C   UNL     1       2.539   4.950  19.142  0.00  0.00    +0.000 A 
ENDBRANCH  20  21
ENDBRANCH  19  20
ENDBRANCH  18  19
ENDBRANCH   4  18
TORSDOF 7
ENDMDL
MODEL 2
REMARK VINA RESULT:      -8.5      7.660     11.253
REMARK  Name = 
REMARK  7 active torsions:
REMARK  status: ('A' for Active; 'I' for Inactive)
REMARK    1  A    between atoms: C_2  and  C_3
REMARK    2  A    between atoms: C_3  and  C_4
REMARK    3  A    between atoms: N_10  and  C_11
REMARK    4  A    between atoms: N_14  and  C_15
REMARK    5  A    between atoms: C_15  and  C_16
REMARK    6  A    between atoms: C_16  and  C_17
REMARK    7  A    between atoms: C_17  and  N_18
REMARK                            x       y       z     vdW  Elec       q    Type
REMARK                         _______ _______ _______ _____ _____    ______ ____
ROOT
ATOM      1  C   UNL     1       6.358   4.936  17.259  0.00  0.00    +0.000 C 
ATOM      2  C   UNL     1       7.392   4.788  18.379  0.00  0.00    +0.000 C 
ATOM      3  C   UNL     1       7.686   6.130  19.093  0.00  0.00    +0.000 C 
ATOM      4  N   UNL     1       8.075   7.196  18.163  0.00  0.00    +0.000 NA
ATOM      5  C   UNL     1       7.148   7.350  17.043  0.00  0.00    +0.000 C 
ATOM      6  C   UNL     1       6.861   6.021  16.306  0.00  0.00    +0.000 C 
ENDROOT
BRANCH   1   9
ATOM      7  O   UNL     1       3.853   3.732  16.478  0.00  0.00    +0.000 OA
ATOM      8  C   UNL     1       3.868   4.640  17.302  0.00  0.00    +0.000 C 
ATOM      9  N   UNL     1       5.017   5.268  17.738  0.00  0.00    +0.000 N 
ATOM     10  H   UNL     1       4.884   6.189  18.137  0.00  0.00    +0.000 HD
BRANCH   8  11
ATOM     11  C   UNL     1       2.609   5.167  17.976  0.00  0.00    +0.000 C 
BRANCH  11  12
ATOM     12  C   UNL     1       2.154   4.343  19.154  0.00  0.00    +0.000 A 
ATOM     13  C   UNL     1       1.371   3.193  18.957  0.00  0.00    +0.000 A 
ATOM     14  C   UNL     1       0.988   2.399  20.041  0.00  0.00    +0.000 A 
ATOM     15  C   UNL     1       1.378   2.743  21.331  0.00  0.00    +0.000 A 
ATOM     16  C   UNL     1       2.157   3.882  21.539  0.00  0.00    +0.000 A 
ATOM     17  C   UNL     1       2.545   4.672  20.462  0.00  0.00    +0.000 A 
ENDBRANCH  11  12
ENDBRANCH   8  11
ENDBRANCH   1   9
BRANCH   4  18
ATOM     18  C   UNL     1       8.620   8.453  18.750  0.00  0.00    +0.000 C 
BRANCH  18  19
ATOM     19  C   UNL     1       8.517   9.892  18.119  0.00  0.00    +0.000 C 
BRANCH  19  20
ATOM     20  C   UNL     1       9.795  10.815  18.474  0.00  0.00    +0.000 C 
BRANCH  20  21
ATOM     21  N   UNL     1       9.706  12.137  19.197  0.00  0.00    +0.000 N 
ATOM     22  C   UNL     1       9.270  12.198  20.513  0.00  0.00    +0.000 C 
ATOM     23  O   UNL     1       9.364  11.258  21.303  0.00  0.00    +0.000 OA
ATOM     24  C   UNL     1       8.552  13.448  20.978  0.00  0.00    +0.000 C 
ATOM     25  C   UNL     1       8.657  14.694  20.148  0.00  0.00    +0.000 C 
ATOM     26  C   UNL     1       9.631  14.616  19.025  0.00  0.00    +0.000 A 
ATOM     27  C   UNL     1       9.983  15.843  18.409  0.00  0.00    +0.000 A 
ATOM     28  F   UNL     1       9.487  16.984  18.897  0.00  0.00    +0.000 F 
ATOM     29  C   UNL     1      10.797  15.884  17.297  0.00  0.00    +0.000 A 
ATOM     30  C   UNL     1      11.281  14.679  16.798  0.00  0.00    +0.000 A 
ATOM     31  C   UNL     1      10.933  13.448  17.401  0.00  0.00    +0.000 A 
ATOM     32  C   UNL     1      10.082  13.379  18.525  0.00  0.00    +0.000 A 
ENDBRANCH  20  21
ENDBRANCH  19  20
ENDBRANCH  18  19
ENDBRANCH   4  18
TORSDOF 7
ENDMDL
MODEL 3
REMARK VINA RESULT:      -8.4      1.550      2.131
REMARK  Name = 
REMARK  7 active torsions:
REMARK  status: ('A' for Active; 'I' for Inactive)
REMARK    1  A    between atoms: C_2  and  C_3
REMARK    2  A    between atoms: C_3  and  C_4
REMARK    3  A    between atoms: N_10  and  C_11
REMARK    4  A    between atoms: N_14  and  C_15
REMARK    5  A    between atoms: C_15  and  C_16
REMARK    6  A    between atoms: C_16  and  C_17
REMARK    7  A    between atoms: C_17  and  N_18
REMARK                            x       y       z     vdW  Elec       q    Type
REMARK                         _______ _______ _______ _____ _____    ______ ____
ROOT
ATOM      1  C   UNL     1      -1.190  12.631  20.171  0.00  0.00    +0.000 C 
ATOM      2  C   UNL     1      -0.037  13.304  19.420  0.00  0.00    +0.000 C 
ATOM      3  C   UNL     1       0.625  12.361  18.386  0.00  0.00    +0.000 C 
ATOM      4  N   UNL     1       1.058  11.088  18.973  0.00  0.00    +0.000 NA
ATOM      5  C   UNL     1       0.010  10.423  19.745  0.00  0.00    +0.000 C 
ATOM      6  C   UNL     1      -0.647  11.347  20.797  0.00  0.00    +0.000 C 
ENDROOT
BRANCH   1   9
ATOM      7  O   UNL     1      -3.978  12.628  20.921  0.00  0.00    +0.000 OA
ATOM      8  C   UNL     1      -3.650  12.348  19.773  0.00  0.00    +0.000 C 
ATOM      9  N   UNL     1      -2.345  12.330  19.325  0.00  0.00    +0.000 N 
ATOM     10  H   UNL     1      -2.177  11.775  18.496  0.00  0.00    +0.000 HD
BRANCH   8  11
ATOM     11  C   UNL     1      -4.658  12.013  18.681  0.00  0.00    +0.000 C 
BRANCH  11  12
ATOM     12  C   UNL     1      -4.083  11.209  17.543  0.00  0.00    +0.000 A 
ATOM     13  C   UNL     1      -4.329  11.586  16.212  0.00  0.00    +0.000 A 
ATOM     14  C   UNL     1      -3.760  10.872  15.155  0.00  0.00    +0.000 A 
ATOM     15  C   UNL     1      -2.941   9.777  15.411  0.00  0.00    +0.000 A 
ATOM     16  C   UNL     1      -2.689   9.395  16.730  0.00  0.00    +0.000 A 
ATOM     17  C   UNL     1      -3.249  10.105  17.785  0.00  0.00    +0.000 A 
ENDBRANCH  11  12
ENDBRANCH   8  11
ENDBRANCH   1   9
BRANCH   4  18
ATOM     18  C   UNL     1       1.926  10.209  18.139  0.00  0.00    +0.000 C 
BRANCH  18  19
ATOM     19  C   UNL     1       1.701   8.675  17.864  0.00  0.00    +0.000 C 
BRANCH  19  20
ATOM     20  C   UNL     1       2.536   7.737  18.882  0.00  0.00    +0.000 C 
BRANCH  20  21
ATOM     21  N   UNL     1       3.093   6.383  18.516  0.00  0.00    +0.000 N 
ATOM     22  C   UNL     1       4.188   6.271  17.672  0.00  0.00    +0.000 C 
ATOM     23  O   UNL     1       5.033   7.158  17.534  0.00  0.00    +0.000 OA
ATOM     24  C   UNL     1       4.304   5.039  16.799  0.00  0.00    +0.000 C 
ATOM     25  C   UNL     1       3.466   3.839  17.126  0.00  0.00    +0.000 C 
ATOM     26  C   UNL     1       2.728   3.926  18.416  0.00  0.00    +0.000 A 
ATOM     27  C   UNL     1       2.172   2.718  18.907  0.00  0.00    +0.000 A 
ATOM     28  F   UNL     1       2.389   1.580  18.241  0.00  0.00    +0.000 F 
ATOM     29  C   UNL     1       1.384   2.695  20.038  0.00  0.00    +0.000 A 
ATOM     30  C   UNL     1       1.157   3.897  20.700  0.00  0.00    +0.000 A 
ATOM     31  C   UNL     1       1.702   5.110  20.217  0.00  0.00    +0.000 A 
ATOM     32  C   UNL     1       2.491   5.162  19.048  0.00  0.00    +0.000 A 
ENDBRANCH  20  21
ENDBRANCH  19  20
ENDBRANCH  18  19
ENDBRANCH   4  18
TORSDOF 7
ENDMDL
MODEL 4
REMARK VINA RESULT:      -8.2      1.396      1.923
REMARK  Name = 
REMARK  7 active torsions:
REMARK  status: ('A' for Active; 'I' for Inactive)
REMARK    1  A    between atoms: C_2  and  C_3
REMARK    2  A    between atoms: C_3  and  C_4
REMARK    3  A    between atoms: N_10  and  C_11
REMARK    4  A    between atoms: N_14  and  C_15
REMARK    5  A    between atoms: C_15  and  C_16
REMARK    6  A    between atoms: C_16  and  C_17
REMARK    7  A    between atoms: C_17  and  N_18
REMARK                            x       y       z     vdW  Elec       q    Type
REMARK                         _______ _______ _______ _____ _____    ______ ____
ROOT
ATOM      1  C   UNL     1      -0.339  12.938  20.379  0.00  0.00    +0.000 C 
ATOM      2  C   UNL     1       0.772  13.460  19.463  0.00  0.00    +0.000 C 
ATOM      3  C   UNL     1       1.215  12.411  18.414  0.00  0.00    +0.000 C 
ATOM      4  N   UNL     1       1.597  11.129  19.017  0.00  0.00    +0.000 NA
ATOM      5  C   UNL     1       0.593  10.606  19.942  0.00  0.00    +0.000 C 
ATOM      6  C   UNL     1       0.156  11.636  21.009  0.00  0.00    +0.000 C 
ENDROOT
BRANCH   1   9
ATOM      7  O   UNL     1      -2.895  12.294  21.555  0.00  0.00    +0.000 OA
ATOM      8  C   UNL     1      -2.789  12.403  20.338  0.00  0.00    +0.000 C 
ATOM      9  N   UNL     1      -1.610  12.713  19.691  0.00  0.00    +0.000 N 
ATOM     10  H   UNL     1      -1.566  12.447  18.716  0.00  0.00    +0.000 HD
BRANCH   8  11
ATOM     11  C   UNL     1      -3.965  12.239  19.386  0.00  0.00    +0.000 C 
BRANCH  11  12
ATOM     12  C   UNL     1      -3.633  11.475  18.129  0.00  0.00    +0.000 A 
ATOM     13  C   UNL     1      -2.587  10.537  18.124  0.00  0.00    +0.000 A 
ATOM     14  C   UNL     1      -2.306   9.792  16.976  0.00  0.00    +0.000 A 
ATOM     15  C   UNL     1      -3.062   9.974  15.822  0.00  0.00    +0.000 A 
ATOM     16  C   UNL     1      -4.104  10.902  15.816  0.00  0.00    +0.000 A 
ATOM     17  C   UNL     1      -4.390  11.641  16.958  0.00  0.00    +0.000 A 
ENDBRANCH  11  12
ENDBRANCH   8  11
ENDBRANCH   1   9
BRANCH   4  18
ATOM     18  C   UNL     1       2.273  10.133  18.139  0.00  0.00    +0.000 C 
BRANCH  18  19
ATOM     19  C   UNL     1       1.801   8.653  17.880  0.00  0.00    +0.000 C 
BRANCH  19  20
ATOM     20  C   UNL     1       2.423   7.611  18.947  0.00  0.00    +0.000 C 
BRANCH  20  21
ATOM     21  N   UNL     1       3.048   6.290  18.569  0.00  0.00    +0.000 N 
ATOM     22  C   UNL     1       4.157   6.242  17.736  0.00  0.00    +0.000 C 
ATOM     23  O   UNL     1       4.959   7.170  17.621  0.00  0.00    +0.000 OA
ATOM     24  C   UNL     1       4.340   5.029  16.848  0.00  0.00    +0.000 C 
ATOM     25  C   UNL     1       3.556   3.786  17.150  0.00  0.00    +0.000 C 
ATOM     26  C   UNL     1       2.801   3.820  18.432  0.00  0.00    +0.000 A 
ATOM     27  C   UNL     1       2.298   2.580  18.901  0.00  0.00    +0.000 A 
ATOM     28  F   UNL     1       2.575   1.464  18.221  0.00  0.00    +0.000 F 
ATOM     29  C   UNL     1       1.499   2.504  20.022  0.00  0.00    +0.000 A 
ATOM     30  C   UNL     1       1.208   3.685  20.697  0.00  0.00    +0.000 A 
ATOM     31  C   UNL     1       1.700   4.929  20.236  0.00  0.00    +0.000 A 
ATOM     32  C   UNL     1       2.499   5.035  19.078  0.00  0.00    +0.000 A 
ENDBRANCH  20  21
ENDBRANCH  19  20
ENDBRANCH  18  19
ENDBRANCH   4  18
TORSDOF 7
ENDMDL
MODEL 5
REMARK VINA RESULT:      -8.1      2.797      4.328
REMARK  Name = 
REMARK  7 active torsions:
REMARK  status: ('A' for Active; 'I' for Inactive)
REMARK    1  A    between atoms: C_2  and  C_3
REMARK    2  A    between atoms: C_3  and  C_4
REMARK    3  A    between atoms: N_10  and  C_11
REMARK    4  A    between atoms: N_14  and  C_15
REMARK    5  A    between atoms: C_15  and  C_16
REMARK    6  A    between atoms: C_16  and  C_17
REMARK    7  A    between atoms: C_17  and  N_18
REMARK                            x       y       z     vdW  Elec       q    Type
REMARK                         _______ _______ _______ _____ _____    ______ ____
ROOT
ATOM      1  C   UNL     1       0.656  10.498  18.611  0.00  0.00    +0.000 C 
ATOM      2  C   UNL     1       1.899  10.033  17.847  0.00  0.00    +0.000 C 
ATOM      3  C   UNL     1       2.116   8.503  17.946  0.00  0.00    +0.000 C 
ATOM      4  N   UNL     1       2.146   8.021  19.331  0.00  0.00    +0.000 NA
ATOM      5  C   UNL     1       1.006   8.476  20.124  0.00  0.00    +0.000 C 
ATOM      6  C   UNL     1       0.789  10.006  20.053  0.00  0.00    +0.000 C 
ENDROOT
BRANCH   1   9
ATOM      7  O   UNL     1      -1.991  11.581  19.004  0.00  0.00    +0.000 OA
ATOM      8  C   UNL     1      -1.828  10.605  18.280  0.00  0.00    +0.000 C 
ATOM      9  N   UNL     1      -0.601  10.024  18.031  0.00  0.00    +0.000 N 
ATOM     10  H   UNL     1      -0.630   9.063  17.716  0.00  0.00    +0.000 HD
BRANCH   8  11
ATOM     11  C   UNL     1      -2.969   9.925  17.536  0.00  0.00    +0.000 C 
BRANCH  11  12
ATOM     12  C   UNL     1      -4.298  10.621  17.688  0.00  0.00    +0.000 A 
ATOM     13  C   UNL     1      -4.595  11.761  16.923  0.00  0.00    +0.000 A 
ATOM     14  C   UNL     1      -5.843  12.381  17.026  0.00  0.00    +0.000 A 
ATOM     15  C   UNL     1      -6.807  11.873  17.891  0.00  0.00    +0.000 A 
ATOM     16  C   UNL     1      -6.523  10.740  18.655  0.00  0.00    +0.000 A 
ATOM     17  C   UNL     1      -5.285  10.117  18.552  0.00  0.00    +0.000 A 
ENDBRANCH  11  12
ENDBRANCH   8  11
ENDBRANCH   1   9
BRANCH   4  18
ATOM     18  C   UNL     1       2.595   6.618  19.559  0.00  0.00    +0.000 C 
BRANCH  18  19
ATOM     19  C   UNL     1       2.779   5.512  18.453  0.00  0.00    +0.000 C 
BRANCH  19  20
ATOM     20  C   UNL     1       4.101   4.614  18.693  0.00  0.00    +0.000 C 
BRANCH  20  21
ATOM     21  N   UNL     1       5.446   4.913  18.078  0.00  0.00    +0.000 N 
ATOM     22  C   UNL     1       6.478   5.434  18.846  0.00  0.00    +0.000 C 
ATOM     23  O   UNL     1       6.565   5.272  20.064  0.00  0.00    +0.000 OA
ATOM     24  C   UNL     1       7.497   6.330  18.173  0.00  0.00    +0.000 C 
ATOM     25  C   UNL     1       7.583   6.331  16.675  0.00  0.00    +0.000 C 
ATOM     26  C   UNL     1       6.763   5.287  16.002  0.00  0.00    +0.000 A 
ATOM     27  C   UNL     1       7.040   5.055  14.631  0.00  0.00    +0.000 A 
ATOM     28  F   UNL     1       8.040   5.719  14.045  0.00  0.00    +0.000 F 
ATOM     29  C   UNL     1       6.278   4.185  13.880  0.00  0.00    +0.000 A 
ATOM     30  C   UNL     1       5.229   3.524  14.511  0.00  0.00    +0.000 A 
ATOM     31  C   UNL     1       4.940   3.751  15.877  0.00  0.00    +0.000 A 
ATOM     32  C   UNL     1       5.690   4.655  16.660  0.00  0.00    +0.000 A 
ENDBRANCH  20  21
ENDBRANCH  19  20
ENDBRANCH  18  19
ENDBRANCH   4  18
TORSDOF 7
ENDMDL
MODEL 6
REMARK VINA RESULT:      -8.1      6.541     10.066
REMARK  Name = 
REMARK  7 active torsions:
REMARK  status: ('A' for Active; 'I' for Inactive)
REMARK    1  A    between atoms: C_2  and  C_3
REMARK    2  A    between atoms: C_3  and  C_4
REMARK    3  A    between atoms: N_10  and  C_11
REMARK    4  A    between atoms: N_14  and  C_15
REMARK    5  A    between atoms: C_15  and  C_16
REMARK    6  A    between atoms: C_16  and  C_17
REMARK    7  A    between atoms: C_17  and  N_18
REMARK                            x       y       z     vdW  Elec       q    Type
REMARK                         _______ _______ _______ _____ _____    ______ ____
ROOT
ATOM      1  C   UNL     1       5.048   5.283  17.715  0.00  0.00    +0.000 C 
ATOM      2  C   UNL     1       6.394   4.716  18.174  0.00  0.00    +0.000 C 
ATOM      3  C   UNL     1       7.313   5.800  18.790  0.00  0.00    +0.000 C 
ATOM      4  N   UNL     1       7.508   6.952  17.904  0.00  0.00    +0.000 NA
ATOM      5  C   UNL     1       6.255   7.505  17.394  0.00  0.00    +0.000 C 
ATOM      6  C   UNL     1       5.335   6.438  16.755  0.00  0.00    +0.000 C 
ENDROOT
BRANCH   1   9
ATOM      7  O   UNL     1       2.168   5.180  17.886  0.00  0.00    +0.000 OA
ATOM      8  C   UNL     1       2.821   5.657  18.807  0.00  0.00    +0.000 C 
ATOM      9  N   UNL     1       4.199   5.742  18.814  0.00  0.00    +0.000 N 
ATOM     10  H   UNL     1       4.588   6.435  19.440  0.00  0.00    +0.000 HD
BRANCH   8  11
ATOM     11  C   UNL     1       2.186   6.190  20.084  0.00  0.00    +0.000 C 
BRANCH  11  12
ATOM     12  C   UNL     1       1.701   7.614  19.978  0.00  0.00    +0.000 A 
ATOM     13  C   UNL     1       1.141   8.259  21.093  0.00  0.00    +0.000 A 
ATOM     14  C   UNL     1       0.734   9.593  21.012  0.00  0.00    +0.000 A 
ATOM     15  C   UNL     1       0.879  10.297  19.821  0.00  0.00    +0.000 A 
ATOM     16  C   UNL     1       1.436   9.667  18.708  0.00  0.00    +0.000 A 
ATOM     17  C   UNL     1       1.847   8.341  18.785  0.00  0.00    +0.000 A 
ENDBRANCH  11  12
ENDBRANCH   8  11
ENDBRANCH   1   9
BRANCH   4  18
ATOM     18  C   UNL     1       8.564   7.935  18.279  0.00  0.00    +0.000 C 
BRANCH  18  19
ATOM     19  C   UNL     1       8.400   9.501  18.319  0.00  0.00    +0.000 C 
BRANCH  19  20
ATOM     20  C   UNL     1       9.374  10.195  19.406  0.00  0.00    +0.000 C 
BRANCH  20  21
ATOM     21  N   UNL     1       9.438  11.683  19.651  0.00  0.00    +0.000 N 
ATOM     22  C   UNL     1       8.906  12.236  20.807  0.00  0.00    +0.000 C 
ATOM     23  O   UNL     1       8.778  11.611  21.861  0.00  0.00    +0.000 OA
ATOM     24  C   UNL     1       8.363  13.649  20.748  0.00  0.00    +0.000 C 
ATOM     25  C   UNL     1       8.739  14.521  19.587  0.00  0.00    +0.000 C 
ATOM     26  C   UNL     1       9.781  13.950  18.690  0.00  0.00    +0.000 A 
ATOM     27  C   UNL     1      10.379  14.847  17.768  0.00  0.00    +0.000 A 
ATOM     28  F   UNL     1      10.034  16.137  17.795  0.00  0.00    +0.000 F 
ATOM     29  C   UNL     1      11.281  14.411  16.821  0.00  0.00    +0.000 A 
ATOM     30  C   UNL     1      11.605  13.058  16.802  0.00  0.00    +0.000 A 
ATOM     31  C   UNL     1      11.011  12.153  17.714  0.00  0.00    +0.000 A 
ATOM     32  C   UNL     1      10.067  12.572  18.675  0.00  0.00    +0.000 A 
ENDBRANCH  20  21
ENDBRANCH  19  20
ENDBRANCH  18  19
ENDBRANCH   4  18
TORSDOF 7
ENDMDL
MODEL 7
REMARK VINA RESULT:      -8.1      7.600     10.863
REMARK  Name = 
REMARK  7 active torsions:
REMARK  status: ('A' for Active; 'I' for Inactive)
REMARK    1  A    between atoms: C_2  and  C_3
REMARK    2  A    between atoms: C_3  and  C_4
REMARK    3  A    between atoms: N_10  and  C_11
REMARK    4  A    between atoms: N_14  and  C_15
REMARK    5  A    between atoms: C_15  and  C_16
REMARK    6  A    between atoms: C_16  and  C_17
REMARK    7  A    between atoms: C_17  and  N_18
REMARK                            x       y       z     vdW  Elec       q    Type
REMARK                         _______ _______ _______ _____ _____    ______ ____
ROOT
ATOM      1  C   UNL     1       6.494   4.807  17.696  0.00  0.00    +0.000 C 
ATOM      2  C   UNL     1       7.524   5.222  18.751  0.00  0.00    +0.000 C 
ATOM      3  C   UNL     1       7.621   6.759  18.910  0.00  0.00    +0.000 C 
ATOM      4  N   UNL     1       7.870   7.449  17.639  0.00  0.00    +0.000 NA
ATOM      5  C   UNL     1       6.946   7.053  16.578  0.00  0.00    +0.000 C 
ATOM      6  C   UNL     1       6.855   5.520  16.392  0.00  0.00    +0.000 C 
ENDROOT
BRANCH   1   9
ATOM      7  O   UNL     1       4.072   3.879  16.429  0.00  0.00    +0.000 OA
ATOM      8  C   UNL     1       4.010   4.624  17.401  0.00  0.00    +0.000 C 
ATOM      9  N   UNL     1       5.114   5.111  18.071  0.00  0.00    +0.000 N 
ATOM     10  H   UNL     1       4.958   5.952  18.613  0.00  0.00    +0.000 HD
BRANCH   8  11
ATOM     11  C   UNL     1       2.693   5.082  18.012  0.00  0.00    +0.000 C 
BRANCH  11  12
ATOM     12  C   UNL     1       2.248   4.259  19.194  0.00  0.00    +0.000 A 
ATOM     13  C   UNL     1       1.515   3.076  19.001  0.00  0.00    +0.000 A 
ATOM     14  C   UNL     1       1.142   2.285  20.091  0.00  0.00    +0.000 A 
ATOM     15  C   UNL     1       1.493   2.664  21.382  0.00  0.00    +0.000 A 
ATOM     16  C   UNL     1       2.222   3.837  21.586  0.00  0.00    +0.000 A 
ATOM     17  C   UNL     1       2.600   4.624  20.504  0.00  0.00    +0.000 A 
ENDBRANCH  11  12
ENDBRANCH   8  11
ENDBRANCH   1   9
BRANCH   4  18
ATOM     18  C   UNL     1       8.229   8.894  17.702  0.00  0.00    +0.000 C 
BRANCH  18  19
ATOM     19  C   UNL     1       9.013   9.605  18.868  0.00  0.00    +0.000 C 
BRANCH  19  20
ATOM     20  C   UNL     1       9.477  11.102  18.477  0.00  0.00    +0.000 C 
BRANCH  20  21
ATOM     21  N   UNL     1       9.422  12.276  19.424  0.00  0.00    +0.000 N 
ATOM     22  C   UNL     1      10.217  12.308  20.561  0.00  0.00    +0.000 C 
ATOM     23  O   UNL     1      11.282  11.696  20.662  0.00  0.00    +0.000 OA
ATOM     24  C   UNL     1       9.707  13.050  21.778  0.00  0.00    +0.000 C 
ATOM     25  C   UNL     1       8.570  14.016  21.613  0.00  0.00    +0.000 C 
ATOM     26  C   UNL     1       8.179  14.283  20.202  0.00  0.00    +0.000 A 
ATOM     27  C   UNL     1       7.329  15.397  19.984  0.00  0.00    +0.000 A 
ATOM     28  F   UNL     1       6.985  16.169  21.019  0.00  0.00    +0.000 F 
ATOM     29  C   UNL     1       6.820  15.682  18.735  0.00  0.00    +0.000 A 
ATOM     30  C   UNL     1       7.178  14.848  17.679  0.00  0.00    +0.000 A 
ATOM     31  C   UNL     1       8.021  13.731  17.886  0.00  0.00    +0.000 A 
ATOM     32  C   UNL     1       8.533  13.406  19.159  0.00  0.00    +0.000 A 
ENDBRANCH  20  21
ENDBRANCH  19  20
ENDBRANCH  18  19
ENDBRANCH   4  18
TORSDOF 7
ENDMDL
MODEL 8
REMARK VINA RESULT:      -8.0      3.398     10.119
REMARK  Name = 
REMARK  7 active torsions:
REMARK  status: ('A' for Active; 'I' for Inactive)
REMARK    1  A    between atoms: C_2  and  C_3
REMARK    2  A    between atoms: C_3  and  C_4
REMARK    3  A    between atoms: N_10  and  C_11
REMARK    4  A    between atoms: N_14  and  C_15
REMARK    5  A    between atoms: C_15  and  C_16
REMARK    6  A    between atoms: C_16  and  C_17
REMARK    7  A    between atoms: C_17  and  N_18
REMARK                            x       y       z     vdW  Elec       q    Type
REMARK                         _______ _______ _______ _____ _____    ______ ____
ROOT
ATOM      1  C   UNL     1       2.316   4.917  19.508  0.00  0.00    +0.000 C 
ATOM      2  C   UNL     1       1.787   5.288  18.120  0.00  0.00    +0.000 C 
ATOM      3  C   UNL     1       2.133   6.745  17.725  0.00  0.00    +0.000 C 
ATOM      4  N   UNL     1       1.698   7.724  18.726  0.00  0.00    +0.000 NA
ATOM      5  C   UNL     1       2.133   7.394  20.082  0.00  0.00    +0.000 C 
ATOM      6  C   UNL     1       1.775   5.948  20.499  0.00  0.00    +0.000 C 
ENDROOT
BRANCH   1   9
ATOM      7  O   UNL     1       4.081   3.009  18.254  0.00  0.00    +0.000 OA
ATOM      8  C   UNL     1       4.542   3.904  18.953  0.00  0.00    +0.000 C 
ATOM      9  N   UNL     1       3.776   4.862  19.585  0.00  0.00    +0.000 N 
ATOM     10  H   UNL     1       4.213   5.317  20.376  0.00  0.00    +0.000 HD
BRANCH   8  11
ATOM     11  C   UNL     1       6.036   4.089  19.185  0.00  0.00    +0.000 C 
BRANCH  11  12
ATOM     12  C   UNL     1       6.586   5.379  18.631  0.00  0.00    +0.000 A 
ATOM     13  C   UNL     1       7.720   5.974  19.209  0.00  0.00    +0.000 A 
ATOM     14  C   UNL     1       8.262   7.143  18.670  0.00  0.00    +0.000 A 
ATOM     15  C   UNL     1       7.680   7.733  17.552  0.00  0.00    +0.000 A 
ATOM     16  C   UNL     1       6.554   7.150  16.969  0.00  0.00    +0.000 A 
ATOM     17  C   UNL     1       6.015   5.983  17.499  0.00  0.00    +0.000 A 
ENDBRANCH  11  12
ENDBRANCH   8  11
ENDBRANCH   1   9
BRANCH   4  18
ATOM     18  C   UNL     1       1.751   9.164  18.344  0.00  0.00    +0.000 C 
BRANCH  18  19
ATOM     19  C   UNL     1       1.173  10.367  19.180  0.00  0.00    +0.000 C 
BRANCH  19  20
ATOM     20  C   UNL     1      -0.359  10.123  19.634  0.00  0.00    +0.000 C 
BRANCH  20  21
ATOM     21  N   UNL     1      -1.491  11.070  19.318  0.00  0.00    +0.000 N 
ATOM     22  C   UNL     1      -1.790  12.127  20.166  0.00  0.00    +0.000 C 
ATOM     23  O   UNL     1      -0.965  12.646  20.920  0.00  0.00    +0.000 OA
ATOM     24  C   UNL     1      -3.224  12.606  20.245  0.00  0.00    +0.000 C 
ATOM     25  C   UNL     1      -4.185  12.195  19.169  0.00  0.00    +0.000 C 
ATOM     26  C   UNL     1      -3.563  11.494  18.012  0.00  0.00    +0.000 A 
ATOM     27  C   UNL     1      -4.367  11.357  16.852  0.00  0.00    +0.000 A 
ATOM     28  F   UNL     1      -5.585  11.907  16.833  0.00  0.00    +0.000 F 
ATOM     29  C   UNL     1      -3.936  10.640  15.756  0.00  0.00    +0.000 A 
ATOM     30  C   UNL     1      -2.672  10.061  15.813  0.00  0.00    +0.000 A 
ATOM     31  C   UNL     1      -1.863  10.186  16.967  0.00  0.00    +0.000 A 
ATOM     32  C   UNL     1      -2.293  10.894  18.109  0.00  0.00    +0.000 A 
ENDBRANCH  20  21
ENDBRANCH  19  20
ENDBRANCH  18  19
ENDBRANCH   4  18
TORSDOF 7
ENDMDL
MODEL 9
REMARK VINA RESULT:      -8.0      6.614     10.753
REMARK  Name = 
REMARK  7 active torsions:
REMARK  status: ('A' for Active; 'I' for Inactive)
REMARK    1  A    between atoms: C_2  and  C_3
REMARK    2  A    between atoms: C_3  and  C_4
REMARK    3  A    between atoms: N_10  and  C_11
REMARK    4  A    between atoms: N_14  and  C_15
REMARK    5  A    between atoms: C_15  and  C_16
REMARK    6  A    between atoms: C_16  and  C_17
REMARK    7  A    between atoms: C_17  and  N_18
REMARK                            x       y       z     vdW  Elec       q    Type
REMARK                         _______ _______ _______ _____ _____    ______ ____
ROOT
ATOM      1  C   UNL     1       6.368   4.658  17.212  0.00  0.00    +0.000 C 
ATOM      2  C   UNL     1       7.653   5.015  17.965  0.00  0.00    +0.000 C 
ATOM      3  C   UNL     1       7.631   6.461  18.518  0.00  0.00    +0.000 C 
ATOM      4  N   UNL     1       7.338   7.461  17.486  0.00  0.00    +0.000 NA
ATOM      5  C   UNL     1       6.147   7.145  16.699  0.00  0.00    +0.000 C 
ATOM      6  C   UNL     1       6.164   5.710  16.122  0.00  0.00    +0.000 C 
ENDROOT
BRANCH   1   9
ATOM      7  O   UNL     1       3.890   3.272  16.691  0.00  0.00    +0.000 OA
ATOM      8  C   UNL     1       4.036   3.899  17.735  0.00  0.00    +0.000 C 
ATOM      9  N   UNL     1       5.186   4.584  18.070  0.00  0.00    +0.000 N 
ATOM     10  H   UNL     1       5.071   5.315  18.761  0.00  0.00    +0.000 HD
BRANCH   8  11
ATOM     11  C   UNL     1       2.965   3.970  18.815  0.00  0.00    +0.000 C 
BRANCH  11  12
ATOM     12  C   UNL     1       2.509   5.371  19.133  0.00  0.00    +0.000 A 
ATOM     13  C   UNL     1       2.013   5.685  20.410  0.00  0.00    +0.000 A 
ATOM     14  C   UNL     1       1.634   6.992  20.724  0.00  0.00    +0.000 A 
ATOM     15  C   UNL     1       1.744   8.000  19.771  0.00  0.00    +0.000 A 
ATOM     16  C   UNL     1       2.236   7.701  18.500  0.00  0.00    +0.000 A 
ATOM     17  C   UNL     1       2.620   6.402  18.185  0.00  0.00    +0.000 A 
ENDBRANCH  11  12
ENDBRANCH   8  11
ENDBRANCH   1   9
BRANCH   4  18
ATOM     18  C   UNL     1       7.536   8.895  17.844  0.00  0.00    +0.000 C 
BRANCH  18  19
ATOM     19  C   UNL     1       8.901   9.677  17.815  0.00  0.00    +0.000 C 
BRANCH  19  20
ATOM     20  C   UNL     1       9.331  10.223  19.274  0.00  0.00    +0.000 C 
BRANCH  20  21
ATOM     21  N   UNL     1       9.450  11.686  19.625  0.00  0.00    +0.000 N 
ATOM     22  C   UNL     1       8.974  12.166  20.837  0.00  0.00    +0.000 C 
ATOM     23  O   UNL     1       8.861  11.469  21.846  0.00  0.00    +0.000 OA
ATOM     24  C   UNL     1       8.474  13.595  20.901  0.00  0.00    +0.000 C 
ATOM     25  C   UNL     1       8.839  14.539  19.794  0.00  0.00    +0.000 C 
ATOM     26  C   UNL     1       9.832  14.007  18.822  0.00  0.00    +0.000 A 
ATOM     27  C   UNL     1      10.427  14.952  17.948  0.00  0.00    +0.000 A 
ATOM     28  F   UNL     1      10.125  16.247  18.081  0.00  0.00    +0.000 F 
ATOM     29  C   UNL     1      11.284  14.562  16.940  0.00  0.00    +0.000 A 
ATOM     30  C   UNL     1      11.564  13.205  16.810  0.00  0.00    +0.000 A 
ATOM     31  C   UNL     1      10.972  12.253  17.673  0.00  0.00    +0.000 A 
ATOM     32  C   UNL     1      10.074  12.626  18.695  0.00  0.00    +0.000 A 
ENDBRANCH  20  21
ENDBRANCH  19  20
ENDBRANCH  18  19
ENDBRANCH   4  18
TORSDOF 7
ENDMDL
