MODEL 1
REMARK VINA RESULT:      -8.4      0.000      0.000
REMARK  Name = 
REMARK  7 active torsions:
REMARK  status: ('A' for Active; 'I' for Inactive)
REMARK    1  A    between atoms: C_1  and  N_2
REMARK    2  A    between atoms: C_5  and  O_6
REMARK    3  A    between atoms: C_5  and  C_7
REMARK    4  A    between atoms: C_8  and  C_9
REMARK    5  A    between atoms: C_17  and  C_18
REMARK    6  A    between atoms: C_21  and  C_22
REMARK    7  A    between atoms: C_22  and  O_23
REMARK                            x       y       z     vdW  Elec       q    Type
REMARK                         _______ _______ _______ _____ _____    ______ ____
ROOT
ATOM      1  C   UNL     1       1.869   7.095  20.298  0.00  0.00    +0.000 A 
ATOM      2  C   UNL     1       1.239   6.045  20.961  0.00  0.00    +0.000 A 
ATOM      3  C   UNL     1       1.637   4.730  20.719  0.00  0.00    +0.000 A 
ATOM      4  C   UNL     1       2.632   4.428  19.779  0.00  0.00    +0.000 A 
ATOM      5  C   UNL     1       3.275   5.479  19.109  0.00  0.00    +0.000 A 
ATOM      6  C   UNL     1       2.908   6.817  19.395  0.00  0.00    +0.000 A 
ATOM      7  N   UNL     1       4.244   5.249  18.098  0.00  0.00    +0.000 N 
ATOM      8  N   UNL     1       5.245   6.132  17.843  0.00  0.00    +0.000 NA
ATOM      9  C   UNL     1       5.928   5.592  16.814  0.00  0.00    +0.000 A 
ATOM     10  C   UNL     1       5.329   4.382  16.359  0.00  0.00    +0.000 A 
ATOM     11  C   UNL     1       4.250   4.197  17.206  0.00  0.00    +0.000 A 
ATOM     12  C   UNL     1       3.190   3.157  17.261  0.00  0.00    +0.000 C 
ATOM     13  C   UNL     1       3.295   2.400  18.574  0.00  0.00    +0.000 C 
ATOM     14  O   UNL     1       2.922   3.097  19.759  0.00  0.00    +0.000 OA
ENDROOT
BRANCH   9  15
ATOM     15  C   UNL     1       7.151   6.196  16.264  0.00  0.00    +0.000 C 
ATOM     16  N   UNL     1       7.687   7.208  17.006  0.00  0.00    +0.000 N 
ATOM     17  O   UNL     1       7.719   5.778  15.256  0.00  0.00    +0.000 OA
ATOM     18  H   UNL     1       7.267   7.447  17.896  0.00  0.00    +0.000 HD
ATOM     19  H   UNL     1       8.569   7.607  16.727  0.00  0.00    +0.000 HD
ENDBRANCH   9  15
BRANCH   1  21
ATOM     20  C   UNL     1       0.980   9.542  20.747  0.00  0.00    +0.000 C 
ATOM     21  C   UNL     1       1.393   8.438  20.516  0.00  0.00    +0.000 C 
BRANCH  20  26
ATOM     22  C   UNL     1       0.672  14.023  19.066  0.00  0.00    +0.000 C 
ATOM     23  N   UNL     1       0.404  12.702  19.586  0.00  0.00    +0.000 N 
ATOM     24  C   UNL     1      -0.642  11.852  19.089  0.00  0.00    +0.000 C 
ATOM     25  C   UNL     1      -0.992  10.995  20.290  0.00  0.00    +0.000 C 
ATOM     26  C   UNL     1       0.330  10.833  21.051  0.00  0.00    +0.000 C 
ATOM     27  C   UNL     1       1.130  12.088  20.602  0.00  0.00    +0.000 C 
ATOM     28  O   UNL     1       2.137  12.541  21.124  0.00  0.00    +0.000 OA
BRANCH  26  29
ATOM     29  O   UNL     1       0.053  10.871  22.450  0.00  0.00    +0.000 OA
ATOM     30  H   UNL     1       0.764  11.393  22.861  0.00  0.00    +0.000 HD
ENDBRANCH  26  29
ENDBRANCH  20  26
ENDBRANCH   1  21
BRANCH  10  31
ATOM     31  C   UNL     1       5.807   3.542  15.224  0.00  0.00    +0.000 C 
BRANCH  31  32
ATOM     32  O   UNL     1       5.516   4.144  13.967  0.00  0.00    +0.000 OA
ATOM     33  H   UNL     1       6.370   4.212  13.498  0.00  0.00    +0.000 HD
ENDBRANCH  31  32
ENDBRANCH  10  31
TORSDOF 6
ENDMDL
MODEL 2
REMARK VINA RESULT:      -8.1      6.413     10.661
REMARK  Name = 
REMARK  7 active torsions:
REMARK  status: ('A' for Active; 'I' for Inactive)
REMARK    1  A    between atoms: C_1  and  N_2
REMARK    2  A    between atoms: C_5  and  O_6
REMARK    3  A    between atoms: C_5  and  C_7
REMARK    4  A    between atoms: C_8  and  C_9
REMARK    5  A    between atoms: C_17  and  C_18
REMARK    6  A    between atoms: C_21  and  C_22
REMARK    7  A    between atoms: C_22  and  O_23
REMARK                            x       y       z     vdW  Elec       q    Type
REMARK                         _______ _______ _______ _____ _____    ______ ____
ROOT
ATOM      1  C   UNL     1       9.019   9.997  18.592  0.00  0.00    +0.000 A 
ATOM      2  C   UNL     1       9.977  10.576  17.764  0.00  0.00    +0.000 A 
ATOM      3  C   UNL     1      10.678  11.703  18.191  0.00  0.00    +0.000 A 
ATOM      4  C   UNL     1      10.407  12.309  19.426  0.00  0.00    +0.000 A 
ATOM      5  C   UNL     1       9.446  11.732  20.269  0.00  0.00    +0.000 A 
ATOM      6  C   UNL     1       8.774  10.555  19.859  0.00  0.00    +0.000 A 
ATOM      7  N   UNL     1       9.072  12.324  21.504  0.00  0.00    +0.000 N 
ATOM      8  N   UNL     1       8.622  11.586  22.552  0.00  0.00    +0.000 NA
ATOM      9  C   UNL     1       8.341  12.487  23.514  0.00  0.00    +0.000 A 
ATOM     10  C   UNL     1       8.553  13.822  23.065  0.00  0.00    +0.000 A 
ATOM     11  C   UNL     1       9.019  13.676  21.771  0.00  0.00    +0.000 A 
ATOM     12  C   UNL     1       9.394  14.665  20.726  0.00  0.00    +0.000 C 
ATOM     13  C   UNL     1      10.868  14.512  20.395  0.00  0.00    +0.000 C 
ATOM     14  O   UNL     1      11.258  13.342  19.680  0.00  0.00    +0.000 OA
ENDROOT
BRANCH   9  15
ATOM     15  C   UNL     1       7.892  12.102  24.861  0.00  0.00    +0.000 C 
ATOM     16  N   UNL     1       8.722  12.468  25.880  0.00  0.00    +0.000 N 
ATOM     17  O   UNL     1       6.808  11.565  25.086  0.00  0.00    +0.000 OA
ATOM     18  H   UNL     1       9.546  13.019  25.675  0.00  0.00    +0.000 HD
ATOM     19  H   UNL     1       8.431  12.307  26.832  0.00  0.00    +0.000 HD
ENDBRANCH   9  15
BRANCH   1  21
ATOM     20  C   UNL     1       7.671   7.905  17.710  0.00  0.00    +0.000 C 
ATOM     21  C   UNL     1       8.263   8.874  18.100  0.00  0.00    +0.000 C 
BRANCH  20  26
ATOM     22  C   UNL     1       5.129   4.069  19.066  0.00  0.00    +0.000 C 
ATOM     23  N   UNL     1       5.645   5.241  18.395  0.00  0.00    +0.000 N 
ATOM     24  C   UNL     1       4.816   6.319  17.933  0.00  0.00    +0.000 C 
ATOM     25  C   UNL     1       5.602   6.886  16.766  0.00  0.00    +0.000 C 
ATOM     26  C   UNL     1       7.073   6.675  17.150  0.00  0.00    +0.000 C 
ATOM     27  C   UNL     1       6.992   5.479  18.140  0.00  0.00    +0.000 C 
ATOM     28  O   UNL     1       7.918   4.781  18.523  0.00  0.00    +0.000 OA
BRANCH  26  29
ATOM     29  O   UNL     1       7.800   6.325  15.975  0.00  0.00    +0.000 OA
ATOM     30  H   UNL     1       7.687   7.060  15.346  0.00  0.00    +0.000 HD
ENDBRANCH  26  29
ENDBRANCH  20  26
ENDBRANCH   1  21
BRANCH  10  31
ATOM     31  C   UNL     1       8.315  15.060  23.861  0.00  0.00    +0.000 C 
BRANCH  31  32
ATOM     32  O   UNL     1       9.380  15.311  24.772  0.00  0.00    +0.000 OA
ATOM     33  H   UNL     1       9.294  14.639  25.477  0.00  0.00    +0.000 HD
ENDBRANCH  31  32
ENDBRANCH  10  31
TORSDOF 6
ENDMDL
MODEL 3
REMARK VINA RESULT:      -8.0      0.985      1.216
REMARK  Name = 
REMARK  7 active torsions:
REMARK  status: ('A' for Active; 'I' for Inactive)
REMARK    1  A    between atoms: C_1  and  N_2
REMARK    2  A    between atoms: C_5  and  O_6
REMARK    3  A    between atoms: C_5  and  C_7
REMARK    4  A    between atoms: C_8  and  C_9
REMARK    5  A    between atoms: C_17  and  C_18
REMARK    6  A    between atoms: C_21  and  C_22
REMARK    7  A    between atoms: C_22  and  O_23
REMARK                            x       y       z     vdW  Elec       q    Type
REMARK                         _______ _______ _______ _____ _____    ______ ____
ROOT
ATOM      1  C   UNL     1       1.804   7.355  20.070  0.00  0.00    +0.000 A 
ATOM      2  C   UNL     1       1.225   6.362  20.855  0.00  0.00    +0.000 A 
ATOM      3  C   UNL     1       1.698   5.052  20.782  0.00  0.00    +0.000 A 
ATOM      4  C   UNL     1       2.720   4.692  19.893  0.00  0.00    +0.000 A 
ATOM      5  C   UNL     1       3.312   5.686  19.100  0.00  0.00    +0.000 A 
ATOM      6  C   UNL     1       2.869   7.026  19.215  0.00  0.00    +0.000 A 
ATOM      7  N   UNL     1       4.306   5.386  18.131  0.00  0.00    +0.000 N 
ATOM      8  N   UNL     1       5.259   6.286  17.774  0.00  0.00    +0.000 NA
ATOM      9  C   UNL     1       5.984   5.662  16.824  0.00  0.00    +0.000 A 
ATOM     10  C   UNL     1       5.459   4.372  16.521  0.00  0.00    +0.000 A 
ATOM     11  C   UNL     1       4.382   4.234  17.378  0.00  0.00    +0.000 A 
ATOM     12  C   UNL     1       3.380   3.151  17.557  0.00  0.00    +0.000 C 
ATOM     13  C   UNL     1       3.510   2.570  18.954  0.00  0.00    +0.000 C 
ATOM     14  O   UNL     1       3.084   3.387  20.041  0.00  0.00    +0.000 OA
ENDROOT
BRANCH   9  15
ATOM     15  C   UNL     1       7.179   6.261  16.210  0.00  0.00    +0.000 C 
ATOM     16  N   UNL     1       7.722   7.310  16.893  0.00  0.00    +0.000 N 
ATOM     17  O   UNL     1       7.720   5.811  15.202  0.00  0.00    +0.000 OA
ATOM     18  H   UNL     1       7.328   7.578  17.787  0.00  0.00    +0.000 HD
ATOM     19  H   UNL     1       8.589   7.710  16.569  0.00  0.00    +0.000 HD
ENDBRANCH   9  15
BRANCH   1  21
ATOM     20  C   UNL     1       0.767   9.784  20.109  0.00  0.00    +0.000 C 
ATOM     21  C   UNL     1       1.253   8.686  20.116  0.00  0.00    +0.000 C 
BRANCH  20  26
ATOM     22  C   UNL     1       1.732  14.295  21.423  0.00  0.00    +0.000 C 
ATOM     23  N   UNL     1       1.404  13.087  20.700  0.00  0.00    +0.000 N 
ATOM     24  C   UNL     1       1.969  12.750  19.423  0.00  0.00    +0.000 C 
ATOM     25  C   UNL     1       0.895  11.891  18.784  0.00  0.00    +0.000 C 
ATOM     26  C   UNL     1       0.237  11.155  19.960  0.00  0.00    +0.000 C 
ATOM     27  C   UNL     1       0.533  12.103  21.155  0.00  0.00    +0.000 C 
ATOM     28  O   UNL     1       0.001  12.084  22.255  0.00  0.00    +0.000 OA
BRANCH  26  29
ATOM     29  O   UNL     1      -1.164  11.063  19.707  0.00  0.00    +0.000 OA
ATOM     30  H   UNL     1      -1.530  11.956  19.839  0.00  0.00    +0.000 HD
ENDBRANCH  26  29
ENDBRANCH  20  26
ENDBRANCH   1  21
BRANCH  10  31
ATOM     31  C   UNL     1       5.997   3.426  15.503  0.00  0.00    +0.000 C 
BRANCH  31  32
ATOM     32  O   UNL     1       5.758   3.890  14.178  0.00  0.00    +0.000 OA
ATOM     33  H   UNL     1       6.463   3.498  13.625  0.00  0.00    +0.000 HD
ENDBRANCH  31  32
ENDBRANCH  10  31
TORSDOF 6
ENDMDL
MODEL 4
REMARK VINA RESULT:      -8.0      1.218      1.606
REMARK  Name = 
REMARK  7 active torsions:
REMARK  status: ('A' for Active; 'I' for Inactive)
REMARK    1  A    between atoms: C_1  and  N_2
REMARK    2  A    between atoms: C_5  and  O_6
REMARK    3  A    between atoms: C_5  and  C_7
REMARK    4  A    between atoms: C_8  and  C_9
REMARK    5  A    between atoms: C_17  and  C_18
REMARK    6  A    between atoms: C_21  and  C_22
REMARK    7  A    between atoms: C_22  and  O_23
REMARK                            x       y       z     vdW  Elec       q    Type
REMARK                         _______ _______ _______ _____ _____    ______ ____
ROOT
ATOM      1  C   UNL     1       1.785   7.422  20.110  0.00  0.00    +0.000 A 
ATOM      2  C   UNL     1       1.152   6.423  20.845  0.00  0.00    +0.000 A 
ATOM      3  C   UNL     1       1.562   5.096  20.715  0.00  0.00    +0.000 A 
ATOM      4  C   UNL     1       2.574   4.727  19.818  0.00  0.00    +0.000 A 
ATOM      5  C   UNL     1       3.220   5.726  19.075  0.00  0.00    +0.000 A 
ATOM      6  C   UNL     1       2.841   7.080  19.248  0.00  0.00    +0.000 A 
ATOM      7  N   UNL     1       4.206   5.423  18.100  0.00  0.00    +0.000 N 
ATOM      8  N   UNL     1       5.205   6.290  17.790  0.00  0.00    +0.000 NA
ATOM      9  C   UNL     1       5.907   5.675  16.818  0.00  0.00    +0.000 A 
ATOM     10  C   UNL     1       5.324   4.428  16.453  0.00  0.00    +0.000 A 
ATOM     11  C   UNL     1       4.233   4.303  17.296  0.00  0.00    +0.000 A 
ATOM     12  C   UNL     1       3.179   3.263  17.418  0.00  0.00    +0.000 C 
ATOM     13  C   UNL     1       3.268   2.614  18.789  0.00  0.00    +0.000 C 
ATOM     14  O   UNL     1       2.873   3.401  19.909  0.00  0.00    +0.000 OA
ENDROOT
BRANCH   9  15
ATOM     15  C   UNL     1       7.136   6.242  16.240  0.00  0.00    +0.000 C 
ATOM     16  N   UNL     1       7.716   7.240  16.968  0.00  0.00    +0.000 N 
ATOM     17  O   UNL     1       7.669   5.807  15.221  0.00  0.00    +0.000 OA
ATOM     18  H   UNL     1       7.323   7.492  17.866  0.00  0.00    +0.000 HD
ATOM     19  H   UNL     1       8.603   7.613  16.669  0.00  0.00    +0.000 HD
ENDBRANCH   9  15
BRANCH   1  21
ATOM     20  C   UNL     1       0.871   9.896  20.249  0.00  0.00    +0.000 C 
ATOM     21  C   UNL     1       1.298   8.774  20.213  0.00  0.00    +0.000 C 
BRANCH  20  26
ATOM     22  C   UNL     1      -3.140  12.510  19.950  0.00  0.00    +0.000 C 
ATOM     23  N   UNL     1      -1.850  11.960  20.302  0.00  0.00    +0.000 N 
ATOM     24  C   UNL     1      -1.410  11.775  21.657  0.00  0.00    +0.000 C 
ATOM     25  C   UNL     1       0.099  11.877  21.548  0.00  0.00    +0.000 C 
ATOM     26  C   UNL     1       0.429  11.302  20.164  0.00  0.00    +0.000 C 
ATOM     27  C   UNL     1      -0.898  11.524  19.385  0.00  0.00    +0.000 C 
ATOM     28  O   UNL     1      -1.057  11.465  18.175  0.00  0.00    +0.000 OA
BRANCH  26  29
ATOM     29  O   UNL     1       1.493  12.067  19.600  0.00  0.00    +0.000 OA
ATOM     30  H   UNL     1       1.089  12.867  19.217  0.00  0.00    +0.000 HD
ENDBRANCH  26  29
ENDBRANCH  20  26
ENDBRANCH   1  21
BRANCH  10  31
ATOM     31  C   UNL     1       5.825   3.503  15.396  0.00  0.00    +0.000 C 
BRANCH  31  32
ATOM     32  O   UNL     1       5.584   4.019  14.091  0.00  0.00    +0.000 OA
ATOM     33  H   UNL     1       4.969   3.392  13.663  0.00  0.00    +0.000 HD
ENDBRANCH  31  32
ENDBRANCH  10  31
TORSDOF 6
ENDMDL
MODEL 5
REMARK VINA RESULT:      -7.8      1.969      2.883
REMARK  Name = 
REMARK  7 active torsions:
REMARK  status: ('A' for Active; 'I' for Inactive)
REMARK    1  A    between atoms: C_1  and  N_2
REMARK    2  A    between atoms: C_5  and  O_6
REMARK    3  A    between atoms: C_5  and  C_7
REMARK    4  A    between atoms: C_8  and  C_9
REMARK    5  A    between atoms: C_17  and  C_18
REMARK    6  A    between atoms: C_21  and  C_22
REMARK    7  A    between atoms: C_22  and  O_23
REMARK                            x       y       z     vdW  Elec       q    Type
REMARK                         _______ _______ _______ _____ _____    ______ ____
ROOT
ATOM      1  C   UNL     1       1.038   9.363  19.775  0.00  0.00    +0.000 A 
ATOM      2  C   UNL     1       0.522   8.825  20.950  0.00  0.00    +0.000 A 
ATOM      3  C   UNL     1       0.891   7.540  21.350  0.00  0.00    +0.000 A 
ATOM      4  C   UNL     1       1.739   6.746  20.566  0.00  0.00    +0.000 A 
ATOM      5  C   UNL     1       2.267   7.280  19.381  0.00  0.00    +0.000 A 
ATOM      6  C   UNL     1       1.936   8.605  19.005  0.00  0.00    +0.000 A 
ATOM      7  N   UNL     1       3.079   6.514  18.504  0.00  0.00    +0.000 N 
ATOM      8  N   UNL     1       4.024   7.085  17.712  0.00  0.00    +0.000 NA
ATOM      9  C   UNL     1       4.552   6.062  17.012  0.00  0.00    +0.000 A 
ATOM     10  C   UNL     1       3.903   4.829  17.308  0.00  0.00    +0.000 A 
ATOM     11  C   UNL     1       2.963   5.161  18.267  0.00  0.00    +0.000 A 
ATOM     12  C   UNL     1       1.931   4.359  18.974  0.00  0.00    +0.000 C 
ATOM     13  C   UNL     1       2.235   4.348  20.462  0.00  0.00    +0.000 C 
ATOM     14  O   UNL     1       2.035   5.565  21.177  0.00  0.00    +0.000 OA
ENDROOT
BRANCH   9  15
ATOM     15  C   UNL     1       5.676   6.231  16.078  0.00  0.00    +0.000 C 
ATOM     16  N   UNL     1       6.891   6.447  16.660  0.00  0.00    +0.000 N 
ATOM     17  O   UNL     1       5.570   6.103  14.860  0.00  0.00    +0.000 OA
ATOM     18  H   UNL     1       6.969   6.423  17.670  0.00  0.00    +0.000 HD
ATOM     19  H   UNL     1       7.714   6.488  16.079  0.00  0.00    +0.000 HD
ENDBRANCH   9  15
BRANCH   1  21
ATOM     20  C   UNL     1       0.209  11.764  19.051  0.00  0.00    +0.000 C 
ATOM     21  C   UNL     1       0.589  10.665  19.352  0.00  0.00    +0.000 C 
BRANCH  20  26
ATOM     22  C   UNL     1      -1.437  15.664  21.306  0.00  0.00    +0.000 C 
ATOM     23  N   UNL     1      -0.765  14.735  20.427  0.00  0.00    +0.000 N 
ATOM     24  C   UNL     1       0.619  14.850  20.060  0.00  0.00    +0.000 C 
ATOM     25  C   UNL     1       0.673  14.186  18.698  0.00  0.00    +0.000 C 
ATOM     26  C   UNL     1      -0.391  13.082  18.761  0.00  0.00    +0.000 C 
ATOM     27  C   UNL     1      -1.359  13.614  19.855  0.00  0.00    +0.000 C 
ATOM     28  O   UNL     1      -2.492  13.218  20.086  0.00  0.00    +0.000 OA
BRANCH  26  29
ATOM     29  O   UNL     1      -1.037  13.006  17.492  0.00  0.00    +0.000 OA
ATOM     30  H   UNL     1      -0.342  12.819  16.835  0.00  0.00    +0.000 HD
ENDBRANCH  26  29
ENDBRANCH  20  26
ENDBRANCH   1  21
BRANCH  10  31
ATOM     31  C   UNL     1       4.216   3.507  16.694  0.00  0.00    +0.000 C 
BRANCH  31  32
ATOM     32  O   UNL     1       4.501   2.524  17.684  0.00  0.00    +0.000 OA
ATOM     33  H   UNL     1       4.116   2.862  18.517  0.00  0.00    +0.000 HD
ENDBRANCH  31  32
ENDBRANCH  10  31
TORSDOF 6
ENDMDL
MODEL 6
REMARK VINA RESULT:      -7.4      2.550      4.429
REMARK  Name = 
REMARK  7 active torsions:
REMARK  status: ('A' for Active; 'I' for Inactive)
REMARK    1  A    between atoms: C_1  and  N_2
REMARK    2  A    between atoms: C_5  and  O_6
REMARK    3  A    between atoms: C_5  and  C_7
REMARK    4  A    between atoms: C_8  and  C_9
REMARK    5  A    between atoms: C_17  and  C_18
REMARK    6  A    between atoms: C_21  and  C_22
REMARK    7  A    between atoms: C_22  and  O_23
REMARK                            x       y       z     vdW  Elec       q    Type
REMARK                         _______ _______ _______ _____ _____    ______ ____
ROOT
ATOM      1  C   UNL     1       1.285   9.560  19.618  0.00  0.00    +0.000 A 
ATOM      2  C   UNL     1       1.817  10.089  18.445  0.00  0.00    +0.000 A 
ATOM      3  C   UNL     1       2.544   9.273  17.579  0.00  0.00    +0.000 A 
ATOM      4  C   UNL     1       2.801   7.929  17.883  0.00  0.00    +0.000 A 
ATOM      5  C   UNL     1       2.266   7.385  19.061  0.00  0.00    +0.000 A 
ATOM      6  C   UNL     1       1.481   8.200  19.912  0.00  0.00    +0.000 A 
ATOM      7  N   UNL     1       2.537   6.052  19.467  0.00  0.00    +0.000 N 
ATOM      8  N   UNL     1       1.661   5.334  20.218  0.00  0.00    +0.000 NA
ATOM      9  C   UNL     1       2.273   4.152  20.426  0.00  0.00    +0.000 A 
ATOM     10  C   UNL     1       3.580   4.126  19.859  0.00  0.00    +0.000 A 
ATOM     11  C   UNL     1       3.713   5.364  19.255  0.00  0.00    +0.000 A 
ATOM     12  C   UNL     1       4.837   6.002  18.522  0.00  0.00    +0.000 C 
ATOM     13  C   UNL     1       4.415   6.266  17.086  0.00  0.00    +0.000 C 
ATOM     14  O   UNL     1       3.454   7.296  16.869  0.00  0.00    +0.000 OA
ENDROOT
BRANCH   9  15
ATOM     15  C   UNL     1       1.632   3.037  21.140  0.00  0.00    +0.000 C 
ATOM     16  N   UNL     1       0.632   2.406  20.460  0.00  0.00    +0.000 N 
ATOM     17  O   UNL     1       2.011   2.627  22.236  0.00  0.00    +0.000 OA
ATOM     18  H   UNL     1       0.426   2.686  19.509  0.00  0.00    +0.000 HD
ATOM     19  H   UNL     1       0.209   1.583  20.860  0.00  0.00    +0.000 HD
ENDBRANCH   9  15
BRANCH   1  21
ATOM     20  C   UNL     1      -0.014  11.186  21.244  0.00  0.00    +0.000 C 
ATOM     21  C   UNL     1       0.595  10.440  20.526  0.00  0.00    +0.000 C 
BRANCH  20  26
ATOM     22  C   UNL     1      -1.130  15.848  21.074  0.00  0.00    +0.000 C 
ATOM     23  N   UNL     1      -1.147  14.408  21.202  0.00  0.00    +0.000 N 
ATOM     24  C   UNL     1      -2.169  13.574  20.635  0.00  0.00    +0.000 C 
ATOM     25  C   UNL     1      -2.184  12.370  21.557  0.00  0.00    +0.000 C 
ATOM     26  C   UNL     1      -0.730  12.218  22.022  0.00  0.00    +0.000 C 
ATOM     27  C   UNL     1      -0.175  13.661  21.860  0.00  0.00    +0.000 C 
ATOM     28  O   UNL     1       0.859  14.106  22.336  0.00  0.00    +0.000 OA
BRANCH  26  29
ATOM     29  O   UNL     1      -0.734  11.817  23.391  0.00  0.00    +0.000 OA
ATOM     30  H   UNL     1      -1.646  11.548  23.600  0.00  0.00    +0.000 HD
ENDBRANCH  26  29
ENDBRANCH  20  26
ENDBRANCH   1  21
BRANCH  10  31
ATOM     31  C   UNL     1       4.540   2.988  19.927  0.00  0.00    +0.000 C 
BRANCH  31  32
ATOM     32  O   UNL     1       4.317   2.050  18.878  0.00  0.00    +0.000 OA
ATOM     33  H   UNL     1       4.211   2.579  18.064  0.00  0.00    +0.000 HD
ENDBRANCH  31  32
ENDBRANCH  10  31
TORSDOF 6
ENDMDL
MODEL 7
REMARK VINA RESULT:      -7.3      1.990      2.874
REMARK  Name = 
REMARK  7 active torsions:
REMARK  status: ('A' for Active; 'I' for Inactive)
REMARK    1  A    between atoms: C_1  and  N_2
REMARK    2  A    between atoms: C_5  and  O_6
REMARK    3  A    between atoms: C_5  and  C_7
REMARK    4  A    between atoms: C_8  and  C_9
REMARK    5  A    between atoms: C_17  and  C_18
REMARK    6  A    between atoms: C_21  and  C_22
REMARK    7  A    between atoms: C_22  and  O_23
REMARK                            x       y       z     vdW  Elec       q    Type
REMARK                         _______ _______ _______ _____ _____    ______ ____
ROOT
ATOM      1  C   UNL     1       1.712   8.660  19.731  0.00  0.00    +0.000 A 
ATOM      2  C   UNL     1       0.985   8.318  20.868  0.00  0.00    +0.000 A 
ATOM      3  C   UNL     1       0.993   7.003  21.331  0.00  0.00    +0.000 A 
ATOM      4  C   UNL     1       1.680   5.990  20.647  0.00  0.00    +0.000 A 
ATOM      5  C   UNL     1       2.418   6.325  19.502  0.00  0.00    +0.000 A 
ATOM      6  C   UNL     1       2.455   7.671  19.064  0.00  0.00    +0.000 A 
ATOM      7  N   UNL     1       3.085   5.345  18.721  0.00  0.00    +0.000 N 
ATOM      8  N   UNL     1       4.203   5.631  18.004  0.00  0.00    +0.000 NA
ATOM      9  C   UNL     1       4.518   4.479  17.380  0.00  0.00    +0.000 A 
ATOM     10  C   UNL     1       3.563   3.455  17.646  0.00  0.00    +0.000 A 
ATOM     11  C   UNL     1       2.659   4.050  18.508  0.00  0.00    +0.000 A 
ATOM     12  C   UNL     1       1.407   3.557  19.139  0.00  0.00    +0.000 C 
ATOM     13  C   UNL     1       1.576   3.542  20.649  0.00  0.00    +0.000 C 
ATOM     14  O   UNL     1       1.624   4.802  21.311  0.00  0.00    +0.000 OA
ENDROOT
BRANCH   9  15
ATOM     15  C   UNL     1       5.721   4.325  16.548  0.00  0.00    +0.000 C 
ATOM     16  N   UNL     1       6.900   4.264  17.232  0.00  0.00    +0.000 N 
ATOM     17  O   UNL     1       5.686   4.173  15.328  0.00  0.00    +0.000 OA
ATOM     18  H   UNL     1       6.887   4.267  18.245  0.00  0.00    +0.000 HD
ATOM     19  H   UNL     1       7.752   4.077  16.727  0.00  0.00    +0.000 HD
ENDBRANCH   9  15
BRANCH   1  21
ATOM     20  C   UNL     1       1.616  11.147  18.848  0.00  0.00    +0.000 C 
ATOM     21  C   UNL     1       1.634  10.011  19.236  0.00  0.00    +0.000 C 
BRANCH  20  26
ATOM     22  C   UNL     1      -0.791  15.166  19.878  0.00  0.00    +0.000 C 
ATOM     23  N   UNL     1       0.222  14.164  19.636  0.00  0.00    +0.000 N 
ATOM     24  C   UNL     1       1.364  13.969  20.486  0.00  0.00    +0.000 C 
ATOM     25  C   UNL     1       2.407  13.406  19.542  0.00  0.00    +0.000 C 
ATOM     26  C   UNL     1       1.606  12.587  18.520  0.00  0.00    +0.000 C 
ATOM     27  C   UNL     1       0.206  13.260  18.578  0.00  0.00    +0.000 C 
ATOM     28  O   UNL     1      -0.703  13.133  17.771  0.00  0.00    +0.000 OA
BRANCH  26  29
ATOM     29  O   UNL     1       2.206  12.754  17.237  0.00  0.00    +0.000 OA
ATOM     30  H   UNL     1       1.487  12.703  16.583  0.00  0.00    +0.000 HD
ENDBRANCH  26  29
ENDBRANCH  20  26
ENDBRANCH   1  21
BRANCH  10  31
ATOM     31  C   UNL     1       3.590   2.070  17.097  0.00  0.00    +0.000 C 
BRANCH  31  32
ATOM     32  O   UNL     1       3.754   1.101  18.127  0.00  0.00    +0.000 OA
ATOM     33  H   UNL     1       2.864   0.733  18.294  0.00  0.00    +0.000 HD
ENDBRANCH  31  32
ENDBRANCH  10  31
TORSDOF 6
ENDMDL
MODEL 8
REMARK VINA RESULT:      -7.2      6.162     10.631
REMARK  Name = 
REMARK  7 active torsions:
REMARK  status: ('A' for Active; 'I' for Inactive)
REMARK    1  A    between atoms: C_1  and  N_2
REMARK    2  A    between atoms: C_5  and  O_6
REMARK    3  A    between atoms: C_5  and  C_7
REMARK    4  A    between atoms: C_8  and  C_9
REMARK    5  A    between atoms: C_17  and  C_18
REMARK    6  A    between atoms: C_21  and  C_22
REMARK    7  A    between atoms: C_22  and  O_23
REMARK                            x       y       z     vdW  Elec       q    Type
REMARK                         _______ _______ _______ _____ _____    ______ ____
ROOT
ATOM      1  C   UNL     1       8.832  10.314  18.602  0.00  0.00    +0.000 A 
ATOM      2  C   UNL     1      10.074  10.158  19.212  0.00  0.00    +0.000 A 
ATOM      3  C   UNL     1      10.742  11.270  19.726  0.00  0.00    +0.000 A 
ATOM      4  C   UNL     1      10.215  12.563  19.600  0.00  0.00    +0.000 A 
ATOM      5  C   UNL     1       8.963  12.729  18.990  0.00  0.00    +0.000 A 
ATOM      6  C   UNL     1       8.260  11.594  18.518  0.00  0.00    +0.000 A 
ATOM      7  N   UNL     1       8.396  14.012  18.768  0.00  0.00    +0.000 N 
ATOM      8  N   UNL     1       7.053  14.209  18.723  0.00  0.00    +0.000 NA
ATOM      9  C   UNL     1       6.905  15.524  18.465  0.00  0.00    +0.000 A 
ATOM     10  C   UNL     1       8.161  16.170  18.281  0.00  0.00    +0.000 A 
ATOM     11  C   UNL     1       9.093  15.167  18.480  0.00  0.00    +0.000 A 
ATOM     12  C   UNL     1      10.576  15.150  18.400  0.00  0.00    +0.000 C 
ATOM     13  C   UNL     1      11.151  14.821  19.767  0.00  0.00    +0.000 C 
ATOM     14  O   UNL     1      10.984  13.487  20.240  0.00  0.00    +0.000 OA
ENDROOT
BRANCH   9  15
ATOM     15  C   UNL     1       5.591  16.183  18.408  0.00  0.00    +0.000 C 
ATOM     16  N   UNL     1       4.593  15.445  17.841  0.00  0.00    +0.000 N 
ATOM     17  O   UNL     1       5.363  17.283  18.907  0.00  0.00    +0.000 OA
ATOM     18  H   UNL     1       4.782  14.493  17.552  0.00  0.00    +0.000 HD
ATOM     19  H   UNL     1       3.652  15.807  17.846  0.00  0.00    +0.000 HD
ENDBRANCH   9  15
BRANCH   1  21
ATOM     20  C   UNL     1       7.645   8.184  17.586  0.00  0.00    +0.000 C 
ATOM     21  C   UNL     1       8.195   9.159  18.022  0.00  0.00    +0.000 C 
BRANCH  20  26
ATOM     22  C   UNL     1       5.015   4.554  19.292  0.00  0.00    +0.000 C 
ATOM     23  N   UNL     1       5.567   5.634  18.507  0.00  0.00    +0.000 N 
ATOM     24  C   UNL     1       4.767   6.656  17.891  0.00  0.00    +0.000 C 
ATOM     25  C   UNL     1       5.599   7.075  16.695  0.00  0.00    +0.000 C 
ATOM     26  C   UNL     1       7.054   6.901  17.154  0.00  0.00    +0.000 C 
ATOM     27  C   UNL     1       6.925   5.831  18.274  0.00  0.00    +0.000 C 
ATOM     28  O   UNL     1       7.830   5.177  18.770  0.00  0.00    +0.000 OA
BRANCH  26  29
ATOM     29  O   UNL     1       7.818   6.409  16.055  0.00  0.00    +0.000 OA
ATOM     30  H   UNL     1       7.183   6.028  15.422  0.00  0.00    +0.000 HD
ENDBRANCH  26  29
ENDBRANCH  20  26
ENDBRANCH   1  21
BRANCH  10  31
ATOM     31  C   UNL     1       8.364  17.611  17.954  0.00  0.00    +0.000 C 
BRANCH  31  32
ATOM     32  O   UNL     1       8.114  18.444  19.082  0.00  0.00    +0.000 OA
ATOM     33  H   UNL     1       8.165  19.363  18.753  0.00  0.00    +0.000 HD
ENDBRANCH  31  32
ENDBRANCH  10  31
TORSDOF 6
ENDMDL
MODEL 9
REMARK VINA RESULT:      -7.2      2.581      9.017
REMARK  Name = 
REMARK  7 active torsions:
REMARK  status: ('A' for Active; 'I' for Inactive)
REMARK    1  A    between atoms: C_1  and  N_2
REMARK    2  A    between atoms: C_5  and  O_6
REMARK    3  A    between atoms: C_5  and  C_7
REMARK    4  A    between atoms: C_8  and  C_9
REMARK    5  A    between atoms: C_17  and  C_18
REMARK    6  A    between atoms: C_21  and  C_22
REMARK    7  A    between atoms: C_22  and  O_23
REMARK                            x       y       z     vdW  Elec       q    Type
REMARK                         _______ _______ _______ _____ _____    ______ ____
ROOT
ATOM      1  C   UNL     1       2.128   7.905  19.230  0.00  0.00    +0.000 A 
ATOM      2  C   UNL     1       2.324   7.550  20.562  0.00  0.00    +0.000 A 
ATOM      3  C   UNL     1       1.471   8.045  21.548  0.00  0.00    +0.000 A 
ATOM      4  C   UNL     1       0.438   8.942  21.240  0.00  0.00    +0.000 A 
ATOM      5  C   UNL     1       0.230   9.303  19.900  0.00  0.00    +0.000 A 
ATOM      6  C   UNL     1       1.062   8.756  18.893  0.00  0.00    +0.000 A 
ATOM      7  N   UNL     1      -0.752  10.255  19.519  0.00  0.00    +0.000 N 
ATOM      8  N   UNL     1      -1.356  10.220  18.303  0.00  0.00    +0.000 NA
ATOM      9  C   UNL     1      -2.186  11.283  18.299  0.00  0.00    +0.000 A 
ATOM     10  C   UNL     1      -2.073  12.046  19.497  0.00  0.00    +0.000 A 
ATOM     11  C   UNL     1      -1.141  11.356  20.253  0.00  0.00    +0.000 A 
ATOM     12  C   UNL     1      -0.538  11.624  21.584  0.00  0.00    +0.000 C 
ATOM     13  C   UNL     1      -0.920  10.510  22.544  0.00  0.00    +0.000 C 
ATOM     14  O   UNL     1      -0.321   9.234  22.332  0.00  0.00    +0.000 OA
ENDROOT
BRANCH   9  15
ATOM     15  C   UNL     1      -3.099  11.578  17.184  0.00  0.00    +0.000 C 
ATOM     16  N   UNL     1      -2.526  11.583  15.946  0.00  0.00    +0.000 N 
ATOM     17  O   UNL     1      -4.312  11.727  17.323  0.00  0.00    +0.000 OA
ATOM     18  H   UNL     1      -1.549  11.334  15.850  0.00  0.00    +0.000 HD
ATOM     19  H   UNL     1      -3.112  11.697  15.134  0.00  0.00    +0.000 HD
ENDBRANCH   9  15
BRANCH   1  21
ATOM     20  C   UNL     1       3.830   6.989  17.430  0.00  0.00    +0.000 C 
ATOM     21  C   UNL     1       3.063   7.433  18.241  0.00  0.00    +0.000 C 
BRANCH  20  26
ATOM     22  C   UNL     1       7.933   4.518  17.682  0.00  0.00    +0.000 C 
ATOM     23  N   UNL     1       6.607   5.001  17.371  0.00  0.00    +0.000 N 
ATOM     24  C   UNL     1       5.453   4.150  17.284  0.00  0.00    +0.000 C 
ATOM     25  C   UNL     1       4.553   4.884  16.309  0.00  0.00    +0.000 C 
ATOM     26  C   UNL     1       4.846   6.371  16.554  0.00  0.00    +0.000 C 
ATOM     27  C   UNL     1       6.283   6.336  17.144  0.00  0.00    +0.000 C 
ATOM     28  O   UNL     1       7.050   7.280  17.264  0.00  0.00    +0.000 OA
BRANCH  26  29
ATOM     29  O   UNL     1       4.819   7.048  15.299  0.00  0.00    +0.000 OA
ATOM     30  H   UNL     1       5.353   7.856  15.406  0.00  0.00    +0.000 HD
ENDBRANCH  26  29
ENDBRANCH  20  26
ENDBRANCH   1  21
BRANCH  10  31
ATOM     31  C   UNL     1      -2.822  13.295  19.813  0.00  0.00    +0.000 C 
BRANCH  31  32
ATOM     32  O   UNL     1      -4.223  13.057  19.907  0.00  0.00    +0.000 OA
ATOM     33  H   UNL     1      -4.493  13.388  20.786  0.00  0.00    +0.000 HD
ENDBRANCH  31  32
ENDBRANCH  10  31
TORSDOF 6
ENDMDL
