MODEL 1
REMARK VINA RESULT:      -8.0      0.000      0.000
REMARK  Name = 
REMARK  12 active torsions:
REMARK  status: ('A' for Active; 'I' for Inactive)
REMARK    1  A    between atoms: C_1  and  O_2
REMARK    2  A    between atoms: O_2  and  C_3
REMARK    3  A    between atoms: C_7  and  N_8
REMARK    4  A    between atoms: N_8  and  C_9
REMARK    5  A    between atoms: C_12  and  O_13
REMARK    6  A    between atoms: C_14  and  C_15
REMARK    7  A    between atoms: C_15  and  N_16
REMARK    8  A    between atoms: N_19  and  C_20
REMARK    9  A    between atoms: C_20  and  C_21
REMARK   10  A    between atoms: C_21  and  N_22
REMARK   11  A    between atoms: N_22  and  C_23
REMARK   12  A    between atoms: N_22  and  C_24
REMARK                            x       y       z     vdW  Elec       q    Type
REMARK                         _______ _______ _______ _____ _____    ______ ____
ROOT
ATOM      1  C   UNL     1       2.227   6.206  20.344  0.00  0.00    +0.000 A 
ATOM      2  C   UNL     1       1.606   4.952  20.397  0.00  0.00    +0.000 A 
ATOM      3  C   UNL     1       2.317   3.800  20.111  0.00  0.00    +0.000 A 
ATOM      4  C   UNL     1       3.642   3.901  19.703  0.00  0.00    +0.000 A 
ATOM      5  C   UNL     1       4.220   5.137  19.377  0.00  0.00    +0.000 A 
ATOM      6  C   UNL     1       3.495   6.303  19.739  0.00  0.00    +0.000 A 
ENDROOT
BRANCH   1   7
ATOM      7  N   UNL     1       1.486   7.273  20.906  0.00  0.00    +0.000 N 
ATOM      8  H   UNL     1       1.752   7.364  21.889  0.00  0.00    +0.000 HD
BRANCH   7  13
ATOM      9  C   UNL     1      -1.026  11.414  22.609  0.00  0.00    +0.000 A 
ATOM     10  C   UNL     1      -0.781  10.170  23.181  0.00  0.00    +0.000 A 
ATOM     11  C   UNL     1      -0.094   9.205  22.452  0.00  0.00    +0.000 A 
ATOM     12  C   UNL     1       0.358   9.457  21.143  0.00  0.00    +0.000 A 
ATOM     13  C   UNL     1       1.101   8.530  20.391  0.00  0.00    +0.000 A 
ATOM     14  C   UNL     1       1.538   8.887  19.112  0.00  0.00    +0.000 A 
ATOM     15  C   UNL     1       1.246  10.150  18.638  0.00  0.00    +0.000 A 
ATOM     16  N   UNL     1       0.550  11.064  19.342  0.00  0.00    +0.000 NA
ATOM     17  C   UNL     1       0.116  10.727  20.568  0.00  0.00    +0.000 A 
ATOM     18  C   UNL     1      -0.562  11.676  21.317  0.00  0.00    +0.000 A 
BRANCH   9  20
ATOM     19  C   UNL     1      -1.064  13.739  23.066  0.00  0.00    +0.000 C 
ATOM     20  O   UNL     1      -1.664  12.457  23.214  0.00  0.00    +0.000 OA
ENDBRANCH   9  20
ENDBRANCH   7  13
ENDBRANCH   1   7
BRANCH   4  21
ATOM     21  O   UNL     1       4.398   2.763  19.709  0.00  0.00    +0.000 OA
ATOM     22  H   UNL     1       5.215   2.950  20.199  0.00  0.00    +0.000 HD
ENDBRANCH   4  21
BRANCH   5  23
ATOM     23  C   UNL     1       5.640   5.229  18.812  0.00  0.00    +0.000 C 
BRANCH  23  24
ATOM     24  N   UNL     1       5.747   5.922  17.511  0.00  0.00    +0.000 NA
ATOM     25  C   UNL     1       7.063   5.848  16.875  0.00  0.00    +0.000 C 
ATOM     26  C   UNL     1       7.382   4.557  16.074  0.00  0.00    +0.000 C 
ATOM     27  N   UNL     1       6.298   3.850  15.358  0.00  0.00    +0.000 NA
ATOM     28  C   UNL     1       4.968   4.101  15.947  0.00  0.00    +0.000 C 
ATOM     29  C   UNL     1       4.734   5.506  16.536  0.00  0.00    +0.000 C 
BRANCH  27  30
ATOM     30  C   UNL     1       6.288   4.060  13.899  0.00  0.00    +0.000 C 
BRANCH  30  31
ATOM     31  C   UNL     1       5.011   3.554  13.167  0.00  0.00    +0.000 C 
BRANCH  31  32
ATOM     32  N   UNL     1       5.208   3.244  11.730  0.00  0.00    +0.000 NA
ATOM     33  C   UNL     1       5.824   1.928  11.539  0.00  0.00    +0.000 C 
ATOM     34  C   UNL     1       3.919   3.288  11.033  0.00  0.00    +0.000 C 
ENDBRANCH  31  32
ENDBRANCH  30  31
ENDBRANCH  27  30
ENDBRANCH  23  24
ENDBRANCH   5  23
TORSDOF 9
ENDMDL
MODEL 2
REMARK VINA RESULT:      -7.8      2.553      9.610
REMARK  Name = 
REMARK  12 active torsions:
REMARK  status: ('A' for Active; 'I' for Inactive)
REMARK    1  A    between atoms: C_1  and  O_2
REMARK    2  A    between atoms: O_2  and  C_3
REMARK    3  A    between atoms: C_7  and  N_8
REMARK    4  A    between atoms: N_8  and  C_9
REMARK    5  A    between atoms: C_12  and  O_13
REMARK    6  A    between atoms: C_14  and  C_15
REMARK    7  A    between atoms: C_15  and  N_16
REMARK    8  A    between atoms: N_19  and  C_20
REMARK    9  A    between atoms: C_20  and  C_21
REMARK   10  A    between atoms: C_21  and  N_22
REMARK   11  A    between atoms: N_22  and  C_23
REMARK   12  A    between atoms: N_22  and  C_24
REMARK                            x       y       z     vdW  Elec       q    Type
REMARK                         _______ _______ _______ _____ _____    ______ ____
ROOT
ATOM      1  C   UNL     1       4.338   4.001  19.631  0.00  0.00    +0.000 A 
ATOM      2  C   UNL     1       3.803   2.774  20.042  0.00  0.00    +0.000 A 
ATOM      3  C   UNL     1       2.454   2.652  20.329  0.00  0.00    +0.000 A 
ATOM      4  C   UNL     1       1.641   3.778  20.268  0.00  0.00    +0.000 A 
ATOM      5  C   UNL     1       2.177   5.067  20.128  0.00  0.00    +0.000 A 
ATOM      6  C   UNL     1       3.549   5.159  19.772  0.00  0.00    +0.000 A 
ENDROOT
BRANCH   1   7
ATOM      7  N   UNL     1       5.655   3.946  19.116  0.00  0.00    +0.000 N 
ATOM      8  H   UNL     1       5.887   2.966  18.939  0.00  0.00    +0.000 HD
BRANCH   7  13
ATOM      9  C   UNL     1       6.401   4.198  14.043  0.00  0.00    +0.000 A 
ATOM     10  C   UNL     1       5.761   3.261  14.847  0.00  0.00    +0.000 A 
ATOM     11  C   UNL     1       5.752   3.434  16.227  0.00  0.00    +0.000 A 
ATOM     12  C   UNL     1       6.382   4.538  16.832  0.00  0.00    +0.000 A 
ATOM     13  C   UNL     1       6.354   4.780  18.217  0.00  0.00    +0.000 A 
ATOM     14  C   UNL     1       6.977   5.925  18.720  0.00  0.00    +0.000 A 
ATOM     15  C   UNL     1       7.582   6.796  17.836  0.00  0.00    +0.000 A 
ATOM     16  N   UNL     1       7.611   6.598  16.503  0.00  0.00    +0.000 NA
ATOM     17  C   UNL     1       7.024   5.495  16.011  0.00  0.00    +0.000 A 
ATOM     18  C   UNL     1       7.010   5.306  14.638  0.00  0.00    +0.000 A 
BRANCH   9  20
ATOM     19  C   UNL     1       5.681   3.175  12.031  0.00  0.00    +0.000 C 
ATOM     20  O   UNL     1       6.467   4.166  12.681  0.00  0.00    +0.000 OA
ENDBRANCH   9  20
ENDBRANCH   7  13
ENDBRANCH   1   7
BRANCH   4  21
ATOM     21  O   UNL     1       0.289   3.587  20.268  0.00  0.00    +0.000 OA
ATOM     22  H   UNL     1      -0.113   4.292  20.800  0.00  0.00    +0.000 HD
ENDBRANCH   4  21
BRANCH   5  23
ATOM     23  C   UNL     1       1.287   6.312  20.185  0.00  0.00    +0.000 C 
BRANCH  23  24
ATOM     24  N   UNL     1       2.018   7.594  20.260  0.00  0.00    +0.000 NA
ATOM     25  C   UNL     1       2.134   8.316  18.992  0.00  0.00    +0.000 C 
ATOM     26  C   UNL     1       0.917   9.177  18.562  0.00  0.00    +0.000 C 
ATOM     27  N   UNL     1       0.089   9.844  19.590  0.00  0.00    +0.000 NA
ATOM     28  C   UNL     1       0.147   9.162  20.899  0.00  0.00    +0.000 C 
ATOM     29  C   UNL     1       1.494   8.514  21.273  0.00  0.00    +0.000 C 
BRANCH  27  30
ATOM     30  C   UNL     1       0.330  11.292  19.727  0.00  0.00    +0.000 C 
BRANCH  30  31
ATOM     31  C   UNL     1      -0.943  12.184  19.649  0.00  0.00    +0.000 C 
BRANCH  31  32
ATOM     32  N   UNL     1      -0.983  13.287  20.639  0.00  0.00    +0.000 NA
ATOM     33  C   UNL     1      -2.357  13.639  21.004  0.00  0.00    +0.000 C 
ATOM     34  C   UNL     1      -0.240  12.896  21.842  0.00  0.00    +0.000 C 
ENDBRANCH  31  32
ENDBRANCH  30  31
ENDBRANCH  27  30
ENDBRANCH  23  24
ENDBRANCH   5  23
TORSDOF 9
ENDMDL
MODEL 3
REMARK VINA RESULT:      -7.7      2.769     11.380
REMARK  Name = 
REMARK  12 active torsions:
REMARK  status: ('A' for Active; 'I' for Inactive)
REMARK    1  A    between atoms: C_1  and  O_2
REMARK    2  A    between atoms: O_2  and  C_3
REMARK    3  A    between atoms: C_7  and  N_8
REMARK    4  A    between atoms: N_8  and  C_9
REMARK    5  A    between atoms: C_12  and  O_13
REMARK    6  A    between atoms: C_14  and  C_15
REMARK    7  A    between atoms: C_15  and  N_16
REMARK    8  A    between atoms: N_19  and  C_20
REMARK    9  A    between atoms: C_20  and  C_21
REMARK   10  A    between atoms: C_21  and  N_22
REMARK   11  A    between atoms: N_22  and  C_23
REMARK   12  A    between atoms: N_22  and  C_24
REMARK                            x       y       z     vdW  Elec       q    Type
REMARK                         _______ _______ _______ _____ _____    ______ ____
ROOT
ATOM      1  C   UNL     1       1.784   8.159  19.570  0.00  0.00    +0.000 A 
ATOM      2  C   UNL     1       2.120   8.596  18.282  0.00  0.00    +0.000 A 
ATOM      3  C   UNL     1       1.702   9.834  17.826  0.00  0.00    +0.000 A 
ATOM      4  C   UNL     1       0.889  10.619  18.634  0.00  0.00    +0.000 A 
ATOM      5  C   UNL     1       0.309  10.114  19.808  0.00  0.00    +0.000 A 
ATOM      6  C   UNL     1       0.802   8.870  20.285  0.00  0.00    +0.000 A 
ENDROOT
BRANCH   1   7
ATOM      7  N   UNL     1       2.477   7.010  20.020  0.00  0.00    +0.000 N 
ATOM      8  H   UNL     1       2.516   7.040  21.041  0.00  0.00    +0.000 HD
BRANCH   7  13
ATOM      9  C   UNL     1       5.114   4.172  16.650  0.00  0.00    +0.000 A 
ATOM     10  C   UNL     1       5.137   5.531  16.947  0.00  0.00    +0.000 A 
ATOM     11  C   UNL     1       4.260   6.039  17.899  0.00  0.00    +0.000 A 
ATOM     12  C   UNL     1       3.342   5.208  18.569  0.00  0.00    +0.000 A 
ATOM     13  C   UNL     1       2.473   5.671  19.574  0.00  0.00    +0.000 A 
ATOM     14  C   UNL     1       1.623   4.761  20.209  0.00  0.00    +0.000 A 
ATOM     15  C   UNL     1       1.681   3.431  19.844  0.00  0.00    +0.000 A 
ATOM     16  N   UNL     1       2.514   2.957  18.896  0.00  0.00    +0.000 NA
ATOM     17  C   UNL     1       3.327   3.825  18.273  0.00  0.00    +0.000 A 
ATOM     18  C   UNL     1       4.218   3.340  17.328  0.00  0.00    +0.000 A 
BRANCH   9  20
ATOM     19  C   UNL     1       5.963   4.068  14.441  0.00  0.00    +0.000 C 
ATOM     20  O   UNL     1       5.929   3.537  15.760  0.00  0.00    +0.000 OA
ENDBRANCH   9  20
ENDBRANCH   7  13
ENDBRANCH   1   7
BRANCH   4  21
ATOM     21  O   UNL     1       0.732  11.932  18.295  0.00  0.00    +0.000 OA
ATOM     22  H   UNL     1       1.615  12.314  18.161  0.00  0.00    +0.000 HD
ENDBRANCH   4  21
BRANCH   5  23
ATOM     23  C   UNL     1      -0.684  10.942  20.628  0.00  0.00    +0.000 C 
BRANCH  23  24
ATOM     24  N   UNL     1      -0.110  11.586  21.829  0.00  0.00    +0.000 NA
ATOM     25  C   UNL     1       0.326  12.970  21.640  0.00  0.00    +0.000 C 
ATOM     26  C   UNL     1      -0.768  14.068  21.726  0.00  0.00    +0.000 C 
ATOM     27  N   UNL     1      -1.917  13.891  22.641  0.00  0.00    +0.000 NA
ATOM     28  C   UNL     1      -2.203  12.471  22.928  0.00  0.00    +0.000 C 
ATOM     29  C   UNL     1      -0.985  11.529  23.003  0.00  0.00    +0.000 C 
BRANCH  27  30
ATOM     30  C   UNL     1      -1.841  14.685  23.881  0.00  0.00    +0.000 C 
BRANCH  30  31
ATOM     31  C   UNL     1      -3.074  14.559  24.823  0.00  0.00    +0.000 C 
BRANCH  31  32
ATOM     32  N   UNL     1      -4.055  15.665  24.701  0.00  0.00    +0.000 NA
ATOM     33  C   UNL     1      -3.431  16.891  24.198  0.00  0.00    +0.000 C 
ATOM     34  C   UNL     1      -5.143  15.263  23.804  0.00  0.00    +0.000 C 
ENDBRANCH  31  32
ENDBRANCH  30  31
ENDBRANCH  27  30
ENDBRANCH  23  24
ENDBRANCH   5  23
TORSDOF 9
ENDMDL
MODEL 4
REMARK VINA RESULT:      -7.7      2.881     11.183
REMARK  Name = 
REMARK  12 active torsions:
REMARK  status: ('A' for Active; 'I' for Inactive)
REMARK    1  A    between atoms: C_1  and  O_2
REMARK    2  A    between atoms: O_2  and  C_3
REMARK    3  A    between atoms: C_7  and  N_8
REMARK    4  A    between atoms: N_8  and  C_9
REMARK    5  A    between atoms: C_12  and  O_13
REMARK    6  A    between atoms: C_14  and  C_15
REMARK    7  A    between atoms: C_15  and  N_16
REMARK    8  A    between atoms: N_19  and  C_20
REMARK    9  A    between atoms: C_20  and  C_21
REMARK   10  A    between atoms: C_21  and  N_22
REMARK   11  A    between atoms: N_22  and  C_23
REMARK   12  A    between atoms: N_22  and  C_24
REMARK                            x       y       z     vdW  Elec       q    Type
REMARK                         _______ _______ _______ _____ _____    ______ ____
ROOT
ATOM      1  C   UNL     1       1.976   7.969  19.428  0.00  0.00    +0.000 A 
ATOM      2  C   UNL     1       1.888   8.357  18.085  0.00  0.00    +0.000 A 
ATOM      3  C   UNL     1       1.532   9.650  17.747  0.00  0.00    +0.000 A 
ATOM      4  C   UNL     1       1.198  10.550  18.751  0.00  0.00    +0.000 A 
ATOM      5  C   UNL     1       1.011  10.136  20.079  0.00  0.00    +0.000 A 
ATOM      6  C   UNL     1       1.442   8.824  20.411  0.00  0.00    +0.000 A 
ENDROOT
BRANCH   1   7
ATOM      7  N   UNL     1       2.596   6.717  19.658  0.00  0.00    +0.000 N 
ATOM      8  H   UNL     1       2.448   6.462  20.637  0.00  0.00    +0.000 HD
BRANCH   7  13
ATOM      9  C   UNL     1       5.813   4.868  16.109  0.00  0.00    +0.000 A 
ATOM     10  C   UNL     1       5.755   6.091  16.770  0.00  0.00    +0.000 A 
ATOM     11  C   UNL     1       4.723   6.334  17.670  0.00  0.00    +0.000 A 
ATOM     12  C   UNL     1       3.729   5.370  17.925  0.00  0.00    +0.000 A 
ATOM     13  C   UNL     1       2.697   5.554  18.864  0.00  0.00    +0.000 A 
ATOM     14  C   UNL     1       1.778   4.523  19.074  0.00  0.00    +0.000 A 
ATOM     15  C   UNL     1       1.927   3.345  18.369  0.00  0.00    +0.000 A 
ATOM     16  N   UNL     1       2.914   3.135  17.476  0.00  0.00    +0.000 NA
ATOM     17  C   UNL     1       3.796   4.124  17.259  0.00  0.00    +0.000 A 
ATOM     18  C   UNL     1       4.840   3.901  16.374  0.00  0.00    +0.000 A 
BRANCH   9  20
ATOM     19  C   UNL     1       6.325   3.990  13.969  0.00  0.00    +0.000 C 
ATOM     20  O   UNL     1       6.778   4.487  15.223  0.00  0.00    +0.000 OA
ENDBRANCH   9  20
ENDBRANCH   7  13
ENDBRANCH   1   7
BRANCH   4  21
ATOM     21  O   UNL     1       1.137  11.875  18.425  0.00  0.00    +0.000 OA
ATOM     22  H   UNL     1       1.469  11.975  17.519  0.00  0.00    +0.000 HD
ENDBRANCH   4  21
BRANCH   5  23
ATOM     23  C   UNL     1       0.524  11.108  21.157  0.00  0.00    +0.000 C 
BRANCH  23  24
ATOM     24  N   UNL     1      -0.927  11.053  21.431  0.00  0.00    +0.000 NA
ATOM     25  C   UNL     1      -1.310  11.364  22.810  0.00  0.00    +0.000 C 
ATOM     26  C   UNL     1      -1.420  12.865  23.185  0.00  0.00    +0.000 C 
ATOM     27  N   UNL     1      -1.874  13.844  22.173  0.00  0.00    +0.000 NA
ATOM     28  C   UNL     1      -1.612  13.396  20.790  0.00  0.00    +0.000 C 
ATOM     29  C   UNL     1      -1.730  11.883  20.528  0.00  0.00    +0.000 C 
BRANCH  27  30
ATOM     30  C   UNL     1      -3.267  14.296  22.337  0.00  0.00    +0.000 C 
BRANCH  30  31
ATOM     31  C   UNL     1      -4.270  13.196  22.790  0.00  0.00    +0.000 C 
BRANCH  31  32
ATOM     32  N   UNL     1      -5.633  13.695  23.097  0.00  0.00    +0.000 NA
ATOM     33  C   UNL     1      -6.341  12.806  24.021  0.00  0.00    +0.000 C 
ATOM     34  C   UNL     1      -5.547  15.039  23.676  0.00  0.00    +0.000 C 
ENDBRANCH  31  32
ENDBRANCH  30  31
ENDBRANCH  27  30
ENDBRANCH  23  24
ENDBRANCH   5  23
TORSDOF 9
ENDMDL
MODEL 5
REMARK VINA RESULT:      -7.6      0.864      1.325
REMARK  Name = 
REMARK  12 active torsions:
REMARK  status: ('A' for Active; 'I' for Inactive)
REMARK    1  A    between atoms: C_1  and  O_2
REMARK    2  A    between atoms: O_2  and  C_3
REMARK    3  A    between atoms: C_7  and  N_8
REMARK    4  A    between atoms: N_8  and  C_9
REMARK    5  A    between atoms: C_12  and  O_13
REMARK    6  A    between atoms: C_14  and  C_15
REMARK    7  A    between atoms: C_15  and  N_16
REMARK    8  A    between atoms: N_19  and  C_20
REMARK    9  A    between atoms: C_20  and  C_21
REMARK   10  A    between atoms: C_21  and  N_22
REMARK   11  A    between atoms: N_22  and  C_23
REMARK   12  A    between atoms: N_22  and  C_24
REMARK                            x       y       z     vdW  Elec       q    Type
REMARK                         _______ _______ _______ _____ _____    ______ ____
ROOT
ATOM      1  C   UNL     1       1.934   6.079  20.414  0.00  0.00    +0.000 A 
ATOM      2  C   UNL     1       1.370   4.800  20.508  0.00  0.00    +0.000 A 
ATOM      3  C   UNL     1       2.154   3.671  20.355  0.00  0.00    +0.000 A 
ATOM      4  C   UNL     1       3.500   3.814  20.040  0.00  0.00    +0.000 A 
ATOM      5  C   UNL     1       4.043   5.054  19.672  0.00  0.00    +0.000 A 
ATOM      6  C   UNL     1       3.238   6.202  19.900  0.00  0.00    +0.000 A 
ENDROOT
BRANCH   1   7
ATOM      7  N   UNL     1       1.102   7.141  20.846  0.00  0.00    +0.000 N 
ATOM      8  H   UNL     1       1.077   7.131  21.868  0.00  0.00    +0.000 HD
BRANCH   7  13
ATOM      9  C   UNL     1      -0.838  11.548  22.625  0.00  0.00    +0.000 A 
ATOM     10  C   UNL     1      -0.804  10.263  23.154  0.00  0.00    +0.000 A 
ATOM     11  C   UNL     1      -0.237   9.232  22.412  0.00  0.00    +0.000 A 
ATOM     12  C   UNL     1       0.301   9.459  21.131  0.00  0.00    +0.000 A 
ATOM     13  C   UNL     1       0.929   8.458  20.369  0.00  0.00    +0.000 A 
ATOM     14  C   UNL     1       1.467   8.790  19.122  0.00  0.00    +0.000 A 
ATOM     15  C   UNL     1       1.384  10.098  18.689  0.00  0.00    +0.000 A 
ATOM     16  N   UNL     1       0.803  11.081  19.405  0.00  0.00    +0.000 NA
ATOM     17  C   UNL     1       0.274  10.770  20.600  0.00  0.00    +0.000 A 
ATOM     18  C   UNL     1      -0.287  11.783  21.362  0.00  0.00    +0.000 A 
BRANCH   9  20
ATOM     19  C   UNL     1      -2.042  13.579  22.428  0.00  0.00    +0.000 C 
ATOM     20  O   UNL     1      -1.340  12.653  23.248  0.00  0.00    +0.000 OA
ENDBRANCH   9  20
ENDBRANCH   7  13
ENDBRANCH   1   7
BRANCH   4  21
ATOM     21  O   UNL     1       4.306   2.720  20.180  0.00  0.00    +0.000 OA
ATOM     22  H   UNL     1       4.352   2.501  21.124  0.00  0.00    +0.000 HD
ENDBRANCH   4  21
BRANCH   5  23
ATOM     23  C   UNL     1       5.497   5.183  19.209  0.00  0.00    +0.000 C 
BRANCH  23  24
ATOM     24  N   UNL     1       5.919   4.183  18.206  0.00  0.00    +0.000 NA
ATOM     25  C   UNL     1       4.971   3.964  17.112  0.00  0.00    +0.000 C 
ATOM     26  C   UNL     1       5.011   4.977  15.937  0.00  0.00    +0.000 C 
ATOM     27  N   UNL     1       6.298   5.591  15.540  0.00  0.00    +0.000 NA
ATOM     28  C   UNL     1       7.276   5.629  16.646  0.00  0.00    +0.000 C 
ATOM     29  C   UNL     1       7.241   4.445  17.631  0.00  0.00    +0.000 C 
BRANCH  27  30
ATOM     30  C   UNL     1       6.893   5.029  14.314  0.00  0.00    +0.000 C 
BRANCH  30  31
ATOM     31  C   UNL     1       6.167   3.778  13.740  0.00  0.00    +0.000 C 
BRANCH  31  32
ATOM     32  N   UNL     1       6.048   3.761  12.262  0.00  0.00    +0.000 NA
ATOM     33  C   UNL     1       7.305   4.142  11.613  0.00  0.00    +0.000 C 
ATOM     34  C   UNL     1       5.649   2.423  11.814  0.00  0.00    +0.000 C 
ENDBRANCH  31  32
ENDBRANCH  30  31
ENDBRANCH  27  30
ENDBRANCH  23  24
ENDBRANCH   5  23
TORSDOF 9
ENDMDL
MODEL 6
REMARK VINA RESULT:      -7.6      3.750      5.645
REMARK  Name = 
REMARK  12 active torsions:
REMARK  status: ('A' for Active; 'I' for Inactive)
REMARK    1  A    between atoms: C_1  and  O_2
REMARK    2  A    between atoms: O_2  and  C_3
REMARK    3  A    between atoms: C_7  and  N_8
REMARK    4  A    between atoms: N_8  and  C_9
REMARK    5  A    between atoms: C_12  and  O_13
REMARK    6  A    between atoms: C_14  and  C_15
REMARK    7  A    between atoms: C_15  and  N_16
REMARK    8  A    between atoms: N_19  and  C_20
REMARK    9  A    between atoms: C_20  and  C_21
REMARK   10  A    between atoms: C_21  and  N_22
REMARK   11  A    between atoms: N_22  and  C_23
REMARK   12  A    between atoms: N_22  and  C_24
REMARK                            x       y       z     vdW  Elec       q    Type
REMARK                         _______ _______ _______ _____ _____    ______ ____
ROOT
ATOM      1  C   UNL     1      -0.265  10.197  18.688  0.00  0.00    +0.000 A 
ATOM      2  C   UNL     1      -0.664  10.058  20.023  0.00  0.00    +0.000 A 
ATOM      3  C   UNL     1       0.100   9.327  20.915  0.00  0.00    +0.000 A 
ATOM      4  C   UNL     1       1.240   8.675  20.461  0.00  0.00    +0.000 A 
ATOM      5  C   UNL     1       1.528   8.563  19.092  0.00  0.00    +0.000 A 
ATOM      6  C   UNL     1       0.768   9.371  18.206  0.00  0.00    +0.000 A 
ENDROOT
BRANCH   1   7
ATOM      7  N   UNL     1      -0.972  11.171  17.942  0.00  0.00    +0.000 N 
ATOM      8  H   UNL     1      -0.331  11.578  17.259  0.00  0.00    +0.000 HD
BRANCH   7  13
ATOM      9  C   UNL     1      -5.538  12.886  19.547  0.00  0.00    +0.000 A 
ATOM     10  C   UNL     1      -4.295  12.818  20.168  0.00  0.00    +0.000 A 
ATOM     11  C   UNL     1      -3.221  12.251  19.490  0.00  0.00    +0.000 A 
ATOM     12  C   UNL     1      -3.363  11.738  18.187  0.00  0.00    +0.000 A 
ATOM     13  C   UNL     1      -2.294  11.204  17.447  0.00  0.00    +0.000 A 
ATOM     14  C   UNL     1      -2.527  10.753  16.145  0.00  0.00    +0.000 A 
ATOM     15  C   UNL     1      -3.798  10.869  15.619  0.00  0.00    +0.000 A 
ATOM     16  N   UNL     1      -4.837  11.391  16.299  0.00  0.00    +0.000 NA
ATOM     17  C   UNL     1      -4.626  11.817  17.555  0.00  0.00    +0.000 A 
ATOM     18  C   UNL     1      -5.679  12.396  18.246  0.00  0.00    +0.000 A 
BRANCH   9  20
ATOM     19  C   UNL     1      -7.455  12.584  20.906  0.00  0.00    +0.000 C 
ATOM     20  O   UNL     1      -6.667  13.434  20.082  0.00  0.00    +0.000 OA
ENDBRANCH   9  20
ENDBRANCH   7  13
ENDBRANCH   1   7
BRANCH   4  21
ATOM     21  O   UNL     1       2.124   8.212  21.394  0.00  0.00    +0.000 OA
ATOM     22  H   UNL     1       2.913   7.895  20.927  0.00  0.00    +0.000 HD
ENDBRANCH   4  21
BRANCH   5  23
ATOM     23  C   UNL     1       2.718   7.739  18.592  0.00  0.00    +0.000 C 
BRANCH  23  24
ATOM     24  N   UNL     1       2.910   6.445  19.281  0.00  0.00    +0.000 NA
ATOM     25  C   UNL     1       1.903   5.427  18.979  0.00  0.00    +0.000 C 
ATOM     26  C   UNL     1       2.097   4.617  17.669  0.00  0.00    +0.000 C 
ATOM     27  N   UNL     1       3.463   4.311  17.190  0.00  0.00    +0.000 NA
ATOM     28  C   UNL     1       4.466   5.283  17.669  0.00  0.00    +0.000 C 
ATOM     29  C   UNL     1       4.239   5.861  19.080  0.00  0.00    +0.000 C 
BRANCH  27  30
ATOM     30  C   UNL     1       3.901   2.924  17.429  0.00  0.00    +0.000 C 
BRANCH  30  31
ATOM     31  C   UNL     1       2.845   2.005  18.109  0.00  0.00    +0.000 C 
BRANCH  31  32
ATOM     32  N   UNL     1       3.106   1.725  19.542  0.00  0.00    +0.000 NA
ATOM     33  C   UNL     1       4.367   2.321  19.990  0.00  0.00    +0.000 C 
ATOM     34  C   UNL     1       2.002   2.243  20.356  0.00  0.00    +0.000 C 
ENDBRANCH  31  32
ENDBRANCH  30  31
ENDBRANCH  27  30
ENDBRANCH  23  24
ENDBRANCH   5  23
TORSDOF 9
ENDMDL
MODEL 7
REMARK VINA RESULT:      -7.6      2.979     11.535
REMARK  Name = 
REMARK  12 active torsions:
REMARK  status: ('A' for Active; 'I' for Inactive)
REMARK    1  A    between atoms: C_1  and  O_2
REMARK    2  A    between atoms: O_2  and  C_3
REMARK    3  A    between atoms: C_7  and  N_8
REMARK    4  A    between atoms: N_8  and  C_9
REMARK    5  A    between atoms: C_12  and  O_13
REMARK    6  A    between atoms: C_14  and  C_15
REMARK    7  A    between atoms: C_15  and  N_16
REMARK    8  A    between atoms: N_19  and  C_20
REMARK    9  A    between atoms: C_20  and  C_21
REMARK   10  A    between atoms: C_21  and  N_22
REMARK   11  A    between atoms: N_22  and  C_23
REMARK   12  A    between atoms: N_22  and  C_24
REMARK                            x       y       z     vdW  Elec       q    Type
REMARK                         _______ _______ _______ _____ _____    ______ ____
ROOT
ATOM      1  C   UNL     1       1.845   8.146  19.730  0.00  0.00    +0.000 A 
ATOM      2  C   UNL     1       1.830   8.398  18.351  0.00  0.00    +0.000 A 
ATOM      3  C   UNL     1       1.499   9.651  17.867  0.00  0.00    +0.000 A 
ATOM      4  C   UNL     1       1.116  10.646  18.758  0.00  0.00    +0.000 A 
ATOM      5  C   UNL     1       0.857  10.366  20.109  0.00  0.00    +0.000 A 
ATOM      6  C   UNL     1       1.265   9.095  20.592  0.00  0.00    +0.000 A 
ENDROOT
BRANCH   1   7
ATOM      7  N   UNL     1       2.448   6.924  20.115  0.00  0.00    +0.000 N 
ATOM      8  H   UNL     1       2.458   6.881  21.137  0.00  0.00    +0.000 HD
BRANCH   7  13
ATOM      9  C   UNL     1       5.039   4.128  16.676  0.00  0.00    +0.000 A 
ATOM     10  C   UNL     1       5.146   5.458  17.069  0.00  0.00    +0.000 A 
ATOM     11  C   UNL     1       4.260   5.966  18.013  0.00  0.00    +0.000 A 
ATOM     12  C   UNL     1       3.252   5.164  18.581  0.00  0.00    +0.000 A 
ATOM     13  C   UNL     1       2.370   5.622  19.576  0.00  0.00    +0.000 A 
ATOM     14  C   UNL     1       1.425   4.738  20.105  0.00  0.00    +0.000 A 
ATOM     15  C   UNL     1       1.405   3.435  19.650  0.00  0.00    +0.000 A 
ATOM     16  N   UNL     1       2.248   2.965  18.710  0.00  0.00    +0.000 NA
ATOM     17  C   UNL     1       3.152   3.809  18.187  0.00  0.00    +0.000 A 
ATOM     18  C   UNL     1       4.052   3.323  17.251  0.00  0.00    +0.000 A 
BRANCH   9  20
ATOM     19  C   UNL     1       6.171   4.213  14.596  0.00  0.00    +0.000 C 
ATOM     20  O   UNL     1       5.850   3.494  15.781  0.00  0.00    +0.000 OA
ENDBRANCH   9  20
ENDBRANCH   7  13
ENDBRANCH   1   7
BRANCH   4  21
ATOM     21  O   UNL     1       1.078  11.932  18.299  0.00  0.00    +0.000 OA
ATOM     22  H   UNL     1       0.204  12.299  18.511  0.00  0.00    +0.000 HD
ENDBRANCH   4  21
BRANCH   5  23
ATOM     23  C   UNL     1       0.317  11.440  21.057  0.00  0.00    +0.000 C 
BRANCH  23  24
ATOM     24  N   UNL     1      -1.120  11.319  21.378  0.00  0.00    +0.000 NA
ATOM     25  C   UNL     1      -1.459  11.513  22.788  0.00  0.00    +0.000 C 
ATOM     26  C   UNL     1      -1.598  12.978  23.281  0.00  0.00    +0.000 C 
ATOM     27  N   UNL     1      -2.118  14.015  22.363  0.00  0.00    +0.000 NA
ATOM     28  C   UNL     1      -1.896  13.681  20.942  0.00  0.00    +0.000 C 
ATOM     29  C   UNL     1      -1.980  12.188  20.569  0.00  0.00    +0.000 C 
BRANCH  27  30
ATOM     30  C   UNL     1      -3.517  14.409  22.611  0.00  0.00    +0.000 C 
BRANCH  30  31
ATOM     31  C   UNL     1      -3.777  15.095  23.984  0.00  0.00    +0.000 C 
BRANCH  31  32
ATOM     32  N   UNL     1      -4.712  16.244  23.929  0.00  0.00    +0.000 NA
ATOM     33  C   UNL     1      -6.110  15.806  23.903  0.00  0.00    +0.000 C 
ATOM     34  C   UNL     1      -4.492  17.115  25.088  0.00  0.00    +0.000 C 
ENDBRANCH  31  32
ENDBRANCH  30  31
ENDBRANCH  27  30
ENDBRANCH  23  24
ENDBRANCH   5  23
TORSDOF 9
ENDMDL
MODEL 8
REMARK VINA RESULT:      -7.5      2.581      9.517
REMARK  Name = 
REMARK  12 active torsions:
REMARK  status: ('A' for Active; 'I' for Inactive)
REMARK    1  A    between atoms: C_1  and  O_2
REMARK    2  A    between atoms: O_2  and  C_3
REMARK    3  A    between atoms: C_7  and  N_8
REMARK    4  A    between atoms: N_8  and  C_9
REMARK    5  A    between atoms: C_12  and  O_13
REMARK    6  A    between atoms: C_14  and  C_15
REMARK    7  A    between atoms: C_15  and  N_16
REMARK    8  A    between atoms: N_19  and  C_20
REMARK    9  A    between atoms: C_20  and  C_21
REMARK   10  A    between atoms: C_21  and  N_22
REMARK   11  A    between atoms: N_22  and  C_23
REMARK   12  A    between atoms: N_22  and  C_24
REMARK                            x       y       z     vdW  Elec       q    Type
REMARK                         _______ _______ _______ _____ _____    ______ ____
ROOT
ATOM      1  C   UNL     1       4.350   4.068  19.621  0.00  0.00    +0.000 A 
ATOM      2  C   UNL     1       3.854   2.879  20.172  0.00  0.00    +0.000 A 
ATOM      3  C   UNL     1       2.515   2.758  20.500  0.00  0.00    +0.000 A 
ATOM      4  C   UNL     1       1.673   3.851  20.340  0.00  0.00    +0.000 A 
ATOM      5  C   UNL     1       2.173   5.130  20.052  0.00  0.00    +0.000 A 
ATOM      6  C   UNL     1       3.535   5.215  19.658  0.00  0.00    +0.000 A 
ENDROOT
BRANCH   1   7
ATOM      7  N   UNL     1       5.658   3.988  19.086  0.00  0.00    +0.000 N 
ATOM      8  H   UNL     1       5.862   3.006  18.889  0.00  0.00    +0.000 HD
BRANCH   7  13
ATOM      9  C   UNL     1       6.377   4.272  14.010  0.00  0.00    +0.000 A 
ATOM     10  C   UNL     1       5.728   3.338  14.810  0.00  0.00    +0.000 A 
ATOM     11  C   UNL     1       5.730   3.500  16.191  0.00  0.00    +0.000 A 
ATOM     12  C   UNL     1       6.379   4.589  16.802  0.00  0.00    +0.000 A 
ATOM     13  C   UNL     1       6.363   4.819  18.189  0.00  0.00    +0.000 A 
ATOM     14  C   UNL     1       7.007   5.951  18.698  0.00  0.00    +0.000 A 
ATOM     15  C   UNL     1       7.619   6.820  17.818  0.00  0.00    +0.000 A 
ATOM     16  N   UNL     1       7.637   6.633  16.483  0.00  0.00    +0.000 NA
ATOM     17  C   UNL     1       7.031   5.543  15.985  0.00  0.00    +0.000 A 
ATOM     18  C   UNL     1       7.006   5.366  14.610  0.00  0.00    +0.000 A 
BRANCH   9  20
ATOM     19  C   UNL     1       6.268   2.983  12.025  0.00  0.00    +0.000 C 
ATOM     20  O   UNL     1       6.434   4.252  12.647  0.00  0.00    +0.000 OA
ENDBRANCH   9  20
ENDBRANCH   7  13
ENDBRANCH   1   7
BRANCH   4  21
ATOM     21  O   UNL     1       0.326   3.630  20.390  0.00  0.00    +0.000 OA
ATOM     22  H   UNL     1       0.181   2.758  20.790  0.00  0.00    +0.000 HD
ENDBRANCH   4  21
BRANCH   5  23
ATOM     23  C   UNL     1       1.254   6.353  19.998  0.00  0.00    +0.000 C 
BRANCH  23  24
ATOM     24  N   UNL     1       1.906   7.635  20.338  0.00  0.00    +0.000 NA
ATOM     25  C   UNL     1       1.915   8.630  19.265  0.00  0.00    +0.000 C 
ATOM     26  C   UNL     1       0.627   9.476  19.082  0.00  0.00    +0.000 C 
ATOM     27  N   UNL     1      -0.190   9.834  20.262  0.00  0.00    +0.000 NA
ATOM     28  C   UNL     1      -0.027   8.881  21.378  0.00  0.00    +0.000 C 
ATOM     29  C   UNL     1       1.374   8.264  21.551  0.00  0.00    +0.000 C 
BRANCH  27  30
ATOM     30  C   UNL     1      -0.035  11.227  20.717  0.00  0.00    +0.000 C 
BRANCH  30  31
ATOM     31  C   UNL     1       1.381  11.838  20.503  0.00  0.00    +0.000 C 
BRANCH  31  32
ATOM     32  N   UNL     1       1.386  13.294  20.221  0.00  0.00    +0.000 NA
ATOM     33  C   UNL     1       0.958  14.073  21.385  0.00  0.00    +0.000 C 
ATOM     34  C   UNL     1       2.731  13.714  19.816  0.00  0.00    +0.000 C 
ENDBRANCH  31  32
ENDBRANCH  30  31
ENDBRANCH  27  30
ENDBRANCH  23  24
ENDBRANCH   5  23
TORSDOF 9
ENDMDL
MODEL 9
REMARK VINA RESULT:      -7.5      2.753     11.430
REMARK  Name = 
REMARK  12 active torsions:
REMARK  status: ('A' for Active; 'I' for Inactive)
REMARK    1  A    between atoms: C_1  and  O_2
REMARK    2  A    between atoms: O_2  and  C_3
REMARK    3  A    between atoms: C_7  and  N_8
REMARK    4  A    between atoms: N_8  and  C_9
REMARK    5  A    between atoms: C_12  and  O_13
REMARK    6  A    between atoms: C_14  and  C_15
REMARK    7  A    between atoms: C_15  and  N_16
REMARK    8  A    between atoms: N_19  and  C_20
REMARK    9  A    between atoms: C_20  and  C_21
REMARK   10  A    between atoms: C_21  and  N_22
REMARK   11  A    between atoms: N_22  and  C_23
REMARK   12  A    between atoms: N_22  and  C_24
REMARK                            x       y       z     vdW  Elec       q    Type
REMARK                         _______ _______ _______ _____ _____    ______ ____
ROOT
ATOM      1  C   UNL     1       1.802   8.141  19.557  0.00  0.00    +0.000 A 
ATOM      2  C   UNL     1       2.231   8.578  18.297  0.00  0.00    +0.000 A 
ATOM      3  C   UNL     1       1.829   9.807  17.804  0.00  0.00    +0.000 A 
ATOM      4  C   UNL     1       0.941  10.580  18.541  0.00  0.00    +0.000 A 
ATOM      5  C   UNL     1       0.280  10.069  19.669  0.00  0.00    +0.000 A 
ATOM      6  C   UNL     1       0.755   8.837  20.189  0.00  0.00    +0.000 A 
ENDROOT
BRANCH   1   7
ATOM      7  N   UNL     1       2.478   7.005  20.066  0.00  0.00    +0.000 N 
ATOM      8  H   UNL     1       2.488   7.070  21.086  0.00  0.00    +0.000 HD
BRANCH   7  13
ATOM      9  C   UNL     1       5.048   4.097  16.705  0.00  0.00    +0.000 A 
ATOM     10  C   UNL     1       5.058   5.465  16.954  0.00  0.00    +0.000 A 
ATOM     11  C   UNL     1       4.205   5.991  17.918  0.00  0.00    +0.000 A 
ATOM     12  C   UNL     1       3.325   5.170  18.647  0.00  0.00    +0.000 A 
ATOM     13  C   UNL     1       2.483   5.652  19.666  0.00  0.00    +0.000 A 
ATOM     14  C   UNL     1       1.671   4.750  20.360  0.00  0.00    +0.000 A 
ATOM     15  C   UNL     1       1.739   3.410  20.038  0.00  0.00    +0.000 A 
ATOM     16  N   UNL     1       2.548   2.918  19.078  0.00  0.00    +0.000 NA
ATOM     17  C   UNL     1       3.324   3.777  18.398  0.00  0.00    +0.000 A 
ATOM     18  C   UNL     1       4.191   3.275  17.440  0.00  0.00    +0.000 A 
BRANCH   9  20
ATOM     19  C   UNL     1       6.018   4.070  14.543  0.00  0.00    +0.000 C 
ATOM     20  O   UNL     1       5.844   3.445  15.809  0.00  0.00    +0.000 OA
ENDBRANCH   9  20
ENDBRANCH   7  13
ENDBRANCH   1   7
BRANCH   4  21
ATOM     21  O   UNL     1       0.788  11.890  18.184  0.00  0.00    +0.000 OA
ATOM     22  H   UNL     1       1.334  12.051  17.398  0.00  0.00    +0.000 HD
ENDBRANCH   4  21
BRANCH   5  23
ATOM     23  C   UNL     1      -0.789  10.883  20.404  0.00  0.00    +0.000 C 
BRANCH  23  24
ATOM     24  N   UNL     1      -0.480  12.321  20.552  0.00  0.00    +0.000 NA
ATOM     25  C   UNL     1      -1.550  13.229  20.138  0.00  0.00    +0.000 C 
ATOM     26  C   UNL     1      -2.683  13.493  21.165  0.00  0.00    +0.000 C 
ATOM     27  N   UNL     1      -2.373  13.506  22.612  0.00  0.00    +0.000 NA
ATOM     28  C   UNL     1      -1.179  12.705  22.946  0.00  0.00    +0.000 C 
ATOM     29  C   UNL     1      -0.047  12.696  21.901  0.00  0.00    +0.000 C 
BRANCH  27  30
ATOM     30  C   UNL     1      -2.305  14.850  23.213  0.00  0.00    +0.000 C 
BRANCH  30  31
ATOM     31  C   UNL     1      -1.436  14.956  24.500  0.00  0.00    +0.000 C 
BRANCH  31  32
ATOM     32  N   UNL     1      -2.111  15.612  25.645  0.00  0.00    +0.000 NA
ATOM     33  C   UNL     1      -1.205  16.507  26.369  0.00  0.00    +0.000 C 
ATOM     34  C   UNL     1      -3.271  16.371  25.166  0.00  0.00    +0.000 C 
ENDBRANCH  31  32
ENDBRANCH  30  31
ENDBRANCH  27  30
ENDBRANCH  23  24
ENDBRANCH   5  23
TORSDOF 9
ENDMDL
