MODEL 1
REMARK VINA RESULT:      -7.2      0.000      0.000
REMARK  Name = 
REMARK  7 active torsions:
REMARK  status: ('A' for Active; 'I' for Inactive)
REMARK    1  A    between atoms: C_1  and  C_2
REMARK    2  A    between atoms: C_5  and  C_6
REMARK    3  A    between atoms: C_7  and  N_8
REMARK    4  A    between atoms: N_8  and  C_9
REMARK    5  A    between atoms: C_9  and  C_10
REMARK    6  A    between atoms: C_15  and  C_16
REMARK    7  A    between atoms: C_16  and  O_17
REMARK                            x       y       z     vdW  Elec       q    Type
REMARK                         _______ _______ _______ _____ _____    ______ ____
ROOT
ATOM      1  N   UNL     1       2.235   6.927  20.213  0.00  0.00    +0.000 N 
ATOM      2  H   UNL     1       3.181   7.049  20.571  0.00  0.00    +0.000 HD
ENDROOT
BRANCH   1   9
ATOM      3  C   UNL     1      -0.440  10.232  22.844  0.00  0.00    +0.000 C 
ATOM      4  C   UNL     1       0.209   9.795  21.563  0.00  0.00    +0.000 A 
ATOM      5  C   UNL     1       0.149  10.603  20.429  0.00  0.00    +0.000 A 
ATOM      6  C   UNL     1       0.755  10.191  19.247  0.00  0.00    +0.000 A 
ATOM      7  C   UNL     1       1.452   8.974  19.179  0.00  0.00    +0.000 A 
ATOM      8  C   UNL     1       2.026   8.550  17.855  0.00  0.00    +0.000 C 
ATOM      9  C   UNL     1       1.544   8.145  20.322  0.00  0.00    +0.000 A 
ATOM     10  C   UNL     1       0.888   8.563  21.495  0.00  0.00    +0.000 A 
ENDBRANCH   1   9
BRANCH   1  11
ATOM     11  C   UNL     1       1.661   5.673  20.701  0.00  0.00    +0.000 C 
BRANCH  11  12
ATOM     12  C   UNL     1       1.867   4.530  19.712  0.00  0.00    +0.000 A 
ATOM     13  C   UNL     1       2.233   4.903  18.398  0.00  0.00    +0.000 A 
ATOM     14  C   UNL     1       2.434   3.955  17.393  0.00  0.00    +0.000 A 
ATOM     15  C   UNL     1       2.268   2.609  17.675  0.00  0.00    +0.000 A 
ATOM     16  C   UNL     1       1.950   2.212  18.972  0.00  0.00    +0.000 A 
ATOM     17  C   UNL     1       1.786   3.150  20.018  0.00  0.00    +0.000 A 
BRANCH  17  18
ATOM     18  C   UNL     1       1.483   2.572  21.385  0.00  0.00    +0.000 C 
BRANCH  18  19
ATOM     19  O   UNL     1       2.622   2.500  22.224  0.00  0.00    +0.000 OA
ATOM     20  H   UNL     1       2.259   2.450  23.135  0.00  0.00    +0.000 HD
ENDBRANCH  18  19
ENDBRANCH  17  18
ENDBRANCH  11  12
ENDBRANCH   1  11
TORSDOF 5
ENDMDL
MODEL 2
REMARK VINA RESULT:      -7.0      3.373      6.686
REMARK  Name = 
REMARK  7 active torsions:
REMARK  status: ('A' for Active; 'I' for Inactive)
REMARK    1  A    between atoms: C_1  and  C_2
REMARK    2  A    between atoms: C_5  and  C_6
REMARK    3  A    between atoms: C_7  and  N_8
REMARK    4  A    between atoms: N_8  and  C_9
REMARK    5  A    between atoms: C_9  and  C_10
REMARK    6  A    between atoms: C_15  and  C_16
REMARK    7  A    between atoms: C_16  and  O_17
REMARK                            x       y       z     vdW  Elec       q    Type
REMARK                         _______ _______ _______ _____ _____    ______ ____
ROOT
ATOM      1  N   UNL     1       4.279   3.167  17.404  0.00  0.00    +0.000 N 
ATOM      2  H   UNL     1       4.631   3.196  18.359  0.00  0.00    +0.000 HD
ENDROOT
BRANCH   1   9
ATOM      3  C   UNL     1       6.324   3.776  12.881  0.00  0.00    +0.000 C 
ATOM      4  C   UNL     1       6.283   4.074  14.351  0.00  0.00    +0.000 A 
ATOM      5  C   UNL     1       7.196   4.963  14.917  0.00  0.00    +0.000 A 
ATOM      6  C   UNL     1       7.149   5.235  16.280  0.00  0.00    +0.000 A 
ATOM      7  C   UNL     1       6.178   4.643  17.103  0.00  0.00    +0.000 A 
ATOM      8  C   UNL     1       6.222   4.923  18.580  0.00  0.00    +0.000 C 
ATOM      9  C   UNL     1       5.227   3.753  16.549  0.00  0.00    +0.000 A 
ATOM     10  C   UNL     1       5.319   3.461  15.175  0.00  0.00    +0.000 A 
ENDBRANCH   1   9
BRANCH   1  11
ATOM     11  C   UNL     1       2.869   3.555  17.366  0.00  0.00    +0.000 C 
BRANCH  11  12
ATOM     12  C   UNL     1       2.529   4.568  18.454  0.00  0.00    +0.000 A 
ATOM     13  C   UNL     1       2.674   5.930  18.103  0.00  0.00    +0.000 A 
ATOM     14  C   UNL     1       2.413   6.957  19.013  0.00  0.00    +0.000 A 
ATOM     15  C   UNL     1       2.006   6.647  20.300  0.00  0.00    +0.000 A 
ATOM     16  C   UNL     1       1.814   5.314  20.659  0.00  0.00    +0.000 A 
ATOM     17  C   UNL     1       2.027   4.259  19.742  0.00  0.00    +0.000 A 
BRANCH  17  18
ATOM     18  C   UNL     1       1.740   2.864  20.258  0.00  0.00    +0.000 C 
BRANCH  18  19
ATOM     19  O   UNL     1       0.835   2.850  21.349  0.00  0.00    +0.000 OA
ATOM     20  H   UNL     1       0.103   3.444  21.075  0.00  0.00    +0.000 HD
ENDBRANCH  18  19
ENDBRANCH  17  18
ENDBRANCH  11  12
ENDBRANCH   1  11
TORSDOF 5
ENDMDL
MODEL 3
REMARK VINA RESULT:      -6.9      3.536      6.320
REMARK  Name = 
REMARK  7 active torsions:
REMARK  status: ('A' for Active; 'I' for Inactive)
REMARK    1  A    between atoms: C_1  and  C_2
REMARK    2  A    between atoms: C_5  and  C_6
REMARK    3  A    between atoms: C_7  and  N_8
REMARK    4  A    between atoms: N_8  and  C_9
REMARK    5  A    between atoms: C_9  and  C_10
REMARK    6  A    between atoms: C_15  and  C_16
REMARK    7  A    between atoms: C_16  and  O_17
REMARK                            x       y       z     vdW  Elec       q    Type
REMARK                         _______ _______ _______ _____ _____    ______ ____
ROOT
ATOM      1  N   UNL     1       3.886   6.095  17.687  0.00  0.00    +0.000 N 
ATOM      2  H   UNL     1       3.753   7.016  17.274  0.00  0.00    +0.000 HD
ENDROOT
BRANCH   1   9
ATOM      3  C   UNL     1       6.066   4.036  13.686  0.00  0.00    +0.000 C 
ATOM      4  C   UNL     1       6.089   4.426  15.134  0.00  0.00    +0.000 A 
ATOM      5  C   UNL     1       7.218   4.180  15.914  0.00  0.00    +0.000 A 
ATOM      6  C   UNL     1       7.232   4.548  17.255  0.00  0.00    +0.000 A 
ATOM      7  C   UNL     1       6.128   5.188  17.840  0.00  0.00    +0.000 A 
ATOM      8  C   UNL     1       6.176   5.498  19.312  0.00  0.00    +0.000 C 
ATOM      9  C   UNL     1       4.978   5.467  17.065  0.00  0.00    +0.000 A 
ATOM     10  C   UNL     1       4.970   5.049  15.721  0.00  0.00    +0.000 A 
ENDBRANCH   1   9
BRANCH   1  11
ATOM     11  C   UNL     1       2.600   5.416  17.846  0.00  0.00    +0.000 C 
BRANCH  11  12
ATOM     12  C   UNL     1       2.578   4.521  19.080  0.00  0.00    +0.000 A 
ATOM     13  C   UNL     1       2.153   5.131  20.284  0.00  0.00    +0.000 A 
ATOM     14  C   UNL     1       2.106   4.428  21.488  0.00  0.00    +0.000 A 
ATOM     15  C   UNL     1       2.487   3.096  21.522  0.00  0.00    +0.000 A 
ATOM     16  C   UNL     1       2.868   2.460  20.343  0.00  0.00    +0.000 A 
ATOM     17  C   UNL     1       2.881   3.138  19.102  0.00  0.00    +0.000 A 
BRANCH  17  18
ATOM     18  C   UNL     1       3.277   2.309  17.898  0.00  0.00    +0.000 C 
BRANCH  18  19
ATOM     19  O   UNL     1       2.166   1.760  17.211  0.00  0.00    +0.000 OA
ATOM     20  H   UNL     1       1.605   2.532  16.984  0.00  0.00    +0.000 HD
ENDBRANCH  18  19
ENDBRANCH  17  18
ENDBRANCH  11  12
ENDBRANCH   1  11
TORSDOF 5
ENDMDL
MODEL 4
REMARK VINA RESULT:      -6.9      3.747      6.922
REMARK  Name = 
REMARK  7 active torsions:
REMARK  status: ('A' for Active; 'I' for Inactive)
REMARK    1  A    between atoms: C_1  and  C_2
REMARK    2  A    between atoms: C_5  and  C_6
REMARK    3  A    between atoms: C_7  and  N_8
REMARK    4  A    between atoms: N_8  and  C_9
REMARK    5  A    between atoms: C_9  and  C_10
REMARK    6  A    between atoms: C_15  and  C_16
REMARK    7  A    between atoms: C_16  and  O_17
REMARK                            x       y       z     vdW  Elec       q    Type
REMARK                         _______ _______ _______ _____ _____    ______ ____
ROOT
ATOM      1  N   UNL     1       5.021   3.569  17.521  0.00  0.00    +0.000 N 
ATOM      2  H   UNL     1       5.260   4.194  18.288  0.00  0.00    +0.000 HD
ENDROOT
BRANCH   1   9
ATOM      3  C   UNL     1       5.663   3.552  12.561  0.00  0.00    +0.000 C 
ATOM      4  C   UNL     1       6.080   3.989  13.935  0.00  0.00    +0.000 A 
ATOM      5  C   UNL     1       7.174   4.836  14.104  0.00  0.00    +0.000 A 
ATOM      6  C   UNL     1       7.553   5.239  15.380  0.00  0.00    +0.000 A 
ATOM      7  C   UNL     1       6.834   4.822  16.512  0.00  0.00    +0.000 A 
ATOM      8  C   UNL     1       7.333   5.234  17.870  0.00  0.00    +0.000 C 
ATOM      9  C   UNL     1       5.707   3.979  16.365  0.00  0.00    +0.000 A 
ATOM     10  C   UNL     1       5.368   3.551  15.068  0.00  0.00    +0.000 A 
ENDBRANCH   1   9
BRANCH   1  11
ATOM     11  C   UNL     1       3.583   3.304  17.505  0.00  0.00    +0.000 C 
BRANCH  11  12
ATOM     12  C   UNL     1       2.849   4.084  18.591  0.00  0.00    +0.000 A 
ATOM     13  C   UNL     1       3.176   5.456  18.700  0.00  0.00    +0.000 A 
ATOM     14  C   UNL     1       2.591   6.277  19.665  0.00  0.00    +0.000 A 
ATOM     15  C   UNL     1       1.666   5.747  20.550  0.00  0.00    +0.000 A 
ATOM     16  C   UNL     1       1.294   4.408  20.436  0.00  0.00    +0.000 A 
ATOM     17  C   UNL     1       1.839   3.568  19.438  0.00  0.00    +0.000 A 
BRANCH  17  18
ATOM     18  C   UNL     1       1.311   2.148  19.408  0.00  0.00    +0.000 C 
BRANCH  18  19
ATOM     19  O   UNL     1       0.330   1.941  18.407  0.00  0.00    +0.000 OA
ATOM     20  H   UNL     1       0.665   1.184  17.881  0.00  0.00    +0.000 HD
ENDBRANCH  18  19
ENDBRANCH  17  18
ENDBRANCH  11  12
ENDBRANCH   1  11
TORSDOF 5
ENDMDL
MODEL 5
REMARK VINA RESULT:      -6.9      3.940      5.912
REMARK  Name = 
REMARK  7 active torsions:
REMARK  status: ('A' for Active; 'I' for Inactive)
REMARK    1  A    between atoms: C_1  and  C_2
REMARK    2  A    between atoms: C_5  and  C_6
REMARK    3  A    between atoms: C_7  and  N_8
REMARK    4  A    between atoms: N_8  and  C_9
REMARK    5  A    between atoms: C_9  and  C_10
REMARK    6  A    between atoms: C_15  and  C_16
REMARK    7  A    between atoms: C_16  and  O_17
REMARK                            x       y       z     vdW  Elec       q    Type
REMARK                         _______ _______ _______ _____ _____    ______ ____
ROOT
ATOM      1  N   UNL     1       3.484   4.135  17.268  0.00  0.00    +0.000 N 
ATOM      2  H   UNL     1       3.356   4.930  16.646  0.00  0.00    +0.000 HD
ENDROOT
BRANCH   1   9
ATOM      3  C   UNL     1       1.368   2.680  21.560  0.00  0.00    +0.000 C 
ATOM      4  C   UNL     1       1.822   3.762  20.623  0.00  0.00    +0.000 A 
ATOM      5  C   UNL     1       1.668   5.104  20.967  0.00  0.00    +0.000 A 
ATOM      6  C   UNL     1       2.094   6.100  20.094  0.00  0.00    +0.000 A 
ATOM      7  C   UNL     1       2.701   5.776  18.870  0.00  0.00    +0.000 A 
ATOM      8  C   UNL     1       3.077   6.896  17.938  0.00  0.00    +0.000 C 
ATOM      9  C   UNL     1       2.887   4.421  18.507  0.00  0.00    +0.000 A 
ATOM     10  C   UNL     1       2.411   3.431  19.388  0.00  0.00    +0.000 A 
ENDBRANCH   1   9
BRANCH   1  11
ATOM     11  C   UNL     1       4.854   3.629  17.177  0.00  0.00    +0.000 C 
BRANCH  11  12
ATOM     12  C   UNL     1       5.882   4.713  17.480  0.00  0.00    +0.000 A 
ATOM     13  C   UNL     1       6.373   4.751  18.806  0.00  0.00    +0.000 A 
ATOM     14  C   UNL     1       7.303   5.707  19.219  0.00  0.00    +0.000 A 
ATOM     15  C   UNL     1       7.763   6.652  18.318  0.00  0.00    +0.000 A 
ATOM     16  C   UNL     1       7.328   6.611  16.995  0.00  0.00    +0.000 A 
ATOM     17  C   UNL     1       6.421   5.626  16.541  0.00  0.00    +0.000 A 
BRANCH  17  18
ATOM     18  C   UNL     1       6.069   5.677  15.069  0.00  0.00    +0.000 C 
BRANCH  18  19
ATOM     19  O   UNL     1       6.742   4.694  14.301  0.00  0.00    +0.000 OA
ATOM     20  H   UNL     1       7.196   4.128  14.962  0.00  0.00    +0.000 HD
ENDBRANCH  18  19
ENDBRANCH  17  18
ENDBRANCH  11  12
ENDBRANCH   1  11
TORSDOF 5
ENDMDL
MODEL 6
REMARK VINA RESULT:      -6.9      3.610      5.700
REMARK  Name = 
REMARK  7 active torsions:
REMARK  status: ('A' for Active; 'I' for Inactive)
REMARK    1  A    between atoms: C_1  and  C_2
REMARK    2  A    between atoms: C_5  and  C_6
REMARK    3  A    between atoms: C_7  and  N_8
REMARK    4  A    between atoms: N_8  and  C_9
REMARK    5  A    between atoms: C_9  and  C_10
REMARK    6  A    between atoms: C_15  and  C_16
REMARK    7  A    between atoms: C_16  and  O_17
REMARK                            x       y       z     vdW  Elec       q    Type
REMARK                         _______ _______ _______ _____ _____    ______ ____
ROOT
ATOM      1  N   UNL     1       2.807   3.514  16.857  0.00  0.00    +0.000 N 
ATOM      2  H   UNL     1       2.466   3.290  15.924  0.00  0.00    +0.000 HD
ENDROOT
BRANCH   1   9
ATOM      3  C   UNL     1       7.269   4.906  15.078  0.00  0.00    +0.000 C 
ATOM      4  C   UNL     1       6.054   5.168  15.920  0.00  0.00    +0.000 A 
ATOM      5  C   UNL     1       5.928   6.364  16.625  0.00  0.00    +0.000 A 
ATOM      6  C   UNL     1       4.798   6.599  17.401  0.00  0.00    +0.000 A 
ATOM      7  C   UNL     1       3.761   5.655  17.472  0.00  0.00    +0.000 A 
ATOM      8  C   UNL     1       2.597   5.936  18.383  0.00  0.00    +0.000 C 
ATOM      9  C   UNL     1       3.856   4.442  16.750  0.00  0.00    +0.000 A 
ATOM     10  C   UNL     1       5.027   4.208  16.004  0.00  0.00    +0.000 A 
ENDBRANCH   1   9
BRANCH   1  11
ATOM     11  C   UNL     1       2.939   2.298  17.659  0.00  0.00    +0.000 C 
BRANCH  11  12
ATOM     12  C   UNL     1       2.489   2.516  19.100  0.00  0.00    +0.000 A 
ATOM     13  C   UNL     1       1.096   2.654  19.303  0.00  0.00    +0.000 A 
ATOM     14  C   UNL     1       0.555   2.877  20.570  0.00  0.00    +0.000 A 
ATOM     15  C   UNL     1       1.394   2.973  21.668  0.00  0.00    +0.000 A 
ATOM     16  C   UNL     1       2.767   2.798  21.502  0.00  0.00    +0.000 A 
ATOM     17  C   UNL     1       3.334   2.526  20.236  0.00  0.00    +0.000 A 
BRANCH  17  18
ATOM     18  C   UNL     1       4.834   2.317  20.213  0.00  0.00    +0.000 C 
BRANCH  18  19
ATOM     19  O   UNL     1       5.205   0.969  19.986  0.00  0.00    +0.000 OA
ATOM     20  H   UNL     1       4.649   0.680  19.230  0.00  0.00    +0.000 HD
ENDBRANCH  18  19
ENDBRANCH  17  18
ENDBRANCH  11  12
ENDBRANCH   1  11
TORSDOF 5
ENDMDL
MODEL 7
REMARK VINA RESULT:      -6.9      4.362      6.379
REMARK  Name = 
REMARK  7 active torsions:
REMARK  status: ('A' for Active; 'I' for Inactive)
REMARK    1  A    between atoms: C_1  and  C_2
REMARK    2  A    between atoms: C_5  and  C_6
REMARK    3  A    between atoms: C_7  and  N_8
REMARK    4  A    between atoms: N_8  and  C_9
REMARK    5  A    between atoms: C_9  and  C_10
REMARK    6  A    between atoms: C_15  and  C_16
REMARK    7  A    between atoms: C_16  and  O_17
REMARK                            x       y       z     vdW  Elec       q    Type
REMARK                         _______ _______ _______ _____ _____    ______ ____
ROOT
ATOM      1  N   UNL     1       5.862   4.067  18.505  0.00  0.00    +0.000 N 
ATOM      2  H   UNL     1       6.708   4.023  19.069  0.00  0.00    +0.000 HD
ENDROOT
BRANCH   1   9
ATOM      3  C   UNL     1       5.596   3.589  13.534  0.00  0.00    +0.000 C 
ATOM      4  C   UNL     1       6.119   4.283  14.757  0.00  0.00    +0.000 A 
ATOM      5  C   UNL     1       6.963   5.386  14.636  0.00  0.00    +0.000 A 
ATOM      6  C   UNL     1       7.443   6.025  15.775  0.00  0.00    +0.000 A 
ATOM      7  C   UNL     1       7.071   5.590  17.057  0.00  0.00    +0.000 A 
ATOM      8  C   UNL     1       7.677   6.277  18.251  0.00  0.00    +0.000 C 
ATOM      9  C   UNL     1       6.200   4.485  17.206  0.00  0.00    +0.000 A 
ATOM     10  C   UNL     1       5.760   3.829  16.041  0.00  0.00    +0.000 A 
ENDBRANCH   1   9
BRANCH   1  11
ATOM     11  C   UNL     1       4.778   4.700  19.256  0.00  0.00    +0.000 C 
BRANCH  11  12
ATOM     12  C   UNL     1       3.469   3.929  19.124  0.00  0.00    +0.000 A 
ATOM     13  C   UNL     1       2.540   4.435  18.187  0.00  0.00    +0.000 A 
ATOM     14  C   UNL     1       1.297   3.834  17.984  0.00  0.00    +0.000 A 
ATOM     15  C   UNL     1       0.948   2.712  18.717  0.00  0.00    +0.000 A 
ATOM     16  C   UNL     1       1.863   2.167  19.617  0.00  0.00    +0.000 A 
ATOM     17  C   UNL     1       3.145   2.731  19.807  0.00  0.00    +0.000 A 
BRANCH  17  18
ATOM     18  C   UNL     1       4.048   2.009  20.785  0.00  0.00    +0.000 C 
BRANCH  18  19
ATOM     19  O   UNL     1       5.213   1.476  20.179  0.00  0.00    +0.000 OA
ATOM     20  H   UNL     1       5.540   2.193  19.594  0.00  0.00    +0.000 HD
ENDBRANCH  18  19
ENDBRANCH  17  18
ENDBRANCH  11  12
ENDBRANCH   1  11
TORSDOF 5
ENDMDL
MODEL 8
REMARK VINA RESULT:      -6.8      1.446      1.858
REMARK  Name = 
REMARK  7 active torsions:
REMARK  status: ('A' for Active; 'I' for Inactive)
REMARK    1  A    between atoms: C_1  and  C_2
REMARK    2  A    between atoms: C_5  and  C_6
REMARK    3  A    between atoms: C_7  and  N_8
REMARK    4  A    between atoms: N_8  and  C_9
REMARK    5  A    between atoms: C_9  and  C_10
REMARK    6  A    between atoms: C_15  and  C_16
REMARK    7  A    between atoms: C_16  and  O_17
REMARK                            x       y       z     vdW  Elec       q    Type
REMARK                         _______ _______ _______ _____ _____    ______ ____
ROOT
ATOM      1  N   UNL     1       2.523   6.865  20.030  0.00  0.00    +0.000 N 
ATOM      2  H   UNL     1       3.499   7.146  20.103  0.00  0.00    +0.000 HD
ENDROOT
BRANCH   1   9
ATOM      3  C   UNL     1      -0.429   9.673  22.930  0.00  0.00    +0.000 C 
ATOM      4  C   UNL     1       0.230   9.395  21.611  0.00  0.00    +0.000 A 
ATOM      5  C   UNL     1       0.053  10.265  20.536  0.00  0.00    +0.000 A 
ATOM      6  C   UNL     1       0.670  10.001  19.317  0.00  0.00    +0.000 A 
ATOM      7  C   UNL     1       1.494   8.876  19.153  0.00  0.00    +0.000 A 
ATOM      8  C   UNL     1       2.077   8.607  17.793  0.00  0.00    +0.000 C 
ATOM      9  C   UNL     1       1.705   7.989  20.235  0.00  0.00    +0.000 A 
ATOM     10  C   UNL     1       1.038   8.254  21.446  0.00  0.00    +0.000 A 
ENDBRANCH   1   9
BRANCH   1  11
ATOM     11  C   UNL     1       2.297   5.612  20.751  0.00  0.00    +0.000 C 
BRANCH  11  12
ATOM     12  C   UNL     1       2.304   4.408  19.814  0.00  0.00    +0.000 A 
ATOM     13  C   UNL     1       1.070   3.734  19.658  0.00  0.00    +0.000 A 
ATOM     14  C   UNL     1       0.946   2.607  18.844  0.00  0.00    +0.000 A 
ATOM     15  C   UNL     1       2.053   2.121  18.169  0.00  0.00    +0.000 A 
ATOM     16  C   UNL     1       3.271   2.791  18.272  0.00  0.00    +0.000 A 
ATOM     17  C   UNL     1       3.412   3.961  19.053  0.00  0.00    +0.000 A 
BRANCH  17  18
ATOM     18  C   UNL     1       4.782   4.606  19.039  0.00  0.00    +0.000 C 
BRANCH  18  19
ATOM     19  O   UNL     1       5.840   3.665  18.977  0.00  0.00    +0.000 OA
ATOM     20  H   UNL     1       5.396   2.790  18.966  0.00  0.00    +0.000 HD
ENDBRANCH  18  19
ENDBRANCH  17  18
ENDBRANCH  11  12
ENDBRANCH   1  11
TORSDOF 5
ENDMDL
MODEL 9
REMARK VINA RESULT:      -6.8      3.956      6.338
REMARK  Name = 
REMARK  7 active torsions:
REMARK  status: ('A' for Active; 'I' for Inactive)
REMARK    1  A    between atoms: C_1  and  C_2
REMARK    2  A    between atoms: C_5  and  C_6
REMARK    3  A    between atoms: C_7  and  N_8
REMARK    4  A    between atoms: N_8  and  C_9
REMARK    5  A    between atoms: C_9  and  C_10
REMARK    6  A    between atoms: C_15  and  C_16
REMARK    7  A    between atoms: C_16  and  O_17
REMARK                            x       y       z     vdW  Elec       q    Type
REMARK                         _______ _______ _______ _____ _____    ______ ____
ROOT
ATOM      1  N   UNL     1       4.878   5.298  18.438  0.00  0.00    +0.000 N 
ATOM      2  H   UNL     1       3.965   5.711  18.255  0.00  0.00    +0.000 HD
ENDROOT
BRANCH   1   9
ATOM      3  C   UNL     1       5.134   3.794  13.676  0.00  0.00    +0.000 C 
ATOM      4  C   UNL     1       5.758   4.425  14.886  0.00  0.00    +0.000 A 
ATOM      5  C   UNL     1       7.064   4.911  14.834  0.00  0.00    +0.000 A 
ATOM      6  C   UNL     1       7.634   5.497  15.960  0.00  0.00    +0.000 A 
ATOM      7  C   UNL     1       6.905   5.630  17.152  0.00  0.00    +0.000 A 
ATOM      8  C   UNL     1       7.599   6.208  18.356  0.00  0.00    +0.000 C 
ATOM      9  C   UNL     1       5.571   5.163  17.224  0.00  0.00    +0.000 A 
ATOM     10  C   UNL     1       5.029   4.537  16.086  0.00  0.00    +0.000 A 
ENDBRANCH   1   9
BRANCH   1  11
ATOM     11  C   UNL     1       4.755   4.184  19.379  0.00  0.00    +0.000 C 
BRANCH  11  12
ATOM     12  C   UNL     1       3.310   3.722  19.527  0.00  0.00    +0.000 A 
ATOM     13  C   UNL     1       2.473   4.540  20.321  0.00  0.00    +0.000 A 
ATOM     14  C   UNL     1       1.134   4.219  20.552  0.00  0.00    +0.000 A 
ATOM     15  C   UNL     1       0.598   3.068  19.998  0.00  0.00    +0.000 A 
ATOM     16  C   UNL     1       1.389   2.266  19.177  0.00  0.00    +0.000 A 
ATOM     17  C   UNL     1       2.734   2.594  18.891  0.00  0.00    +0.000 A 
BRANCH  17  18
ATOM     18  C   UNL     1       3.460   1.655  17.950  0.00  0.00    +0.000 C 
BRANCH  18  19
ATOM     19  O   UNL     1       4.287   0.723  18.623  0.00  0.00    +0.000 OA
ATOM     20  H   UNL     1       4.441   0.007  17.969  0.00  0.00    +0.000 HD
ENDBRANCH  18  19
ENDBRANCH  17  18
ENDBRANCH  11  12
ENDBRANCH   1  11
TORSDOF 5
ENDMDL
