MODEL 1
REMARK VINA RESULT:      -8.3      0.000      0.000
REMARK  Name = 
REMARK  5 active torsions:
REMARK  status: ('A' for Active; 'I' for Inactive)
REMARK    1  A    between atoms: C_2  and  O_3
REMARK    2  A    between atoms: C_2  and  C_4
REMARK    3  A    between atoms: C_6  and  C_7
REMARK    4  A    between atoms: C_10  and  C_11
REMARK    5  A    between atoms: C_21  and  C_22
REMARK                            x       y       z     vdW  Elec       q    Type
REMARK                         _______ _______ _______ _____ _____    ______ ____
ROOT
ATOM      1  C   UNL     1       0.404   9.534  21.464  0.00  0.00    +0.000 A 
ATOM      2  C   UNL     1       1.268   8.598  20.878  0.00  0.00    +0.000 A 
ATOM      3  C   UNL     1       1.613   8.624  19.509  0.00  0.00    +0.000 A 
ATOM      4  N   UNL     1       1.202   9.573  18.621  0.00  0.00    +0.000 NA
ATOM      5  C   UNL     1       0.421  10.536  19.168  0.00  0.00    +0.000 A 
ATOM      6  N   UNL     1      -0.096  11.575  18.519  0.00  0.00    +0.000 NA
ATOM      7  N   UNL     1      -0.734  12.266  19.473  0.00  0.00    +0.000 N 
ATOM      8  C   UNL     1      -0.656  11.725  20.743  0.00  0.00    +0.000 A 
ATOM      9  C   UNL     1       0.040  10.537  20.554  0.00  0.00    +0.000 A 
ATOM     10  H   UNL     1      -1.183  13.131  19.198  0.00  0.00    +0.000 HD
ENDROOT
BRANCH   3  11
ATOM     11  C   UNL     1       2.443   7.540  18.933  0.00  0.00    +0.000 A 
ATOM     12  C   UNL     1       2.429   6.244  19.480  0.00  0.00    +0.000 A 
ATOM     13  C   UNL     1       3.198   5.211  18.939  0.00  0.00    +0.000 A 
ATOM     14  C   UNL     1       3.998   5.439  17.816  0.00  0.00    +0.000 A 
ATOM     15  C   UNL     1       4.031   6.726  17.262  0.00  0.00    +0.000 A 
ATOM     16  C   UNL     1       3.263   7.760  17.814  0.00  0.00    +0.000 A 
BRANCH  14  17
ATOM     17  C   UNL     1       4.790   4.316  17.194  0.00  0.00    +0.000 C 
ATOM     18  F   UNL     1       4.838   4.376  15.833  0.00  0.00    +0.000 F 
ATOM     19  F   UNL     1       6.087   4.303  17.611  0.00  0.00    +0.000 F 
ATOM     20  F   UNL     1       4.286   3.090  17.496  0.00  0.00    +0.000 F 
ENDBRANCH  14  17
ENDBRANCH   3  11
BRANCH   8  21
ATOM     21  C   UNL     1      -1.193  12.437  21.912  0.00  0.00    +0.000 A 
ATOM     22  C   UNL     1      -0.565  13.581  22.428  0.00  0.00    +0.000 A 
ATOM     23  C   UNL     1      -1.142  14.287  23.491  0.00  0.00    +0.000 A 
ATOM     24  C   UNL     1      -2.369  13.893  24.014  0.00  0.00    +0.000 A 
ATOM     25  C   UNL     1      -2.997  12.761  23.519  0.00  0.00    +0.000 A 
ATOM     26  C   UNL     1      -2.374  12.005  22.526  0.00  0.00    +0.000 A 
ENDBRANCH   8  21
BRANCH   1  28
ATOM     27  O   UNL     1       0.714   9.687  23.784  0.00  0.00    +0.000 OA
ATOM     28  C   UNL     1       0.020   9.304  22.855  0.00  0.00    +0.000 C 
BRANCH  28  29
ATOM     29  O   UNL     1      -1.069   8.537  23.024  0.00  0.00    +0.000 OA
ATOM     30  H   UNL     1      -1.812   8.715  22.415  0.00  0.00    +0.000 HD
ENDBRANCH  28  29
ENDBRANCH   1  28
TORSDOF 5
ENDMDL
MODEL 2
REMARK VINA RESULT:      -8.2      0.319      1.186
REMARK  Name = 
REMARK  5 active torsions:
REMARK  status: ('A' for Active; 'I' for Inactive)
REMARK    1  A    between atoms: C_2  and  O_3
REMARK    2  A    between atoms: C_2  and  C_4
REMARK    3  A    between atoms: C_6  and  C_7
REMARK    4  A    between atoms: C_10  and  C_11
REMARK    5  A    between atoms: C_21  and  C_22
REMARK                            x       y       z     vdW  Elec       q    Type
REMARK                         _______ _______ _______ _____ _____    ______ ____
ROOT
ATOM      1  C   UNL     1       0.221   9.634  21.325  0.00  0.00    +0.000 A 
ATOM      2  C   UNL     1       1.131   8.715  20.784  0.00  0.00    +0.000 A 
ATOM      3  C   UNL     1       1.470   8.686  19.413  0.00  0.00    +0.000 A 
ATOM      4  N   UNL     1       1.007   9.564  18.480  0.00  0.00    +0.000 NA
ATOM      5  C   UNL     1       0.178  10.512  18.980  0.00  0.00    +0.000 A 
ATOM      6  N   UNL     1      -0.395  11.487  18.280  0.00  0.00    +0.000 NA
ATOM      7  N   UNL     1      -1.065  12.193  19.200  0.00  0.00    +0.000 N 
ATOM      8  C   UNL     1      -0.955  11.725  20.495  0.00  0.00    +0.000 A 
ATOM      9  C   UNL     1      -0.198  10.567  20.365  0.00  0.00    +0.000 A 
ATOM     10  H   UNL     1      -1.561  13.018  18.882  0.00  0.00    +0.000 HD
ENDROOT
BRANCH   3  11
ATOM     11  C   UNL     1       2.355   7.619  18.891  0.00  0.00    +0.000 A 
ATOM     12  C   UNL     1       2.378   6.341  19.478  0.00  0.00    +0.000 A 
ATOM     13  C   UNL     1       3.199   5.323  18.988  0.00  0.00    +0.000 A 
ATOM     14  C   UNL     1       4.015   5.547  17.876  0.00  0.00    +0.000 A 
ATOM     15  C   UNL     1       4.010   6.816  17.280  0.00  0.00    +0.000 A 
ATOM     16  C   UNL     1       3.191   7.836  17.783  0.00  0.00    +0.000 A 
BRANCH  14  17
ATOM     17  C   UNL     1       4.864   4.438  17.307  0.00  0.00    +0.000 C 
ATOM     18  F   UNL     1       4.458   3.194  17.689  0.00  0.00    +0.000 F 
ATOM     19  F   UNL     1       4.861   4.427  15.946  0.00  0.00    +0.000 F 
ATOM     20  F   UNL     1       6.169   4.534  17.679  0.00  0.00    +0.000 F 
ENDBRANCH  14  17
ENDBRANCH   3  11
BRANCH   8  21
ATOM     21  C   UNL     1      -1.525  12.469  21.629  0.00  0.00    +0.000 A 
ATOM     22  C   UNL     1      -2.868  12.315  22.009  0.00  0.00    +0.000 A 
ATOM     23  C   UNL     1      -3.363  12.972  23.142  0.00  0.00    +0.000 A 
ATOM     24  C   UNL     1      -2.520  13.745  23.932  0.00  0.00    +0.000 A 
ATOM     25  C   UNL     1      -1.194  13.913  23.565  0.00  0.00    +0.000 A 
ATOM     26  C   UNL     1      -0.726  13.335  22.385  0.00  0.00    +0.000 A 
ENDBRANCH   8  21
BRANCH   1  28
ATOM     27  O   UNL     1       0.451  10.033  23.625  0.00  0.00    +0.000 OA
ATOM     28  C   UNL     1      -0.147   9.458  22.729  0.00  0.00    +0.000 C 
BRANCH  28  29
ATOM     29  O   UNL     1      -1.089   8.529  22.956  0.00  0.00    +0.000 OA
ATOM     30  H   UNL     1      -1.940   8.864  23.299  0.00  0.00    +0.000 HD
ENDBRANCH  28  29
ENDBRANCH   1  28
TORSDOF 5
ENDMDL
MODEL 3
REMARK VINA RESULT:      -8.0      1.302      1.787
REMARK  Name = 
REMARK  5 active torsions:
REMARK  status: ('A' for Active; 'I' for Inactive)
REMARK    1  A    between atoms: C_2  and  O_3
REMARK    2  A    between atoms: C_2  and  C_4
REMARK    3  A    between atoms: C_6  and  C_7
REMARK    4  A    between atoms: C_10  and  C_11
REMARK    5  A    between atoms: C_21  and  C_22
REMARK                            x       y       z     vdW  Elec       q    Type
REMARK                         _______ _______ _______ _____ _____    ______ ____
ROOT
ATOM      1  C   UNL     1       0.691   9.280  21.684  0.00  0.00    +0.000 A 
ATOM      2  C   UNL     1       1.286   8.056  21.350  0.00  0.00    +0.000 A 
ATOM      3  C   UNL     1       1.727   7.746  20.044  0.00  0.00    +0.000 A 
ATOM      4  N   UNL     1       1.678   8.602  18.985  0.00  0.00    +0.000 NA
ATOM      5  C   UNL     1       1.171   9.822  19.286  0.00  0.00    +0.000 A 
ATOM      6  N   UNL     1       1.030  10.833  18.434  0.00  0.00    +0.000 NA
ATOM      7  N   UNL     1       0.550  11.828  19.192  0.00  0.00    +0.000 N 
ATOM      8  C   UNL     1       0.371  11.517  20.526  0.00  0.00    +0.000 A 
ATOM      9  C   UNL     1       0.704  10.170  20.599  0.00  0.00    +0.000 A 
ATOM     10  H   UNL     1       0.394  12.722  18.740  0.00  0.00    +0.000 HD
ENDROOT
BRANCH   3  11
ATOM     11  C   UNL     1       2.247   6.393  19.738  0.00  0.00    +0.000 A 
ATOM     12  C   UNL     1       1.964   5.298  20.576  0.00  0.00    +0.000 A 
ATOM     13  C   UNL     1       2.439   4.016  20.292  0.00  0.00    +0.000 A 
ATOM     14  C   UNL     1       3.203   3.783  19.145  0.00  0.00    +0.000 A 
ATOM     15  C   UNL     1       3.500   4.862  18.302  0.00  0.00    +0.000 A 
ATOM     16  C   UNL     1       3.028   6.148  18.597  0.00  0.00    +0.000 A 
BRANCH  14  17
ATOM     17  C   UNL     1       3.674   2.391  18.804  0.00  0.00    +0.000 C 
ATOM     18  F   UNL     1       2.701   1.444  18.924  0.00  0.00    +0.000 F 
ATOM     19  F   UNL     1       4.128   2.297  17.524  0.00  0.00    +0.000 F 
ATOM     20  F   UNL     1       4.698   1.976  19.597  0.00  0.00    +0.000 F 
ENDBRANCH  14  17
ENDBRANCH   3  11
BRANCH   8  21
ATOM     21  C   UNL     1      -0.022  12.542  21.505  0.00  0.00    +0.000 A 
ATOM     22  C   UNL     1       0.641  13.776  21.584  0.00  0.00    +0.000 A 
ATOM     23  C   UNL     1       0.194  14.765  22.469  0.00  0.00    +0.000 A 
ATOM     24  C   UNL     1      -0.943  14.556  23.242  0.00  0.00    +0.000 A 
ATOM     25  C   UNL     1      -1.604  13.340  23.179  0.00  0.00    +0.000 A 
ATOM     26  C   UNL     1      -1.101  12.322  22.369  0.00  0.00    +0.000 A 
ENDBRANCH   8  21
BRANCH   1  28
ATOM     27  O   UNL     1       0.864   9.701  23.984  0.00  0.00    +0.000 OA
ATOM     28  C   UNL     1       0.151   9.411  23.036  0.00  0.00    +0.000 C 
BRANCH  28  29
ATOM     29  O   UNL     1      -1.139   9.064  23.168  0.00  0.00    +0.000 OA
ATOM     30  H   UNL     1      -1.513   9.158  24.066  0.00  0.00    +0.000 HD
ENDBRANCH  28  29
ENDBRANCH   1  28
TORSDOF 5
ENDMDL
MODEL 4
REMARK VINA RESULT:      -7.9      0.695      1.587
REMARK  Name = 
REMARK  5 active torsions:
REMARK  status: ('A' for Active; 'I' for Inactive)
REMARK    1  A    between atoms: C_2  and  O_3
REMARK    2  A    between atoms: C_2  and  C_4
REMARK    3  A    between atoms: C_6  and  C_7
REMARK    4  A    between atoms: C_10  and  C_11
REMARK    5  A    between atoms: C_21  and  C_22
REMARK                            x       y       z     vdW  Elec       q    Type
REMARK                         _______ _______ _______ _____ _____    ______ ____
ROOT
ATOM      1  C   UNL     1       0.130   9.939  21.461  0.00  0.00    +0.000 A 
ATOM      2  C   UNL     1       1.046   9.027  20.917  0.00  0.00    +0.000 A 
ATOM      3  C   UNL     1       1.299   8.927  19.531  0.00  0.00    +0.000 A 
ATOM      4  N   UNL     1       0.737   9.724  18.579  0.00  0.00    +0.000 NA
ATOM      5  C   UNL     1      -0.103  10.665  19.075  0.00  0.00    +0.000 A 
ATOM      6  N   UNL     1      -0.764  11.568  18.357  0.00  0.00    +0.000 NA
ATOM      7  N   UNL     1      -1.407  12.301  19.275  0.00  0.00    +0.000 N 
ATOM      8  C   UNL     1      -1.193  11.921  20.586  0.00  0.00    +0.000 A 
ATOM      9  C   UNL     1      -0.392  10.791  20.477  0.00  0.00    +0.000 A 
ATOM     10  H   UNL     1      -1.960  13.082  18.942  0.00  0.00    +0.000 HD
ENDROOT
BRANCH   3  11
ATOM     11  C   UNL     1       2.198   7.868  19.017  0.00  0.00    +0.000 A 
ATOM     12  C   UNL     1       2.912   8.039  17.816  0.00  0.00    +0.000 A 
ATOM     13  C   UNL     1       3.771   7.053  17.327  0.00  0.00    +0.000 A 
ATOM     14  C   UNL     1       3.958   5.863  18.036  0.00  0.00    +0.000 A 
ATOM     15  C   UNL     1       3.251   5.672  19.230  0.00  0.00    +0.000 A 
ATOM     16  C   UNL     1       2.383   6.662  19.712  0.00  0.00    +0.000 A 
BRANCH  14  17
ATOM     17  C   UNL     1       4.925   4.816  17.541  0.00  0.00    +0.000 C 
ATOM     18  F   UNL     1       6.178   5.301  17.310  0.00  0.00    +0.000 F 
ATOM     19  F   UNL     1       5.080   3.794  18.427  0.00  0.00    +0.000 F 
ATOM     20  F   UNL     1       4.525   4.244  16.374  0.00  0.00    +0.000 F 
ENDBRANCH  14  17
ENDBRANCH   3  11
BRANCH   8  21
ATOM     21  C   UNL     1      -1.725  12.710  21.708  0.00  0.00    +0.000 A 
ATOM     22  C   UNL     1      -3.090  12.695  22.035  0.00  0.00    +0.000 A 
ATOM     23  C   UNL     1      -3.556  13.390  23.158  0.00  0.00    +0.000 A 
ATOM     24  C   UNL     1      -2.667  14.061  23.991  0.00  0.00    +0.000 A 
ATOM     25  C   UNL     1      -1.318  14.089  23.676  0.00  0.00    +0.000 A 
ATOM     26  C   UNL     1      -0.869  13.477  22.506  0.00  0.00    +0.000 A 
ENDBRANCH   8  21
BRANCH   1  28
ATOM     27  O   UNL     1      -1.257  10.025  23.350  0.00  0.00    +0.000 OA
ATOM     28  C   UNL     1      -0.139   9.836  22.894  0.00  0.00    +0.000 C 
BRANCH  28  29
ATOM     29  O   UNL     1       0.945   9.650  23.664  0.00  0.00    +0.000 OA
ATOM     30  H   UNL     1       1.762  10.089  23.359  0.00  0.00    +0.000 HD
ENDBRANCH  28  29
ENDBRANCH   1  28
TORSDOF 5
ENDMDL
MODEL 5
REMARK VINA RESULT:      -7.9      0.383      1.005
REMARK  Name = 
REMARK  5 active torsions:
REMARK  status: ('A' for Active; 'I' for Inactive)
REMARK    1  A    between atoms: C_2  and  O_3
REMARK    2  A    between atoms: C_2  and  C_4
REMARK    3  A    between atoms: C_6  and  C_7
REMARK    4  A    between atoms: C_10  and  C_11
REMARK    5  A    between atoms: C_21  and  C_22
REMARK                            x       y       z     vdW  Elec       q    Type
REMARK                         _______ _______ _______ _____ _____    ______ ____
ROOT
ATOM      1  C   UNL     1       0.529   9.413  21.152  0.00  0.00    +0.000 A 
ATOM      2  C   UNL     1       1.367   8.459  20.556  0.00  0.00    +0.000 A 
ATOM      3  C   UNL     1       1.767   8.526  19.203  0.00  0.00    +0.000 A 
ATOM      4  N   UNL     1       1.439   9.532  18.345  0.00  0.00    +0.000 NA
ATOM      5  C   UNL     1       0.686  10.510  18.905  0.00  0.00    +0.000 A 
ATOM      6  N   UNL     1       0.248  11.601  18.285  0.00  0.00    +0.000 NA
ATOM      7  N   UNL     1      -0.392  12.282  19.244  0.00  0.00    +0.000 N 
ATOM      8  C   UNL     1      -0.391  11.684  20.490  0.00  0.00    +0.000 A 
ATOM      9  C   UNL     1       0.251  10.471  20.274  0.00  0.00    +0.000 A 
ATOM     10  H   UNL     1      -0.786  13.180  18.991  0.00  0.00    +0.000 HD
ENDROOT
BRANCH   3  11
ATOM     11  C   UNL     1       2.564   7.426  18.611  0.00  0.00    +0.000 A 
ATOM     12  C   UNL     1       2.366   6.090  19.005  0.00  0.00    +0.000 A 
ATOM     13  C   UNL     1       3.103   5.044  18.446  0.00  0.00    +0.000 A 
ATOM     14  C   UNL     1       4.055   5.300  17.456  0.00  0.00    +0.000 A 
ATOM     15  C   UNL     1       4.271   6.626  17.055  0.00  0.00    +0.000 A 
ATOM     16  C   UNL     1       3.534   7.673  17.626  0.00  0.00    +0.000 A 
BRANCH  14  17
ATOM     17  C   UNL     1       4.817   4.171  16.809  0.00  0.00    +0.000 C 
ATOM     18  F   UNL     1       6.131   4.125  17.172  0.00  0.00    +0.000 F 
ATOM     19  F   UNL     1       4.303   2.950  17.124  0.00  0.00    +0.000 F 
ATOM     20  F   UNL     1       4.809   4.244  15.451  0.00  0.00    +0.000 F 
ENDBRANCH  14  17
ENDBRANCH   3  11
BRANCH   8  21
ATOM     21  C   UNL     1      -0.938  12.372  21.670  0.00  0.00    +0.000 A 
ATOM     22  C   UNL     1      -0.331  13.523  22.196  0.00  0.00    +0.000 A 
ATOM     23  C   UNL     1      -0.919  14.205  23.269  0.00  0.00    +0.000 A 
ATOM     24  C   UNL     1      -2.135  13.781  23.792  0.00  0.00    +0.000 A 
ATOM     25  C   UNL     1      -2.741  12.641  23.287  0.00  0.00    +0.000 A 
ATOM     26  C   UNL     1      -2.108  11.909  22.283  0.00  0.00    +0.000 A 
ENDBRANCH   8  21
BRANCH   1  28
ATOM     27  O   UNL     1      -0.934   8.495  22.739  0.00  0.00    +0.000 OA
ATOM     28  C   UNL     1       0.078   9.143  22.515  0.00  0.00    +0.000 C 
BRANCH  28  29
ATOM     29  O   UNL     1       0.779   9.763  23.478  0.00  0.00    +0.000 OA
ATOM     30  H   UNL     1       1.450   9.218  23.932  0.00  0.00    +0.000 HD
ENDBRANCH  28  29
ENDBRANCH   1  28
TORSDOF 5
ENDMDL
MODEL 6
REMARK VINA RESULT:      -7.9      1.259      1.848
REMARK  Name = 
REMARK  5 active torsions:
REMARK  status: ('A' for Active; 'I' for Inactive)
REMARK    1  A    between atoms: C_2  and  O_3
REMARK    2  A    between atoms: C_2  and  C_4
REMARK    3  A    between atoms: C_6  and  C_7
REMARK    4  A    between atoms: C_10  and  C_11
REMARK    5  A    between atoms: C_21  and  C_22
REMARK                            x       y       z     vdW  Elec       q    Type
REMARK                         _______ _______ _______ _____ _____    ______ ____
ROOT
ATOM      1  C   UNL     1       0.689   9.326  21.645  0.00  0.00    +0.000 A 
ATOM      2  C   UNL     1       1.268   8.099  21.292  0.00  0.00    +0.000 A 
ATOM      3  C   UNL     1       1.686   7.798  19.977  0.00  0.00    +0.000 A 
ATOM      4  N   UNL     1       1.629   8.663  18.926  0.00  0.00    +0.000 NA
ATOM      5  C   UNL     1       1.138   9.885  19.246  0.00  0.00    +0.000 A 
ATOM      6  N   UNL     1       0.994  10.905  18.405  0.00  0.00    +0.000 NA
ATOM      7  N   UNL     1       0.535  11.898  19.179  0.00  0.00    +0.000 N 
ATOM      8  C   UNL     1       0.373  11.576  20.513  0.00  0.00    +0.000 A 
ATOM      9  C   UNL     1       0.694  10.225  20.569  0.00  0.00    +0.000 A 
ATOM     10  H   UNL     1       0.380  12.797  18.738  0.00  0.00    +0.000 HD
ENDROOT
BRANCH   3  11
ATOM     11  C   UNL     1       2.189   6.443  19.651  0.00  0.00    +0.000 A 
ATOM     12  C   UNL     1       2.983   6.216  18.512  0.00  0.00    +0.000 A 
ATOM     13  C   UNL     1       3.473   4.945  18.201  0.00  0.00    +0.000 A 
ATOM     14  C   UNL     1       3.196   3.858  19.034  0.00  0.00    +0.000 A 
ATOM     15  C   UNL     1       2.401   4.063  20.169  0.00  0.00    +0.000 A 
ATOM     16  C   UNL     1       1.905   5.339  20.472  0.00  0.00    +0.000 A 
BRANCH  14  17
ATOM     17  C   UNL     1       3.765   2.493  18.733  0.00  0.00    +0.000 C 
ATOM     18  F   UNL     1       4.248   2.375  17.464  0.00  0.00    +0.000 F 
ATOM     19  F   UNL     1       4.802   2.171  19.555  0.00  0.00    +0.000 F 
ATOM     20  F   UNL     1       2.848   1.500  18.877  0.00  0.00    +0.000 F 
ENDBRANCH  14  17
ENDBRANCH   3  11
BRANCH   8  21
ATOM     21  C   UNL     1       0.004  12.596  21.507  0.00  0.00    +0.000 A 
ATOM     22  C   UNL     1       0.672  13.827  21.580  0.00  0.00    +0.000 A 
ATOM     23  C   UNL     1       0.247  14.812  22.481  0.00  0.00    +0.000 A 
ATOM     24  C   UNL     1      -0.874  14.601  23.277  0.00  0.00    +0.000 A 
ATOM     25  C   UNL     1      -1.539  13.387  23.221  0.00  0.00    +0.000 A 
ATOM     26  C   UNL     1      -1.057  12.373  22.393  0.00  0.00    +0.000 A 
ENDBRANCH   8  21
BRANCH   1  28
ATOM     27  O   UNL     1       0.899   9.735  23.945  0.00  0.00    +0.000 OA
ATOM     28  C   UNL     1       0.171   9.449  23.007  0.00  0.00    +0.000 C 
BRANCH  28  29
ATOM     29  O   UNL     1      -1.117   9.100  23.158  0.00  0.00    +0.000 OA
ATOM     30  H   UNL     1      -1.616   8.952  22.332  0.00  0.00    +0.000 HD
ENDBRANCH  28  29
ENDBRANCH   1  28
TORSDOF 5
ENDMDL
MODEL 7
REMARK VINA RESULT:      -7.8      1.249      1.838
REMARK  Name = 
REMARK  5 active torsions:
REMARK  status: ('A' for Active; 'I' for Inactive)
REMARK    1  A    between atoms: C_2  and  O_3
REMARK    2  A    between atoms: C_2  and  C_4
REMARK    3  A    between atoms: C_6  and  C_7
REMARK    4  A    between atoms: C_10  and  C_11
REMARK    5  A    between atoms: C_21  and  C_22
REMARK                            x       y       z     vdW  Elec       q    Type
REMARK                         _______ _______ _______ _____ _____    ______ ____
ROOT
ATOM      1  C   UNL     1       0.590   9.335  21.658  0.00  0.00    +0.000 A 
ATOM      2  C   UNL     1       1.226   8.126  21.344  0.00  0.00    +0.000 A 
ATOM      3  C   UNL     1       1.676   7.810  20.043  0.00  0.00    +0.000 A 
ATOM      4  N   UNL     1       1.597   8.645  18.969  0.00  0.00    +0.000 NA
ATOM      5  C   UNL     1       1.050   9.853  19.251  0.00  0.00    +0.000 A 
ATOM      6  N   UNL     1       0.874  10.844  18.382  0.00  0.00    +0.000 NA
ATOM      7  N   UNL     1       0.362  11.835  19.124  0.00  0.00    +0.000 N 
ATOM      8  C   UNL     1       0.194  11.540  20.464  0.00  0.00    +0.000 A 
ATOM      9  C   UNL     1       0.572  10.206  20.559  0.00  0.00    +0.000 A 
ATOM     10  H   UNL     1       0.175  12.715  18.658  0.00  0.00    +0.000 HD
ENDROOT
BRANCH   3  11
ATOM     11  C   UNL     1       2.241   6.470  19.759  0.00  0.00    +0.000 A 
ATOM     12  C   UNL     1       1.905   5.356  20.550  0.00  0.00    +0.000 A 
ATOM     13  C   UNL     1       2.422   4.086  20.285  0.00  0.00    +0.000 A 
ATOM     14  C   UNL     1       3.284   3.885  19.204  0.00  0.00    +0.000 A 
ATOM     15  C   UNL     1       3.636   4.984  18.408  0.00  0.00    +0.000 A 
ATOM     16  C   UNL     1       3.120   6.258  18.684  0.00  0.00    +0.000 A 
BRANCH  14  17
ATOM     17  C   UNL     1       3.805   2.507  18.879  0.00  0.00    +0.000 C 
ATOM     18  F   UNL     1       4.270   2.389  17.603  0.00  0.00    +0.000 F 
ATOM     19  F   UNL     1       4.839   2.140  19.686  0.00  0.00    +0.000 F 
ATOM     20  F   UNL     1       2.857   1.542  19.021  0.00  0.00    +0.000 F 
ENDBRANCH  14  17
ENDBRANCH   3  11
BRANCH   8  21
ATOM     21  C   UNL     1      -0.233  12.567  21.426  0.00  0.00    +0.000 A 
ATOM     22  C   UNL     1      -1.324  12.362  22.284  0.00  0.00    +0.000 A 
ATOM     23  C   UNL     1      -1.659  13.323  23.247  0.00  0.00    +0.000 A 
ATOM     24  C   UNL     1      -0.884  14.468  23.397  0.00  0.00    +0.000 A 
ATOM     25  C   UNL     1       0.192  14.687  22.552  0.00  0.00    +0.000 A 
ATOM     26  C   UNL     1       0.465  13.776  21.532  0.00  0.00    +0.000 A 
ENDBRANCH   8  21
BRANCH   1  28
ATOM     27  O   UNL     1       0.764   9.726  23.964  0.00  0.00    +0.000 OA
ATOM     28  C   UNL     1       0.047   9.469  23.008  0.00  0.00    +0.000 C 
BRANCH  28  29
ATOM     29  O   UNL     1      -1.255   9.164  23.130  0.00  0.00    +0.000 OA
ATOM     30  H   UNL     1      -1.637   8.638  22.402  0.00  0.00    +0.000 HD
ENDBRANCH  28  29
ENDBRANCH   1  28
TORSDOF 5
ENDMDL
MODEL 8
REMARK VINA RESULT:      -7.8      2.651      3.268
REMARK  Name = 
REMARK  5 active torsions:
REMARK  status: ('A' for Active; 'I' for Inactive)
REMARK    1  A    between atoms: C_2  and  O_3
REMARK    2  A    between atoms: C_2  and  C_4
REMARK    3  A    between atoms: C_6  and  C_7
REMARK    4  A    between atoms: C_10  and  C_11
REMARK    5  A    between atoms: C_21  and  C_22
REMARK                            x       y       z     vdW  Elec       q    Type
REMARK                         _______ _______ _______ _____ _____    ______ ____
ROOT
ATOM      1  C   UNL     1      -1.079  11.260  19.269  0.00  0.00    +0.000 A 
ATOM      2  C   UNL     1      -0.228  10.226  18.854  0.00  0.00    +0.000 A 
ATOM      3  C   UNL     1       0.679   9.582  19.725  0.00  0.00    +0.000 A 
ATOM      4  N   UNL     1       0.795   9.843  21.057  0.00  0.00    +0.000 NA
ATOM      5  C   UNL     1      -0.063  10.789  21.509  0.00  0.00    +0.000 A 
ATOM      6  N   UNL     1      -0.156  11.212  22.766  0.00  0.00    +0.000 NA
ATOM      7  N   UNL     1      -1.164  12.093  22.736  0.00  0.00    +0.000 N 
ATOM      8  C   UNL     1      -1.753  12.270  21.498  0.00  0.00    +0.000 A 
ATOM      9  C   UNL     1      -0.991  11.473  20.652  0.00  0.00    +0.000 A 
ATOM     10  H   UNL     1      -1.431  12.525  23.613  0.00  0.00    +0.000 HD
ENDROOT
BRANCH   3  11
ATOM     11  C   UNL     1       1.626   8.574  19.194  0.00  0.00    +0.000 A 
ATOM     12  C   UNL     1       1.934   7.410  19.924  0.00  0.00    +0.000 A 
ATOM     13  C   UNL     1       2.816   6.447  19.430  0.00  0.00    +0.000 A 
ATOM     14  C   UNL     1       3.409   6.609  18.174  0.00  0.00    +0.000 A 
ATOM     15  C   UNL     1       3.119   7.764  17.436  0.00  0.00    +0.000 A 
ATOM     16  C   UNL     1       2.240   8.732  17.941  0.00  0.00    +0.000 A 
BRANCH  14  17
ATOM     17  C   UNL     1       4.321   5.548  17.611  0.00  0.00    +0.000 C 
ATOM     18  F   UNL     1       5.008   5.955  16.506  0.00  0.00    +0.000 F 
ATOM     19  F   UNL     1       5.264   5.145  18.506  0.00  0.00    +0.000 F 
ATOM     20  F   UNL     1       3.650   4.424  17.239  0.00  0.00    +0.000 F 
ENDBRANCH  14  17
ENDBRANCH   3  11
BRANCH   8  21
ATOM     21  C   UNL     1      -2.954  13.104  21.334  0.00  0.00    +0.000 A 
ATOM     22  C   UNL     1      -4.243  12.582  21.525  0.00  0.00    +0.000 A 
ATOM     23  C   UNL     1      -5.364  13.418  21.443  0.00  0.00    +0.000 A 
ATOM     24  C   UNL     1      -5.211  14.783  21.222  0.00  0.00    +0.000 A 
ATOM     25  C   UNL     1      -3.944  15.310  21.025  0.00  0.00    +0.000 A 
ATOM     26  C   UNL     1      -2.837  14.461  21.012  0.00  0.00    +0.000 A 
ENDBRANCH   8  21
BRANCH   1  28
ATOM     27  O   UNL     1      -3.030  11.651  18.028  0.00  0.00    +0.000 OA
ATOM     28  C   UNL     1      -1.860  11.934  18.234  0.00  0.00    +0.000 C 
BRANCH  28  29
ATOM     29  O   UNL     1      -1.163  12.778  17.456  0.00  0.00    +0.000 OA
ATOM     30  H   UNL     1      -1.640  13.581  17.169  0.00  0.00    +0.000 HD
ENDBRANCH  28  29
ENDBRANCH   1  28
TORSDOF 5
ENDMDL
MODEL 9
REMARK VINA RESULT:      -7.8      2.697      3.303
REMARK  Name = 
REMARK  5 active torsions:
REMARK  status: ('A' for Active; 'I' for Inactive)
REMARK    1  A    between atoms: C_2  and  O_3
REMARK    2  A    between atoms: C_2  and  C_4
REMARK    3  A    between atoms: C_6  and  C_7
REMARK    4  A    between atoms: C_10  and  C_11
REMARK    5  A    between atoms: C_21  and  C_22
REMARK                            x       y       z     vdW  Elec       q    Type
REMARK                         _______ _______ _______ _____ _____    ______ ____
ROOT
ATOM      1  C   UNL     1      -1.203  11.318  19.444  0.00  0.00    +0.000 A 
ATOM      2  C   UNL     1      -0.341  10.289  19.038  0.00  0.00    +0.000 A 
ATOM      3  C   UNL     1       0.560   9.650  19.918  0.00  0.00    +0.000 A 
ATOM      4  N   UNL     1       0.662   9.912  21.251  0.00  0.00    +0.000 NA
ATOM      5  C   UNL     1      -0.206  10.854  21.695  0.00  0.00    +0.000 A 
ATOM      6  N   UNL     1      -0.314  11.277  22.950  0.00  0.00    +0.000 NA
ATOM      7  N   UNL     1      -1.326  12.153  22.909  0.00  0.00    +0.000 N 
ATOM      8  C   UNL     1      -1.904  12.326  21.666  0.00  0.00    +0.000 A 
ATOM      9  C   UNL     1      -1.130  11.533  20.828  0.00  0.00    +0.000 A 
ATOM     10  H   UNL     1      -1.604  12.584  23.783  0.00  0.00    +0.000 HD
ENDROOT
BRANCH   3  11
ATOM     11  C   UNL     1       1.518   8.647  19.398  0.00  0.00    +0.000 A 
ATOM     12  C   UNL     1       1.845   7.499  20.143  0.00  0.00    +0.000 A 
ATOM     13  C   UNL     1       2.737   6.540  19.658  0.00  0.00    +0.000 A 
ATOM     14  C   UNL     1       3.321   6.691  18.398  0.00  0.00    +0.000 A 
ATOM     15  C   UNL     1       3.013   7.831  17.644  0.00  0.00    +0.000 A 
ATOM     16  C   UNL     1       2.123   8.794  18.139  0.00  0.00    +0.000 A 
BRANCH  14  17
ATOM     17  C   UNL     1       4.245   5.634  17.845  0.00  0.00    +0.000 C 
ATOM     18  F   UNL     1       3.851   4.362  18.140  0.00  0.00    +0.000 F 
ATOM     19  F   UNL     1       4.341   5.687  16.488  0.00  0.00    +0.000 F 
ATOM     20  F   UNL     1       5.515   5.749  18.317  0.00  0.00    +0.000 F 
ENDBRANCH  14  17
ENDBRANCH   3  11
BRANCH   8  21
ATOM     21  C   UNL     1      -3.107  13.154  21.489  0.00  0.00    +0.000 A 
ATOM     22  C   UNL     1      -3.023  14.504  21.117  0.00  0.00    +0.000 A 
ATOM     23  C   UNL     1      -4.186  15.246  20.876  0.00  0.00    +0.000 A 
ATOM     24  C   UNL     1      -5.436  14.642  20.953  0.00  0.00    +0.000 A 
ATOM     25  C   UNL     1      -5.535  13.311  21.327  0.00  0.00    +0.000 A 
ATOM     26  C   UNL     1      -4.382  12.600  21.659  0.00  0.00    +0.000 A 
ENDBRANCH   8  21
BRANCH   1  28
ATOM     27  O   UNL     1      -3.182  11.822  18.291  0.00  0.00    +0.000 OA
ATOM     28  C   UNL     1      -1.976  11.988  18.400  0.00  0.00    +0.000 C 
BRANCH  28  29
ATOM     29  O   UNL     1      -1.249  12.681  17.510  0.00  0.00    +0.000 OA
ATOM     30  H   UNL     1      -0.613  13.319  17.887  0.00  0.00    +0.000 HD
ENDBRANCH  28  29
ENDBRANCH   1  28
TORSDOF 5
ENDMDL
