MODEL 1
REMARK VINA RESULT:      -7.0      0.000      0.000
REMARK  Name = 
REMARK  3 active torsions:
REMARK  status: ('A' for Active; 'I' for Inactive)
REMARK    1  A    between atoms: C_2  and  C_3
REMARK    2  A    between atoms: C_3  and  N_4
REMARK    3  A    between atoms: C_5  and  C_7
REMARK                            x       y       z     vdW  Elec       q    Type
REMARK                         _______ _______ _______ _____ _____    ______ ____
ROOT
ATOM      1  C   UNL     1      -1.962  14.274  21.029  0.00  0.00    +0.000 C 
ATOM      2  C   UNL     1      -1.802  15.986  20.502  0.00  0.00    +0.000 C 
ATOM      3  C   UNL     1      -0.873  16.962  19.644  0.00  0.00    +0.000 A 
ATOM      4  C   UNL     1      -1.064  17.243  18.270  0.00  0.00    +0.000 A 
ATOM      5  C   UNL     1       0.023  17.743  17.480  0.00  0.00    +0.000 A 
ATOM      6  C   UNL     1       1.243  17.967  18.094  0.00  0.00    +0.000 A 
ATOM      7  C   UNL     1       1.171  18.345  19.443  0.00  0.00    +0.000 A 
ATOM      8  C   UNL     1       0.077  17.833  20.219  0.00  0.00    +0.000 A 
ATOM      9  O   UNL     1       2.244  16.981  17.804  0.00  0.00    +0.000 OA
ATOM     10  C   UNL     1       1.752  15.820  18.495  0.00  0.00    +0.000 C 
ATOM     11  C   UNL     1       2.401  14.493  18.372  0.00  0.00    +0.000 C 
ATOM     12  C   UNL     1       2.372  13.795  19.519  0.00  0.00    +0.000 C 
ATOM     13  C   UNL     1       1.973  12.356  19.583  0.00  0.00    +0.000 C 
ATOM     14  C   UNL     1       0.942  12.321  20.683  0.00  0.00    +0.000 C 
ATOM     15  C   UNL     1       0.406  11.003  21.111  0.00  0.00    +0.000 A 
ATOM     16  C   UNL     1       0.924   9.799  20.569  0.00  0.00    +0.000 A 
ATOM     17  C   UNL     1       0.700   8.576  21.186  0.00  0.00    +0.000 A 
ATOM     18  C   UNL     1      -0.028   8.567  22.366  0.00  0.00    +0.000 A 
ATOM     19  C   UNL     1      -0.604   9.764  22.860  0.00  0.00    +0.000 A 
ATOM     20  C   UNL     1      -0.462  11.011  22.202  0.00  0.00    +0.000 A 
ATOM     21  C   UNL     1      -1.075  12.300  22.764  0.00  0.00    +0.000 C 
ATOM     22  O   UNL     1      -1.657  12.207  23.878  0.00  0.00    +0.000 OA
ATOM     23  N   UNL     1      -1.080  13.641  22.209  0.00  0.00    +0.000 N 
ATOM     24  H   UNL     1      -1.309  14.212  23.022  0.00  0.00    +0.000 HD
ENDROOT
BRANCH   1  26
ATOM     25  N   UNL     1      -2.122  12.811  19.019  0.00  0.00    +0.000 N 
ATOM     26  C   UNL     1      -2.782  13.150  20.215  0.00  0.00    +0.000 C 
ATOM     27  O   UNL     1      -3.777  12.575  20.632  0.00  0.00    +0.000 OA
ATOM     28  H   UNL     1      -1.207  13.239  18.911  0.00  0.00    +0.000 HD
BRANCH  25  29
ATOM     29  C   UNL     1      -2.246  11.663  18.136  0.00  0.00    +0.000 C 
ATOM     30  C   UNL     1      -1.864  10.350  18.852  0.00  0.00    +0.000 C 
ATOM     31  C   UNL     1      -1.147  10.761  17.617  0.00  0.00    +0.000 C 
BRANCH  29  33
ATOM     32  N   UNL     1      -4.464  11.609  16.745  0.00  0.00    +0.000 NA
ATOM     33  C   UNL     1      -3.491  11.621  17.379  0.00  0.00    +0.000 C 
ENDBRANCH  29  33
ENDBRANCH  25  29
ENDBRANCH   1  26
TORSDOF 3
ENDMDL
MODEL 2
REMARK VINA RESULT:      -6.6      1.744      2.272
REMARK  Name = 
REMARK  3 active torsions:
REMARK  status: ('A' for Active; 'I' for Inactive)
REMARK    1  A    between atoms: C_2  and  C_3
REMARK    2  A    between atoms: C_3  and  N_4
REMARK    3  A    between atoms: C_5  and  C_7
REMARK                            x       y       z     vdW  Elec       q    Type
REMARK                         _______ _______ _______ _____ _____    ______ ____
ROOT
ATOM      1  C   UNL     1      -1.334  13.398  20.133  0.00  0.00    +0.000 C 
ATOM      2  C   UNL     1      -1.534  15.171  20.356  0.00  0.00    +0.000 C 
ATOM      3  C   UNL     1      -0.869  16.574  19.982  0.00  0.00    +0.000 A 
ATOM      4  C   UNL     1      -1.211  17.342  18.842  0.00  0.00    +0.000 A 
ATOM      5  C   UNL     1      -0.298  18.323  18.336  0.00  0.00    +0.000 A 
ATOM      6  C   UNL     1       0.902  18.520  18.998  0.00  0.00    +0.000 A 
ATOM      7  C   UNL     1       0.862  18.299  20.383  0.00  0.00    +0.000 A 
ATOM      8  C   UNL     1      -0.057  17.311  20.871  0.00  0.00    +0.000 A 
ATOM      9  O   UNL     1       2.044  17.956  18.338  0.00  0.00    +0.000 OA
ATOM     10  C   UNL     1       1.830  16.543  18.488  0.00  0.00    +0.000 C 
ATOM     11  C   UNL     1       2.703  15.538  17.837  0.00  0.00    +0.000 C 
ATOM     12  C   UNL     1       2.889  14.446  18.597  0.00  0.00    +0.000 C 
ATOM     13  C   UNL     1       2.771  13.055  18.061  0.00  0.00    +0.000 C 
ATOM     14  C   UNL     1       1.849  12.375  19.042  0.00  0.00    +0.000 C 
ATOM     15  C   UNL     1       1.601  10.918  18.887  0.00  0.00    +0.000 A 
ATOM     16  C   UNL     1       2.292  10.165  17.904  0.00  0.00    +0.000 A 
ATOM     17  C   UNL     1       2.346   8.779  17.963  0.00  0.00    +0.000 A 
ATOM     18  C   UNL     1       1.722   8.150  19.029  0.00  0.00    +0.000 A 
ATOM     19  C   UNL     1       0.972   8.903  19.965  0.00  0.00    +0.000 A 
ATOM     20  C   UNL     1       0.830  10.312  19.878  0.00  0.00    +0.000 A 
ATOM     21  C   UNL     1       0.032  11.113  20.914  0.00  0.00    +0.000 C 
ATOM     22  O   UNL     1      -0.438  10.464  21.886  0.00  0.00    +0.000 OA
ATOM     23  N   UNL     1      -0.263  12.533  20.957  0.00  0.00    +0.000 N 
ATOM     24  H   UNL     1      -0.533  12.669  21.931  0.00  0.00    +0.000 HD
ENDROOT
BRANCH   1  26
ATOM     25  N   UNL     1      -3.330  12.237  19.199  0.00  0.00    +0.000 N 
ATOM     26  C   UNL     1      -1.988  12.558  18.923  0.00  0.00    +0.000 C 
ATOM     27  O   UNL     1      -1.439  12.333  17.854  0.00  0.00    +0.000 OA
ATOM     28  H   UNL     1      -3.695  12.662  20.046  0.00  0.00    +0.000 HD
BRANCH  25  29
ATOM     29  C   UNL     1      -4.422  11.816  18.338  0.00  0.00    +0.000 C 
ATOM     30  C   UNL     1      -4.234  10.364  17.847  0.00  0.00    +0.000 C 
ATOM     31  C   UNL     1      -4.371  11.471  16.865  0.00  0.00    +0.000 C 
BRANCH  29  33
ATOM     32  N   UNL     1      -6.795  12.423  19.265  0.00  0.00    +0.000 NA
ATOM     33  C   UNL     1      -5.749  12.131  18.854  0.00  0.00    +0.000 C 
ENDBRANCH  29  33
ENDBRANCH  25  29
ENDBRANCH   1  26
TORSDOF 3
ENDMDL
MODEL 3
REMARK VINA RESULT:      -6.6      1.672      2.312
REMARK  Name = 
REMARK  3 active torsions:
REMARK  status: ('A' for Active; 'I' for Inactive)
REMARK    1  A    between atoms: C_2  and  C_3
REMARK    2  A    between atoms: C_3  and  N_4
REMARK    3  A    between atoms: C_5  and  C_7
REMARK                            x       y       z     vdW  Elec       q    Type
REMARK                         _______ _______ _______ _____ _____    ______ ____
ROOT
ATOM      1  C   UNL     1      -1.403  13.349  20.146  0.00  0.00    +0.000 C 
ATOM      2  C   UNL     1      -1.629  15.120  20.361  0.00  0.00    +0.000 C 
ATOM      3  C   UNL     1      -0.983  16.531  19.982  0.00  0.00    +0.000 A 
ATOM      4  C   UNL     1      -1.333  17.288  18.838  0.00  0.00    +0.000 A 
ATOM      5  C   UNL     1      -0.433  18.281  18.329  0.00  0.00    +0.000 A 
ATOM      6  C   UNL     1       0.762  18.497  18.993  0.00  0.00    +0.000 A 
ATOM      7  C   UNL     1       0.723  18.282  20.379  0.00  0.00    +0.000 A 
ATOM      8  C   UNL     1      -0.183  17.283  20.869  0.00  0.00    +0.000 A 
ATOM      9  O   UNL     1       1.914  17.947  18.338  0.00  0.00    +0.000 OA
ATOM     10  C   UNL     1       1.719  16.531  18.493  0.00  0.00    +0.000 C 
ATOM     11  C   UNL     1       2.607  15.536  17.848  0.00  0.00    +0.000 C 
ATOM     12  C   UNL     1       2.808  14.450  18.613  0.00  0.00    +0.000 C 
ATOM     13  C   UNL     1       2.710  13.055  18.083  0.00  0.00    +0.000 C 
ATOM     14  C   UNL     1       1.796  12.366  19.065  0.00  0.00    +0.000 C 
ATOM     15  C   UNL     1       1.568  10.905  18.916  0.00  0.00    +0.000 A 
ATOM     16  C   UNL     1       2.272  10.158  17.938  0.00  0.00    +0.000 A 
ATOM     17  C   UNL     1       2.345   8.773  18.003  0.00  0.00    +0.000 A 
ATOM     18  C   UNL     1       1.728   8.140  19.070  0.00  0.00    +0.000 A 
ATOM     19  C   UNL     1       0.966   8.887  20.002  0.00  0.00    +0.000 A 
ATOM     20  C   UNL     1       0.805  10.292  19.908  0.00  0.00    +0.000 A 
ATOM     21  C   UNL     1      -0.007  11.087  20.939  0.00  0.00    +0.000 C 
ATOM     22  O   UNL     1      -0.470  10.436  21.913  0.00  0.00    +0.000 OA
ATOM     23  N   UNL     1      -0.322  12.502  20.976  0.00  0.00    +0.000 N 
ATOM     24  H   UNL     1      -0.596  12.639  21.949  0.00  0.00    +0.000 HD
ENDROOT
BRANCH   1  26
ATOM     25  N   UNL     1      -3.379  12.153  19.215  0.00  0.00    +0.000 N 
ATOM     26  C   UNL     1      -2.043  12.495  18.938  0.00  0.00    +0.000 C 
ATOM     27  O   UNL     1      -1.490  12.276  17.870  0.00  0.00    +0.000 OA
ATOM     28  H   UNL     1      -3.752  12.574  20.060  0.00  0.00    +0.000 HD
BRANCH  25  29
ATOM     29  C   UNL     1      -4.465  11.711  18.354  0.00  0.00    +0.000 C 
ATOM     30  C   UNL     1      -5.697  12.633  18.473  0.00  0.00    +0.000 C 
ATOM     31  C   UNL     1      -5.823  11.180  18.760  0.00  0.00    +0.000 C 
BRANCH  29  33
ATOM     32  N   UNL     1      -3.771  11.123  15.899  0.00  0.00    +0.000 NA
ATOM     33  C   UNL     1      -4.056  11.390  16.992  0.00  0.00    +0.000 C 
ENDBRANCH  29  33
ENDBRANCH  25  29
ENDBRANCH   1  26
TORSDOF 3
ENDMDL
MODEL 4
REMARK VINA RESULT:      -6.6      7.720     10.996
REMARK  Name = 
REMARK  3 active torsions:
REMARK  status: ('A' for Active; 'I' for Inactive)
REMARK    1  A    between atoms: C_2  and  C_3
REMARK    2  A    between atoms: C_3  and  N_4
REMARK    3  A    between atoms: C_5  and  C_7
REMARK                            x       y       z     vdW  Elec       q    Type
REMARK                         _______ _______ _______ _____ _____    ______ ____
ROOT
ATOM      1  C   UNL     1       8.151  12.998  22.752  0.00  0.00    +0.000 C 
ATOM      2  C   UNL     1       9.094  11.761  21.851  0.00  0.00    +0.000 C 
ATOM      3  C   UNL     1       9.846  11.509  20.464  0.00  0.00    +0.000 A 
ATOM      4  C   UNL     1      11.220  11.770  20.240  0.00  0.00    +0.000 A 
ATOM      5  C   UNL     1      11.710  11.948  18.906  0.00  0.00    +0.000 A 
ATOM      6  C   UNL     1      10.822  11.833  17.850  0.00  0.00    +0.000 A 
ATOM      7  C   UNL     1       9.764  10.936  18.056  0.00  0.00    +0.000 A 
ATOM      8  C   UNL     1       9.285  10.772  19.399  0.00  0.00    +0.000 A 
ATOM      9  O   UNL     1      10.437  13.082  17.258  0.00  0.00    +0.000 OA
ATOM     10  C   UNL     1       9.630  13.682  18.285  0.00  0.00    +0.000 C 
ATOM     11  C   UNL     1       9.111  15.065  18.174  0.00  0.00    +0.000 C 
ATOM     12  C   UNL     1       7.884  15.201  18.706  0.00  0.00    +0.000 C 
ATOM     13  C   UNL     1       7.517  16.324  19.621  0.00  0.00    +0.000 C 
ATOM     14  C   UNL     1       6.875  15.629  20.796  0.00  0.00    +0.000 C 
ATOM     15  C   UNL     1       6.268  16.461  21.867  0.00  0.00    +0.000 A 
ATOM     16  C   UNL     1       6.202  17.872  21.740  0.00  0.00    +0.000 A 
ATOM     17  C   UNL     1       5.351  18.628  22.533  0.00  0.00    +0.000 A 
ATOM     18  C   UNL     1       4.545  17.960  23.441  0.00  0.00    +0.000 A 
ATOM     19  C   UNL     1       4.669  16.560  23.614  0.00  0.00    +0.000 A 
ATOM     20  C   UNL     1       5.593  15.776  22.876  0.00  0.00    +0.000 A 
ATOM     21  C   UNL     1       5.698  14.257  23.062  0.00  0.00    +0.000 C 
ATOM     22  O   UNL     1       4.875  13.729  23.856  0.00  0.00    +0.000 OA
ATOM     23  N   UNL     1       6.608  13.311  22.443  0.00  0.00    +0.000 N 
ATOM     24  H   UNL     1       6.138  12.420  22.606  0.00  0.00    +0.000 HD
ENDROOT
BRANCH   1  26
ATOM     25  N   UNL     1       9.424  15.123  23.018  0.00  0.00    +0.000 N 
ATOM     26  C   UNL     1       8.803  14.089  23.743  0.00  0.00    +0.000 C 
ATOM     27  O   UNL     1       8.673  14.091  24.959  0.00  0.00    +0.000 OA
ATOM     28  H   UNL     1       9.278  15.075  22.014  0.00  0.00    +0.000 HD
BRANCH  25  29
ATOM     29  C   UNL     1       9.837  16.463  23.402  0.00  0.00    +0.000 C 
ATOM     30  C   UNL     1      10.391  17.255  22.198  0.00  0.00    +0.000 C 
ATOM     31  C   UNL     1      11.234  17.046  23.404  0.00  0.00    +0.000 C 
BRANCH  29  33
ATOM     32  N   UNL     1       8.109  17.725  24.911  0.00  0.00    +0.000 NA
ATOM     33  C   UNL     1       8.867  17.177  24.223  0.00  0.00    +0.000 C 
ENDBRANCH  29  33
ENDBRANCH  25  29
ENDBRANCH   1  26
TORSDOF 3
ENDMDL
MODEL 5
REMARK VINA RESULT:      -6.5      3.624      7.138
REMARK  Name = 
REMARK  3 active torsions:
REMARK  status: ('A' for Active; 'I' for Inactive)
REMARK    1  A    between atoms: C_2  and  C_3
REMARK    2  A    between atoms: C_3  and  N_4
REMARK    3  A    between atoms: C_5  and  C_7
REMARK                            x       y       z     vdW  Elec       q    Type
REMARK                         _______ _______ _______ _____ _____    ______ ____
ROOT
ATOM      1  C   UNL     1      -2.033  12.717  23.243  0.00  0.00    +0.000 C 
ATOM      2  C   UNL     1      -0.615  11.860  22.546  0.00  0.00    +0.000 C 
ATOM      3  C   UNL     1      -0.046  11.265  21.177  0.00  0.00    +0.000 A 
ATOM      4  C   UNL     1       0.772  11.984  20.272  0.00  0.00    +0.000 A 
ATOM      5  C   UNL     1       0.868  11.569  18.904  0.00  0.00    +0.000 A 
ATOM      6  C   UNL     1       0.169  10.444  18.500  0.00  0.00    +0.000 A 
ATOM      7  C   UNL     1       0.005   9.458  19.485  0.00  0.00    +0.000 A 
ATOM      8  C   UNL     1      -0.091   9.893  20.849  0.00  0.00    +0.000 A 
ATOM      9  O   UNL     1      -1.010  10.721  17.732  0.00  0.00    +0.000 OA
ATOM     10  C   UNL     1      -1.891  11.305  18.705  0.00  0.00    +0.000 C 
ATOM     11  C   UNL     1      -3.205  11.882  18.337  0.00  0.00    +0.000 C 
ATOM     12  C   UNL     1      -4.143  11.671  19.275  0.00  0.00    +0.000 C 
ATOM     13  C   UNL     1      -5.058  12.748  19.764  0.00  0.00    +0.000 C 
ATOM     14  C   UNL     1      -4.940  12.660  21.265  0.00  0.00    +0.000 C 
ATOM     15  C   UNL     1      -5.822  13.520  22.097  0.00  0.00    +0.000 A 
ATOM     16  C   UNL     1      -6.821  14.329  21.497  0.00  0.00    +0.000 A 
ATOM     17  C   UNL     1      -7.864  14.858  22.244  0.00  0.00    +0.000 A 
ATOM     18  C   UNL     1      -7.916  14.552  23.595  0.00  0.00    +0.000 A 
ATOM     19  C   UNL     1      -6.875  13.806  24.201  0.00  0.00    +0.000 A 
ATOM     20  C   UNL     1      -5.754  13.327  23.476  0.00  0.00    +0.000 A 
ATOM     21  C   UNL     1      -4.648  12.501  24.144  0.00  0.00    +0.000 C 
ATOM     22  O   UNL     1      -4.817  12.212  25.358  0.00  0.00    +0.000 OA
ATOM     23  N   UNL     1      -3.416  11.979  23.582  0.00  0.00    +0.000 N 
ATOM     24  H   UNL     1      -3.154  11.264  24.260  0.00  0.00    +0.000 HD
ENDROOT
BRANCH   1  26
ATOM     25  N   UNL     1      -1.583  14.804  24.526  0.00  0.00    +0.000 N 
ATOM     26  C   UNL     1      -2.164  14.321  23.339  0.00  0.00    +0.000 C 
ATOM     27  O   UNL     1      -2.596  15.039  22.450  0.00  0.00    +0.000 OA
ATOM     28  H   UNL     1      -1.094  14.099  25.070  0.00  0.00    +0.000 HD
BRANCH  25  29
ATOM     29  C   UNL     1      -1.142  16.133  24.918  0.00  0.00    +0.000 C 
ATOM     30  C   UNL     1      -1.069  16.280  26.454  0.00  0.00    +0.000 C 
ATOM     31  C   UNL     1      -1.925  17.197  25.657  0.00  0.00    +0.000 C 
BRANCH  29  33
ATOM     32  N   UNL     1       0.939  16.983  23.576  0.00  0.00    +0.000 NA
ATOM     33  C   UNL     1       0.025  16.617  24.191  0.00  0.00    +0.000 C 
ENDBRANCH  29  33
ENDBRANCH  25  29
ENDBRANCH   1  26
TORSDOF 3
ENDMDL
MODEL 6
REMARK VINA RESULT:      -6.5      1.568      1.884
REMARK  Name = 
REMARK  3 active torsions:
REMARK  status: ('A' for Active; 'I' for Inactive)
REMARK    1  A    between atoms: C_2  and  C_3
REMARK    2  A    between atoms: C_3  and  N_4
REMARK    3  A    between atoms: C_5  and  C_7
REMARK                            x       y       z     vdW  Elec       q    Type
REMARK                         _______ _______ _______ _____ _____    ______ ____
ROOT
ATOM      1  C   UNL     1      -2.129  14.590  21.005  0.00  0.00    +0.000 C 
ATOM      2  C   UNL     1      -1.953  16.290  20.446  0.00  0.00    +0.000 C 
ATOM      3  C   UNL     1      -0.995  17.248  19.600  0.00  0.00    +0.000 A 
ATOM      4  C   UNL     1      -1.136  17.497  18.213  0.00  0.00    +0.000 A 
ATOM      5  C   UNL     1      -0.023  17.981  17.452  0.00  0.00    +0.000 A 
ATOM      6  C   UNL     1       1.174  18.222  18.104  0.00  0.00    +0.000 A 
ATOM      7  C   UNL     1       1.053  18.631  19.441  0.00  0.00    +0.000 A 
ATOM      8  C   UNL     1      -0.067  18.135  20.188  0.00  0.00    +0.000 A 
ATOM      9  O   UNL     1       2.186  17.232  17.873  0.00  0.00    +0.000 OA
ATOM     10  C   UNL     1       1.672  16.086  18.572  0.00  0.00    +0.000 C 
ATOM     11  C   UNL     1       2.326  14.759  18.502  0.00  0.00    +0.000 C 
ATOM     12  C   UNL     1       2.257  14.087  19.664  0.00  0.00    +0.000 C 
ATOM     13  C   UNL     1       1.858  12.648  19.746  0.00  0.00    +0.000 C 
ATOM     14  C   UNL     1       0.789  12.636  20.809  0.00  0.00    +0.000 C 
ATOM     15  C   UNL     1       0.239  11.327  21.247  0.00  0.00    +0.000 A 
ATOM     16  C   UNL     1       0.779  10.112  20.752  0.00  0.00    +0.000 A 
ATOM     17  C   UNL     1       0.534   8.903  21.388  0.00  0.00    +0.000 A 
ATOM     18  C   UNL     1      -0.236   8.920  22.541  0.00  0.00    +0.000 A 
ATOM     19  C   UNL     1      -0.831  10.125  22.987  0.00  0.00    +0.000 A 
ATOM     20  C   UNL     1      -0.667  11.358  22.306  0.00  0.00    +0.000 A 
ATOM     21  C   UNL     1      -1.302  12.658  22.816  0.00  0.00    +0.000 C 
ATOM     22  O   UNL     1      -1.923  12.589  23.910  0.00  0.00    +0.000 OA
ATOM     23  N   UNL     1      -1.289  13.985  22.230  0.00  0.00    +0.000 N 
ATOM     24  H   UNL     1      -1.548  14.574  23.022  0.00  0.00    +0.000 HD
ENDROOT
BRANCH   1  26
ATOM     25  N   UNL     1      -4.309  13.592  20.331  0.00  0.00    +0.000 N 
ATOM     26  C   UNL     1      -2.917  13.446  20.189  0.00  0.00    +0.000 C 
ATOM     27  O   UNL     1      -2.389  12.632  19.444  0.00  0.00    +0.000 OA
ATOM     28  H   UNL     1      -4.593  14.432  20.826  0.00  0.00    +0.000 HD
BRANCH  25  29
ATOM     29  C   UNL     1      -5.423  13.064  19.559  0.00  0.00    +0.000 C 
ATOM     30  C   UNL     1      -6.108  11.883  20.281  0.00  0.00    +0.000 C 
ATOM     31  C   UNL     1      -5.551  11.700  18.916  0.00  0.00    +0.000 C 
BRANCH  29  33
ATOM     32  N   UNL     1      -7.033  14.919  18.652  0.00  0.00    +0.000 NA
ATOM     33  C   UNL     1      -6.326  14.082  19.037  0.00  0.00    +0.000 C 
ENDBRANCH  29  33
ENDBRANCH  25  29
ENDBRANCH   1  26
TORSDOF 3
ENDMDL
MODEL 7
REMARK VINA RESULT:      -6.4      3.142      6.660
REMARK  Name = 
REMARK  3 active torsions:
REMARK  status: ('A' for Active; 'I' for Inactive)
REMARK    1  A    between atoms: C_2  and  C_3
REMARK    2  A    between atoms: C_3  and  N_4
REMARK    3  A    between atoms: C_5  and  C_7
REMARK                            x       y       z     vdW  Elec       q    Type
REMARK                         _______ _______ _______ _____ _____    ______ ____
ROOT
ATOM      1  C   UNL     1      -2.040  12.625  23.295  0.00  0.00    +0.000 C 
ATOM      2  C   UNL     1      -0.612  11.771  22.614  0.00  0.00    +0.000 C 
ATOM      3  C   UNL     1      -0.016  11.200  21.247  0.00  0.00    +0.000 A 
ATOM      4  C   UNL     1       0.828  11.931  20.376  0.00  0.00    +0.000 A 
ATOM      5  C   UNL     1       0.953  11.543  19.002  0.00  0.00    +0.000 A 
ATOM      6  C   UNL     1       0.257  10.433  18.559  0.00  0.00    +0.000 A 
ATOM      7  C   UNL     1       0.062   9.428  19.519  0.00  0.00    +0.000 A 
ATOM      8  C   UNL     1      -0.063   9.835  20.889  0.00  0.00    +0.000 A 
ATOM      9  O   UNL     1      -0.903  10.735  17.769  0.00  0.00    +0.000 OA
ATOM     10  C   UNL     1      -1.802  11.305  18.734  0.00  0.00    +0.000 C 
ATOM     11  C   UNL     1      -3.103  11.900  18.347  0.00  0.00    +0.000 C 
ATOM     12  C   UNL     1      -4.064  11.677  19.259  0.00  0.00    +0.000 C 
ATOM     13  C   UNL     1      -4.982  12.751  19.748  0.00  0.00    +0.000 C 
ATOM     14  C   UNL     1      -4.901  12.631  21.249  0.00  0.00    +0.000 C 
ATOM     15  C   UNL     1      -5.795  13.480  22.078  0.00  0.00    +0.000 A 
ATOM     16  C   UNL     1      -6.774  14.308  21.472  0.00  0.00    +0.000 A 
ATOM     17  C   UNL     1      -7.831  14.830  22.205  0.00  0.00    +0.000 A 
ATOM     18  C   UNL     1      -7.917  14.497  23.548  0.00  0.00    +0.000 A 
ATOM     19  C   UNL     1      -6.896  13.730  24.162  0.00  0.00    +0.000 A 
ATOM     20  C   UNL     1      -5.762  13.258  23.453  0.00  0.00    +0.000 A 
ATOM     21  C   UNL     1      -4.677  12.410  24.130  0.00  0.00    +0.000 C 
ATOM     22  O   UNL     1      -4.877  12.097  25.334  0.00  0.00    +0.000 OA
ATOM     23  N   UNL     1      -3.436  11.891  23.587  0.00  0.00    +0.000 N 
ATOM     24  H   UNL     1      -3.195  11.159  24.255  0.00  0.00    +0.000 HD
ENDROOT
BRANCH   1  26
ATOM     25  N   UNL     1      -2.619  14.795  22.218  0.00  0.00    +0.000 N 
ATOM     26  C   UNL     1      -2.162  14.227  23.422  0.00  0.00    +0.000 C 
ATOM     27  O   UNL     1      -1.999  14.859  24.456  0.00  0.00    +0.000 OA
ATOM     28  H   UNL     1      -2.892  14.117  21.513  0.00  0.00    +0.000 HD
BRANCH  25  29
ATOM     29  C   UNL     1      -3.204  16.092  21.919  0.00  0.00    +0.000 C 
ATOM     30  C   UNL     1      -3.645  16.192  20.443  0.00  0.00    +0.000 C 
ATOM     31  C   UNL     1      -2.671  17.168  20.997  0.00  0.00    +0.000 C 
BRANCH  29  33
ATOM     32  N   UNL     1      -4.952  16.943  23.674  0.00  0.00    +0.000 NA
ATOM     33  C   UNL     1      -4.188  16.545  22.895  0.00  0.00    +0.000 C 
ENDBRANCH  29  33
ENDBRANCH  25  29
ENDBRANCH   1  26
TORSDOF 3
ENDMDL
MODEL 8
REMARK VINA RESULT:      -6.4      1.359      1.785
REMARK  Name = 
REMARK  3 active torsions:
REMARK  status: ('A' for Active; 'I' for Inactive)
REMARK    1  A    between atoms: C_2  and  C_3
REMARK    2  A    between atoms: C_3  and  N_4
REMARK    3  A    between atoms: C_5  and  C_7
REMARK                            x       y       z     vdW  Elec       q    Type
REMARK                         _______ _______ _______ _____ _____    ______ ____
ROOT
ATOM      1  C   UNL     1      -1.822  13.941  20.923  0.00  0.00    +0.000 C 
ATOM      2  C   UNL     1      -1.823  15.720  20.662  0.00  0.00    +0.000 C 
ATOM      3  C   UNL     1      -1.012  16.891  19.939  0.00  0.00    +0.000 A 
ATOM      4  C   UNL     1      -1.281  17.360  18.630  0.00  0.00    +0.000 A 
ATOM      5  C   UNL     1      -0.272  18.065  17.897  0.00  0.00    +0.000 A 
ATOM      6  C   UNL     1       0.950  18.298  18.504  0.00  0.00    +0.000 A 
ATOM      7  C   UNL     1       0.903  18.460  19.897  0.00  0.00    +0.000 A 
ATOM      8  C   UNL     1      -0.113  17.745  20.614  0.00  0.00    +0.000 A 
ATOM      9  O   UNL     1       2.015  17.457  18.038  0.00  0.00    +0.000 OA
ATOM     10  C   UNL     1       1.648  16.168  18.555  0.00  0.00    +0.000 C 
ATOM     11  C   UNL     1       2.397  14.936  18.210  0.00  0.00    +0.000 C 
ATOM     12  C   UNL     1       2.471  14.072  19.237  0.00  0.00    +0.000 C 
ATOM     13  C   UNL     1       2.193  12.611  19.089  0.00  0.00    +0.000 C 
ATOM     14  C   UNL     1       1.215  12.321  20.200  0.00  0.00    +0.000 C 
ATOM     15  C   UNL     1       0.805  10.913  20.434  0.00  0.00    +0.000 A 
ATOM     16  C   UNL     1       1.396   9.854  19.699  0.00  0.00    +0.000 A 
ATOM     17  C   UNL     1       1.298   8.537  20.126  0.00  0.00    +0.000 A 
ATOM     18  C   UNL     1       0.621   8.287  21.310  0.00  0.00    +0.000 A 
ATOM     19  C   UNL     1      -0.029   9.340  21.999  0.00  0.00    +0.000 A 
ATOM     20  C   UNL     1      -0.016  10.681  21.537  0.00  0.00    +0.000 A 
ATOM     21  C   UNL     1      -0.708  11.812  22.308  0.00  0.00    +0.000 C 
ATOM     22  O   UNL     1      -1.234  11.502  23.409  0.00  0.00    +0.000 OA
ATOM     23  N   UNL     1      -0.844  13.215  21.966  0.00  0.00    +0.000 N 
ATOM     24  H   UNL     1      -1.085  13.635  22.864  0.00  0.00    +0.000 HD
ENDROOT
BRANCH   1  26
ATOM     25  N   UNL     1      -3.941  12.782  20.313  0.00  0.00    +0.000 N 
ATOM     26  C   UNL     1      -2.580  12.886  19.969  0.00  0.00    +0.000 C 
ATOM     27  O   UNL     1      -2.078  12.340  18.998  0.00  0.00    +0.000 OA
ATOM     28  H   UNL     1      -4.245  13.445  21.019  0.00  0.00    +0.000 HD
BRANCH  25  29
ATOM     29  C   UNL     1      -5.087  12.262  19.585  0.00  0.00    +0.000 C 
ATOM     30  C   UNL     1      -6.354  13.108  19.838  0.00  0.00    +0.000 C 
ATOM     31  C   UNL     1      -6.354  11.654  20.147  0.00  0.00    +0.000 C 
BRANCH  29  33
ATOM     32  N   UNL     1      -4.613  11.659  17.081  0.00  0.00    +0.000 NA
ATOM     33  C   UNL     1      -4.817  11.949  18.187  0.00  0.00    +0.000 C 
ENDBRANCH  29  33
ENDBRANCH  25  29
ENDBRANCH   1  26
TORSDOF 3
ENDMDL
MODEL 9
REMARK VINA RESULT:      -6.4      3.762      6.843
REMARK  Name = 
REMARK  3 active torsions:
REMARK  status: ('A' for Active; 'I' for Inactive)
REMARK    1  A    between atoms: C_2  and  C_3
REMARK    2  A    between atoms: C_3  and  N_4
REMARK    3  A    between atoms: C_5  and  C_7
REMARK                            x       y       z     vdW  Elec       q    Type
REMARK                         _______ _______ _______ _____ _____    ______ ____
ROOT
ATOM      1  C   UNL     1      -4.771  12.730  19.837  0.00  0.00    +0.000 C 
ATOM      2  C   UNL     1      -3.343  11.915  19.111  0.00  0.00    +0.000 C 
ATOM      3  C   UNL     1      -1.745  11.921  19.119  0.00  0.00    +0.000 A 
ATOM      4  C   UNL     1      -0.947  11.119  19.970  0.00  0.00    +0.000 A 
ATOM      5  C   UNL     1       0.411  11.488  20.240  0.00  0.00    +0.000 A 
ATOM      6  C   UNL     1       0.927  12.619  19.632  0.00  0.00    +0.000 A 
ATOM      7  C   UNL     1       0.397  12.909  18.365  0.00  0.00    +0.000 A 
ATOM      8  C   UNL     1      -0.966  12.535  18.115  0.00  0.00    +0.000 A 
ATOM      9  O   UNL     1       1.053  13.755  20.499  0.00  0.00    +0.000 OA
ATOM     10  C   UNL     1      -0.315  14.122  20.739  0.00  0.00    +0.000 C 
ATOM     11  C   UNL     1      -0.691  15.182  21.704  0.00  0.00    +0.000 C 
ATOM     12  C   UNL     1      -1.752  15.899  21.297  0.00  0.00    +0.000 C 
ATOM     13  C   UNL     1      -2.903  16.225  22.193  0.00  0.00    +0.000 C 
ATOM     14  C   UNL     1      -4.109  15.819  21.384  0.00  0.00    +0.000 C 
ATOM     15  C   UNL     1      -5.460  16.118  21.926  0.00  0.00    +0.000 A 
ATOM     16  C   UNL     1      -5.612  16.859  23.125  0.00  0.00    +0.000 A 
ATOM     17  C   UNL     1      -6.824  17.444  23.463  0.00  0.00    +0.000 A 
ATOM     18  C   UNL     1      -7.882  17.303  22.578  0.00  0.00    +0.000 A 
ATOM     19  C   UNL     1      -7.743  16.500  21.419  0.00  0.00    +0.000 A 
ATOM     20  C   UNL     1      -6.540  15.822  21.096  0.00  0.00    +0.000 A 
ATOM     21  C   UNL     1      -6.402  14.974  19.825  0.00  0.00    +0.000 C 
ATOM     22  O   UNL     1      -7.391  14.964  19.045  0.00  0.00    +0.000 OA
ATOM     23  N   UNL     1      -5.282  14.175  19.364  0.00  0.00    +0.000 N 
ATOM     24  H   UNL     1      -5.498  14.049  18.375  0.00  0.00    +0.000 HD
ENDROOT
BRANCH   1  26
ATOM     25  N   UNL     1      -4.822  12.709  22.327  0.00  0.00    +0.000 N 
ATOM     26  C   UNL     1      -5.502  12.242  21.188  0.00  0.00    +0.000 C 
ATOM     27  O   UNL     1      -6.571  11.650  21.226  0.00  0.00    +0.000 OA
ATOM     28  H   UNL     1      -4.060  13.349  22.125  0.00  0.00    +0.000 HD
BRANCH  25  29
ATOM     29  C   UNL     1      -5.234  12.842  23.715  0.00  0.00    +0.000 C 
ATOM     30  C   UNL     1      -4.197  13.631  24.544  0.00  0.00    +0.000 C 
ATOM     31  C   UNL     1      -4.578  12.252  24.945  0.00  0.00    +0.000 C 
BRANCH  29  33
ATOM     32  N   UNL     1      -7.734  13.566  23.999  0.00  0.00    +0.000 NA
ATOM     33  C   UNL     1      -6.620  13.258  23.892  0.00  0.00    +0.000 C 
ENDBRANCH  29  33
ENDBRANCH  25  29
ENDBRANCH   1  26
TORSDOF 3
ENDMDL
