MODEL 1
REMARK VINA RESULT:      -6.2      0.000      0.000
REMARK  Name = 
REMARK  14 active torsions:
REMARK  status: ('A' for Active; 'I' for Inactive)
REMARK    1  A    between atoms: C_1  and  O_2
REMARK    2  A    between atoms: O_2  and  C_3
REMARK    3  A    between atoms: C_3  and  C_5
REMARK    4  A    between atoms: N_8  and  C_9
REMARK    5  A    between atoms: C_9  and  C_10
REMARK    6  A    between atoms: C_9  and  C_22
REMARK    7  A    between atoms: C_12  and  O_13
REMARK    8  A    between atoms: O_13  and  C_14
REMARK    9  A    between atoms: C_15  and  O_16
REMARK   10  A    between atoms: O_16  and  C_17
REMARK   11  A    between atoms: C_18  and  O_19
REMARK   12  A    between atoms: O_19  and  C_20
REMARK   13  A    between atoms: C_26  and  C_27
REMARK   14  A    between atoms: C_30  and  O_31
REMARK                            x       y       z     vdW  Elec       q    Type
REMARK                         _______ _______ _______ _____ _____    ______ ____
ROOT
ATOM      1  C   UNL     1       0.174  11.885  19.700  0.00  0.00    +0.000 C 
ENDROOT
BRANCH   1   2
ATOM      2  C   UNL     1       0.834  10.493  19.687  0.00  0.00    +0.000 A 
ATOM      3  S   UNL     1       0.687   9.515  21.205  0.00  0.00    +0.000 S 
ATOM      4  C   UNL     1       1.454   8.188  20.405  0.00  0.00    +0.000 A 
ATOM      5  N   UNL     1       1.712   6.957  20.717  0.00  0.00    +0.000 NA
ATOM      6  C   UNL     1       2.275   6.507  19.541  0.00  0.00    +0.000 A 
ATOM      7  C   UNL     1       2.703   5.095  19.400  0.00  0.00    +0.000 C 
ATOM      8  N   UNL     1       2.376   7.419  18.547  0.00  0.00    +0.000 NA
ATOM      9  N   UNL     1       1.814   8.504  19.133  0.00  0.00    +0.000 N 
ATOM     10  C   UNL     1       1.483   9.794  18.724  0.00  0.00    +0.000 A 
BRANCH  10  11
ATOM     11  O   UNL     1       1.758  10.238  17.446  0.00  0.00    +0.000 OA
ATOM     12  H   UNL     1       2.723  10.144  17.311  0.00  0.00    +0.000 HD
ENDBRANCH  10  11
ENDBRANCH   1   2
BRANCH   1  16
ATOM     13  C   UNL     1       2.132  15.632  18.575  0.00  0.00    +0.000 C 
ATOM     14  C   UNL     1       0.633  15.450  18.384  0.00  0.00    +0.000 C 
ATOM     15  C   UNL     1       0.110  14.290  19.224  0.00  0.00    +0.000 C 
ATOM     16  N   UNL     1       0.770  13.002  18.893  0.00  0.00    +0.000 NA
ATOM     17  C   UNL     1       2.223  13.115  19.086  0.00  0.00    +0.000 C 
ATOM     18  C   UNL     1       2.836  14.297  18.317  0.00  0.00    +0.000 C 
BRANCH  13  19
ATOM     19  C   UNL     1       2.442  16.203  19.952  0.00  0.00    +0.000 C 
ATOM     20  O   UNL     1       1.656  16.827  20.650  0.00  0.00    +0.000 OA
BRANCH  19  22
ATOM     21  C   UNL     1       4.124  16.387  21.590  0.00  0.00    +0.000 C 
ATOM     22  O   UNL     1       3.729  15.912  20.301  0.00  0.00    +0.000 OA
ENDBRANCH  19  22
ENDBRANCH  13  19
ENDBRANCH   1  16
BRANCH   1  23
ATOM     23  C   UNL     1      -1.301  11.717  19.292  0.00  0.00    +0.000 A 
ATOM     24  C   UNL     1      -1.606  11.393  17.968  0.00  0.00    +0.000 A 
ATOM     25  C   UNL     1      -2.915  11.456  17.488  0.00  0.00    +0.000 A 
ATOM     26  C   UNL     1      -3.956  11.898  18.338  0.00  0.00    +0.000 A 
ATOM     27  C   UNL     1      -3.655  12.231  19.678  0.00  0.00    +0.000 A 
ATOM     28  C   UNL     1      -2.342  12.081  20.155  0.00  0.00    +0.000 A 
BRANCH  25  29
ATOM     29  O   UNL     1      -3.213  11.164  16.174  0.00  0.00    +0.000 OA
ATOM     30  C   UNL     1      -3.047   9.794  15.804  0.00  0.00    +0.000 C 
ENDBRANCH  25  29
BRANCH  26  31
ATOM     31  O   UNL     1      -5.178  12.065  17.725  0.00  0.00    +0.000 OA
ATOM     32  C   UNL     1      -6.217  11.154  18.059  0.00  0.00    +0.000 C 
ENDBRANCH  26  31
BRANCH  27  33
ATOM     33  O   UNL     1      -4.649  12.726  20.485  0.00  0.00    +0.000 OA
ATOM     34  C   UNL     1      -4.291  13.032  21.831  0.00  0.00    +0.000 C 
ENDBRANCH  27  33
ENDBRANCH   1  23
TORSDOF 9
ENDMDL
MODEL 2
REMARK VINA RESULT:      -6.2      0.719      2.348
REMARK  Name = 
REMARK  14 active torsions:
REMARK  status: ('A' for Active; 'I' for Inactive)
REMARK    1  A    between atoms: C_1  and  O_2
REMARK    2  A    between atoms: O_2  and  C_3
REMARK    3  A    between atoms: C_3  and  C_5
REMARK    4  A    between atoms: N_8  and  C_9
REMARK    5  A    between atoms: C_9  and  C_10
REMARK    6  A    between atoms: C_9  and  C_22
REMARK    7  A    between atoms: C_12  and  O_13
REMARK    8  A    between atoms: O_13  and  C_14
REMARK    9  A    between atoms: C_15  and  O_16
REMARK   10  A    between atoms: O_16  and  C_17
REMARK   11  A    between atoms: C_18  and  O_19
REMARK   12  A    between atoms: O_19  and  C_20
REMARK   13  A    between atoms: C_26  and  C_27
REMARK   14  A    between atoms: C_30  and  O_31
REMARK                            x       y       z     vdW  Elec       q    Type
REMARK                         _______ _______ _______ _____ _____    ______ ____
ROOT
ATOM      1  C   UNL     1       0.322  12.243  19.595  0.00  0.00    +0.000 C 
ENDROOT
BRANCH   1   2
ATOM      2  C   UNL     1       0.905  10.819  19.652  0.00  0.00    +0.000 A 
ATOM      3  S   UNL     1       0.695   9.921  21.210  0.00  0.00    +0.000 S 
ATOM      4  C   UNL     1       1.394   8.519  20.479  0.00  0.00    +0.000 A 
ATOM      5  N   UNL     1       1.583   7.291  20.849  0.00  0.00    +0.000 NA
ATOM      6  C   UNL     1       2.129   6.758  19.699  0.00  0.00    +0.000 A 
ATOM      7  C   UNL     1       2.481   5.320  19.626  0.00  0.00    +0.000 C 
ATOM      8  N   UNL     1       2.287   7.617  18.666  0.00  0.00    +0.000 NA
ATOM      9  N   UNL     1       1.780   8.757  19.197  0.00  0.00    +0.000 N 
ATOM     10  C   UNL     1       1.523  10.042  18.727  0.00  0.00    +0.000 A 
BRANCH  10  11
ATOM     11  O   UNL     1       1.831  10.412  17.434  0.00  0.00    +0.000 OA
ATOM     12  H   UNL     1       1.115  10.071  16.859  0.00  0.00    +0.000 HD
ENDBRANCH  10  11
ENDBRANCH   1   2
BRANCH   1  16
ATOM     13  C   UNL     1       2.687  15.770  18.544  0.00  0.00    +0.000 C 
ATOM     14  C   UNL     1       1.174  15.774  18.385  0.00  0.00    +0.000 C 
ATOM     15  C   UNL     1       0.535  14.655  19.200  0.00  0.00    +0.000 C 
ATOM     16  N   UNL     1       1.029  13.310  18.811  0.00  0.00    +0.000 NA
ATOM     17  C   UNL     1       2.489  13.243  18.970  0.00  0.00    +0.000 C 
ATOM     18  C   UNL     1       3.222  14.371  18.224  0.00  0.00    +0.000 C 
BRANCH  13  19
ATOM     19  C   UNL     1       3.093  16.251  19.931  0.00  0.00    +0.000 C 
ATOM     20  O   UNL     1       3.182  15.545  20.924  0.00  0.00    +0.000 OA
BRANCH  19  22
ATOM     21  C   UNL     1       4.418  18.015  20.755  0.00  0.00    +0.000 C 
ATOM     22  O   UNL     1       3.350  17.591  19.905  0.00  0.00    +0.000 OA
ENDBRANCH  19  22
ENDBRANCH  13  19
ENDBRANCH   1  16
BRANCH   1  23
ATOM     23  C   UNL     1      -1.130  12.145  19.092  0.00  0.00    +0.000 A 
ATOM     24  C   UNL     1      -2.165  12.589  19.919  0.00  0.00    +0.000 A 
ATOM     25  C   UNL     1      -3.501  12.316  19.621  0.00  0.00    +0.000 A 
ATOM     26  C   UNL     1      -3.823  11.536  18.486  0.00  0.00    +0.000 A 
ATOM     27  C   UNL     1      -2.781  11.080  17.646  0.00  0.00    +0.000 A 
ATOM     28  C   UNL     1      -1.452  11.439  17.927  0.00  0.00    +0.000 A 
BRANCH  25  29
ATOM     29  O   UNL     1      -4.521  12.729  20.451  0.00  0.00    +0.000 OA
ATOM     30  C   UNL     1      -4.159  12.886  21.825  0.00  0.00    +0.000 C 
ENDBRANCH  25  29
BRANCH  26  31
ATOM     31  O   UNL     1      -5.153  11.201  18.367  0.00  0.00    +0.000 OA
ATOM     32  C   UNL     1      -5.962  11.993  17.507  0.00  0.00    +0.000 C 
ENDBRANCH  26  31
BRANCH  27  33
ATOM     33  O   UNL     1      -3.086  10.266  16.584  0.00  0.00    +0.000 OA
ATOM     34  C   UNL     1      -3.113  10.876  15.295  0.00  0.00    +0.000 C 
ENDBRANCH  27  33
ENDBRANCH   1  23
TORSDOF 9
ENDMDL
MODEL 3
REMARK VINA RESULT:      -5.9      1.374      2.767
REMARK  Name = 
REMARK  14 active torsions:
REMARK  status: ('A' for Active; 'I' for Inactive)
REMARK    1  A    between atoms: C_1  and  O_2
REMARK    2  A    between atoms: O_2  and  C_3
REMARK    3  A    between atoms: C_3  and  C_5
REMARK    4  A    between atoms: N_8  and  C_9
REMARK    5  A    between atoms: C_9  and  C_10
REMARK    6  A    between atoms: C_9  and  C_22
REMARK    7  A    between atoms: C_12  and  O_13
REMARK    8  A    between atoms: O_13  and  C_14
REMARK    9  A    between atoms: C_15  and  O_16
REMARK   10  A    between atoms: O_16  and  C_17
REMARK   11  A    between atoms: C_18  and  O_19
REMARK   12  A    between atoms: O_19  and  C_20
REMARK   13  A    between atoms: C_26  and  C_27
REMARK   14  A    between atoms: C_30  and  O_31
REMARK                            x       y       z     vdW  Elec       q    Type
REMARK                         _______ _______ _______ _____ _____    ______ ____
ROOT
ATOM      1  C   UNL     1       0.585  11.286  20.113  0.00  0.00    +0.000 C 
ENDROOT
BRANCH   1   2
ATOM      2  C   UNL     1       1.227   9.941  19.728  0.00  0.00    +0.000 A 
ATOM      3  S   UNL     1       1.122   8.614  20.956  0.00  0.00    +0.000 S 
ATOM      4  C   UNL     1       1.844   7.528  19.822  0.00  0.00    +0.000 A 
ATOM      5  N   UNL     1       2.099   6.256  19.805  0.00  0.00    +0.000 NA
ATOM      6  C   UNL     1       2.614   6.115  18.533  0.00  0.00    +0.000 A 
ATOM      7  C   UNL     1       3.020   4.782  18.028  0.00  0.00    +0.000 C 
ATOM      8  N   UNL     1       2.691   7.246  17.796  0.00  0.00    +0.000 NA
ATOM      9  N   UNL     1       2.162   8.152  18.657  0.00  0.00    +0.000 N 
ATOM     10  C   UNL     1       1.833   9.503  18.596  0.00  0.00    +0.000 A 
BRANCH  10  11
ATOM     11  O   UNL     1       2.067  10.253  17.461  0.00  0.00    +0.000 OA
ATOM     12  H   UNL     1       1.619  11.113  17.588  0.00  0.00    +0.000 HD
ENDBRANCH  10  11
ENDBRANCH   1   2
BRANCH   1  16
ATOM     13  C   UNL     1       1.565  15.498  19.450  0.00  0.00    +0.000 C 
ATOM     14  C   UNL     1       1.760  14.471  18.344  0.00  0.00    +0.000 C 
ATOM     15  C   UNL     1       0.965  13.202  18.629  0.00  0.00    +0.000 C 
ATOM     16  N   UNL     1       1.348  12.564  19.913  0.00  0.00    +0.000 NA
ATOM     17  C   UNL     1       1.154  13.507  21.023  0.00  0.00    +0.000 C 
ATOM     18  C   UNL     1       1.877  14.846  20.801  0.00  0.00    +0.000 C 
BRANCH  13  19
ATOM     19  C   UNL     1       0.167  16.099  19.398  0.00  0.00    +0.000 C 
ATOM     20  O   UNL     1      -0.510  16.224  18.388  0.00  0.00    +0.000 OA
BRANCH  19  22
ATOM     21  C   UNL     1      -0.353  17.889  20.838  0.00  0.00    +0.000 C 
ATOM     22  O   UNL     1      -0.227  16.478  20.648  0.00  0.00    +0.000 OA
ENDBRANCH  19  22
ENDBRANCH  13  19
ENDBRANCH   1  16
BRANCH   1  23
ATOM     23  C   UNL     1      -0.764  11.399  19.378  0.00  0.00    +0.000 A 
ATOM     24  C   UNL     1      -1.782  12.171  19.944  0.00  0.00    +0.000 A 
ATOM     25  C   UNL     1      -3.087  12.126  19.452  0.00  0.00    +0.000 A 
ATOM     26  C   UNL     1      -3.407  11.251  18.388  0.00  0.00    +0.000 A 
ATOM     27  C   UNL     1      -2.384  10.465  17.812  0.00  0.00    +0.000 A 
ATOM     28  C   UNL     1      -1.064  10.591  18.275  0.00  0.00    +0.000 A 
BRANCH  25  29
ATOM     29  O   UNL     1      -4.098  12.866  20.028  0.00  0.00    +0.000 OA
ATOM     30  C   UNL     1      -4.168  12.789  21.453  0.00  0.00    +0.000 C 
ENDBRANCH  25  29
BRANCH  26  31
ATOM     31  O   UNL     1      -4.747  11.174  18.080  0.00  0.00    +0.000 OA
ATOM     32  C   UNL     1      -5.248  12.047  17.075  0.00  0.00    +0.000 C 
ENDBRANCH  26  31
BRANCH  27  33
ATOM     33  O   UNL     1      -2.706   9.565  16.826  0.00  0.00    +0.000 OA
ATOM     34  C   UNL     1      -2.699  10.052  15.486  0.00  0.00    +0.000 C 
ENDBRANCH  27  33
ENDBRANCH   1  23
TORSDOF 9
ENDMDL
MODEL 4
REMARK VINA RESULT:      -5.9      2.631      6.293
REMARK  Name = 
REMARK  14 active torsions:
REMARK  status: ('A' for Active; 'I' for Inactive)
REMARK    1  A    between atoms: C_1  and  O_2
REMARK    2  A    between atoms: O_2  and  C_3
REMARK    3  A    between atoms: C_3  and  C_5
REMARK    4  A    between atoms: N_8  and  C_9
REMARK    5  A    between atoms: C_9  and  C_10
REMARK    6  A    between atoms: C_9  and  C_22
REMARK    7  A    between atoms: C_12  and  O_13
REMARK    8  A    between atoms: O_13  and  C_14
REMARK    9  A    between atoms: C_15  and  O_16
REMARK   10  A    between atoms: O_16  and  C_17
REMARK   11  A    between atoms: C_18  and  O_19
REMARK   12  A    between atoms: O_19  and  C_20
REMARK   13  A    between atoms: C_26  and  C_27
REMARK   14  A    between atoms: C_30  and  O_31
REMARK                            x       y       z     vdW  Elec       q    Type
REMARK                         _______ _______ _______ _____ _____    ______ ____
ROOT
ATOM      1  C   UNL     1      -0.133  11.912  18.690  0.00  0.00    +0.000 C 
ENDROOT
BRANCH   1   2
ATOM      2  C   UNL     1      -1.666  11.891  18.548  0.00  0.00    +0.000 A 
ATOM      3  S   UNL     1      -2.622  12.309  20.028  0.00  0.00    +0.000 S 
ATOM      4  C   UNL     1      -4.074  12.227  19.095  0.00  0.00    +0.000 A 
ATOM      5  N   UNL     1      -5.326  12.478  19.324  0.00  0.00    +0.000 NA
ATOM      6  C   UNL     1      -5.866  12.247  18.076  0.00  0.00    +0.000 A 
ATOM      7  C   UNL     1      -7.313  12.455  17.829  0.00  0.00    +0.000 C 
ATOM      8  N   UNL     1      -4.995  11.856  17.117  0.00  0.00    +0.000 NA
ATOM      9  N   UNL     1      -3.828  11.870  17.807  0.00  0.00    +0.000 N 
ATOM     10  C   UNL     1      -2.487  11.669  17.491  0.00  0.00    +0.000 A 
BRANCH  10  11
ATOM     11  O   UNL     1      -2.089  11.337  16.212  0.00  0.00    +0.000 OA
ATOM     12  H   UNL     1      -2.462  10.453  16.015  0.00  0.00    +0.000 HD
ENDBRANCH  10  11
ENDBRANCH   1   2
BRANCH   1  16
ATOM     13  C   UNL     1       2.433  15.121  20.190  0.00  0.00    +0.000 C 
ATOM     14  C   UNL     1       2.701  13.672  20.568  0.00  0.00    +0.000 C 
ATOM     15  C   UNL     1       1.992  12.717  19.614  0.00  0.00    +0.000 C 
ATOM     16  N   UNL     1       0.521  12.917  19.593  0.00  0.00    +0.000 NA
ATOM     17  C   UNL     1       0.205  14.300  19.208  0.00  0.00    +0.000 C 
ATOM     18  C   UNL     1       0.921  15.341  20.084  0.00  0.00    +0.000 C 
BRANCH  13  19
ATOM     19  C   UNL     1       3.173  15.499  18.915  0.00  0.00    +0.000 C 
ATOM     20  O   UNL     1       2.665  16.022  17.933  0.00  0.00    +0.000 OA
BRANCH  19  22
ATOM     21  C   UNL     1       5.133  14.826  17.796  0.00  0.00    +0.000 C 
ATOM     22  O   UNL     1       4.494  15.176  19.026  0.00  0.00    +0.000 OA
ENDBRANCH  19  22
ENDBRANCH  13  19
ENDBRANCH   1  16
BRANCH   1  23
ATOM     23  C   UNL     1       0.327  10.503  19.109  0.00  0.00    +0.000 A 
ATOM     24  C   UNL     1       0.397  10.189  20.469  0.00  0.00    +0.000 A 
ATOM     25  C   UNL     1       1.020   9.022  20.913  0.00  0.00    +0.000 A 
ATOM     26  C   UNL     1       1.636   8.154  19.981  0.00  0.00    +0.000 A 
ATOM     27  C   UNL     1       1.571   8.466  18.604  0.00  0.00    +0.000 A 
ATOM     28  C   UNL     1       0.868   9.606  18.180  0.00  0.00    +0.000 A 
BRANCH  25  29
ATOM     29  O   UNL     1       1.116   8.726  22.256  0.00  0.00    +0.000 OA
ATOM     30  C   UNL     1       0.209   9.438  23.100  0.00  0.00    +0.000 C 
ENDBRANCH  25  29
BRANCH  26  31
ATOM     31  O   UNL     1       2.348   7.115  20.535  0.00  0.00    +0.000 OA
ATOM     32  C   UNL     1       1.749   5.825  20.533  0.00  0.00    +0.000 C 
ENDBRANCH  26  31
BRANCH  27  33
ATOM     33  O   UNL     1       2.227   7.663  17.704  0.00  0.00    +0.000 OA
ATOM     34  C   UNL     1       3.634   7.856  17.579  0.00  0.00    +0.000 C 
ENDBRANCH  27  33
ENDBRANCH   1  23
TORSDOF 9
ENDMDL
MODEL 5
REMARK VINA RESULT:      -5.9      1.224      1.389
REMARK  Name = 
REMARK  14 active torsions:
REMARK  status: ('A' for Active; 'I' for Inactive)
REMARK    1  A    between atoms: C_1  and  O_2
REMARK    2  A    between atoms: O_2  and  C_3
REMARK    3  A    between atoms: C_3  and  C_5
REMARK    4  A    between atoms: N_8  and  C_9
REMARK    5  A    between atoms: C_9  and  C_10
REMARK    6  A    between atoms: C_9  and  C_22
REMARK    7  A    between atoms: C_12  and  O_13
REMARK    8  A    between atoms: O_13  and  C_14
REMARK    9  A    between atoms: C_15  and  O_16
REMARK   10  A    between atoms: O_16  and  C_17
REMARK   11  A    between atoms: C_18  and  O_19
REMARK   12  A    between atoms: O_19  and  C_20
REMARK   13  A    between atoms: C_26  and  C_27
REMARK   14  A    between atoms: C_30  and  O_31
REMARK                            x       y       z     vdW  Elec       q    Type
REMARK                         _______ _______ _______ _____ _____    ______ ____
ROOT
ATOM      1  C   UNL     1       0.243  11.488  19.692  0.00  0.00    +0.000 C 
ENDROOT
BRANCH   1   2
ATOM      2  C   UNL     1       0.858  10.085  19.534  0.00  0.00    +0.000 A 
ATOM      3  S   UNL     1       1.691   9.740  17.963  0.00  0.00    +0.000 S 
ATOM      4  C   UNL     1       2.187   8.204  18.582  0.00  0.00    +0.000 A 
ATOM      5  N   UNL     1       2.946   7.245  18.150  0.00  0.00    +0.000 NA
ATOM      6  C   UNL     1       2.915   6.389  19.232  0.00  0.00    +0.000 A 
ATOM      7  C   UNL     1       3.698   5.130  19.220  0.00  0.00    +0.000 C 
ATOM      8  N   UNL     1       2.162   6.788  20.282  0.00  0.00    +0.000 NA
ATOM      9  N   UNL     1       1.713   7.988  19.837  0.00  0.00    +0.000 N 
ATOM     10  C   UNL     1       0.959   9.027  20.376  0.00  0.00    +0.000 A 
BRANCH  10  11
ATOM     11  O   UNL     1       0.444   8.957  21.655  0.00  0.00    +0.000 OA
ATOM     12  H   UNL     1      -0.531   8.985  21.574  0.00  0.00    +0.000 HD
ENDBRANCH  10  11
ENDBRANCH   1   2
BRANCH   1  16
ATOM     13  C   UNL     1       2.305  15.217  18.704  0.00  0.00    +0.000 C 
ATOM     14  C   UNL     1       0.786  15.138  18.675  0.00  0.00    +0.000 C 
ATOM     15  C   UNL     1       0.285  13.929  19.457  0.00  0.00    +0.000 C 
ATOM     16  N   UNL     1       0.817  12.647  18.930  0.00  0.00    +0.000 NA
ATOM     17  C   UNL     1       2.286  12.660  18.959  0.00  0.00    +0.000 C 
ATOM     18  C   UNL     1       2.886  13.878  18.239  0.00  0.00    +0.000 C 
BRANCH  13  19
ATOM     19  C   UNL     1       2.806  15.627  20.082  0.00  0.00    +0.000 C 
ATOM     20  O   UNL     1       2.185  16.311  20.883  0.00  0.00    +0.000 OA
BRANCH  19  22
ATOM     21  C   UNL     1       4.440  15.041  21.673  0.00  0.00    +0.000 C 
ATOM     22  O   UNL     1       4.052  15.115  20.299  0.00  0.00    +0.000 OA
ENDBRANCH  19  22
ENDBRANCH  13  19
ENDBRANCH   1  16
BRANCH   1  23
ATOM     23  C   UNL     1      -1.261  11.388  19.376  0.00  0.00    +0.000 A 
ATOM     24  C   UNL     1      -1.667  10.727  18.214  0.00  0.00    +0.000 A 
ATOM     25  C   UNL     1      -2.984  10.803  17.757  0.00  0.00    +0.000 A 
ATOM     26  C   UNL     1      -3.924  11.600  18.451  0.00  0.00    +0.000 A 
ATOM     27  C   UNL     1      -3.520  12.275  19.626  0.00  0.00    +0.000 A 
ATOM     28  C   UNL     1      -2.210  12.115  20.106  0.00  0.00    +0.000 A 
BRANCH  25  29
ATOM     29  O   UNL     1      -3.379  10.175  16.596  0.00  0.00    +0.000 OA
ATOM     30  C   UNL     1      -2.815  10.709  15.396  0.00  0.00    +0.000 C 
ENDBRANCH  25  29
BRANCH  26  31
ATOM     31  O   UNL     1      -5.149  11.726  17.836  0.00  0.00    +0.000 OA
ATOM     32  C   UNL     1      -6.240  10.991  18.374  0.00  0.00    +0.000 C 
ENDBRANCH  26  31
BRANCH  27  33
ATOM     33  O   UNL     1      -4.411  13.104  20.262  0.00  0.00    +0.000 OA
ATOM     34  C   UNL     1      -4.709  12.801  21.624  0.00  0.00    +0.000 C 
ENDBRANCH  27  33
ENDBRANCH   1  23
TORSDOF 9
ENDMDL
MODEL 6
REMARK VINA RESULT:      -5.9      1.722      3.109
REMARK  Name = 
REMARK  14 active torsions:
REMARK  status: ('A' for Active; 'I' for Inactive)
REMARK    1  A    between atoms: C_1  and  O_2
REMARK    2  A    between atoms: O_2  and  C_3
REMARK    3  A    between atoms: C_3  and  C_5
REMARK    4  A    between atoms: N_8  and  C_9
REMARK    5  A    between atoms: C_9  and  C_10
REMARK    6  A    between atoms: C_9  and  C_22
REMARK    7  A    between atoms: C_12  and  O_13
REMARK    8  A    between atoms: O_13  and  C_14
REMARK    9  A    between atoms: C_15  and  O_16
REMARK   10  A    between atoms: O_16  and  C_17
REMARK   11  A    between atoms: C_18  and  O_19
REMARK   12  A    between atoms: O_19  and  C_20
REMARK   13  A    between atoms: C_26  and  C_27
REMARK   14  A    between atoms: C_30  and  O_31
REMARK                            x       y       z     vdW  Elec       q    Type
REMARK                         _______ _______ _______ _____ _____    ______ ____
ROOT
ATOM      1  C   UNL     1       0.469  11.269  20.052  0.00  0.00    +0.000 C 
ENDROOT
BRANCH   1   2
ATOM      2  C   UNL     1       1.088   9.929  19.614  0.00  0.00    +0.000 A 
ATOM      3  S   UNL     1       1.919   9.908  18.005  0.00  0.00    +0.000 S 
ATOM      4  C   UNL     1       2.420   8.281  18.302  0.00  0.00    +0.000 A 
ATOM      5  N   UNL     1       3.180   7.430  17.685  0.00  0.00    +0.000 NA
ATOM      6  C   UNL     1       3.154   6.374  18.573  0.00  0.00    +0.000 A 
ATOM      7  C   UNL     1       3.940   5.145  18.307  0.00  0.00    +0.000 C 
ATOM      8  N   UNL     1       2.401   6.552  19.683  0.00  0.00    +0.000 NA
ATOM      9  N   UNL     1       1.949   7.815  19.488  0.00  0.00    +0.000 N 
ATOM     10  C   UNL     1       1.193   8.723  20.226  0.00  0.00    +0.000 A 
BRANCH  10  11
ATOM     11  O   UNL     1       0.681   8.396  21.465  0.00  0.00    +0.000 OA
ATOM     12  H   UNL     1      -0.162   7.923  21.311  0.00  0.00    +0.000 HD
ENDBRANCH  10  11
ENDBRANCH   1   2
BRANCH   1  16
ATOM     13  C   UNL     1       1.483  15.492  19.528  0.00  0.00    +0.000 C 
ATOM     14  C   UNL     1       1.611  14.513  18.370  0.00  0.00    +0.000 C 
ATOM     15  C   UNL     1       0.810  13.243  18.636  0.00  0.00    +0.000 C 
ATOM     16  N   UNL     1       1.242  12.544  19.872  0.00  0.00    +0.000 NA
ATOM     17  C   UNL     1       1.114  13.440  21.030  0.00  0.00    +0.000 C 
ATOM     18  C   UNL     1       1.847  14.777  20.832  0.00  0.00    +0.000 C 
BRANCH  13  19
ATOM     19  C   UNL     1       0.093  16.114  19.567  0.00  0.00    +0.000 C 
ATOM     20  O   UNL     1      -0.508  16.434  20.582  0.00  0.00    +0.000 OA
BRANCH  19  22
ATOM     21  C   UNL     1      -0.709  17.616  17.940  0.00  0.00    +0.000 C 
ATOM     22  O   UNL     1      -0.386  16.270  18.299  0.00  0.00    +0.000 OA
ENDBRANCH  19  22
ENDBRANCH  13  19
ENDBRANCH   1  16
BRANCH   1  23
ATOM     23  C   UNL     1      -0.893  11.418  19.351  0.00  0.00    +0.000 A 
ATOM     24  C   UNL     1      -1.902  12.152  19.979  0.00  0.00    +0.000 A 
ATOM     25  C   UNL     1      -3.217  12.129  19.510  0.00  0.00    +0.000 A 
ATOM     26  C   UNL     1      -3.555  11.314  18.405  0.00  0.00    +0.000 A 
ATOM     27  C   UNL     1      -2.540  10.566  17.766  0.00  0.00    +0.000 A 
ATOM     28  C   UNL     1      -1.212  10.671  18.210  0.00  0.00    +0.000 A 
BRANCH  25  29
ATOM     29  O   UNL     1      -4.219  12.831  20.146  0.00  0.00    +0.000 OA
ATOM     30  C   UNL     1      -3.790  14.001  20.844  0.00  0.00    +0.000 C 
ENDBRANCH  25  29
BRANCH  26  31
ATOM     31  O   UNL     1      -4.901  11.248  18.118  0.00  0.00    +0.000 OA
ATOM     32  C   UNL     1      -5.403  12.099  17.096  0.00  0.00    +0.000 C 
ENDBRANCH  26  31
BRANCH  27  33
ATOM     33  O   UNL     1      -2.879   9.721  16.737  0.00  0.00    +0.000 OA
ATOM     34  C   UNL     1      -2.756  10.240  15.414  0.00  0.00    +0.000 C 
ENDBRANCH  27  33
ENDBRANCH   1  23
TORSDOF 9
ENDMDL
MODEL 7
REMARK VINA RESULT:      -5.8      2.797      5.752
REMARK  Name = 
REMARK  14 active torsions:
REMARK  status: ('A' for Active; 'I' for Inactive)
REMARK    1  A    between atoms: C_1  and  O_2
REMARK    2  A    between atoms: O_2  and  C_3
REMARK    3  A    between atoms: C_3  and  C_5
REMARK    4  A    between atoms: N_8  and  C_9
REMARK    5  A    between atoms: C_9  and  C_10
REMARK    6  A    between atoms: C_9  and  C_22
REMARK    7  A    between atoms: C_12  and  O_13
REMARK    8  A    between atoms: O_13  and  C_14
REMARK    9  A    between atoms: C_15  and  O_16
REMARK   10  A    between atoms: O_16  and  C_17
REMARK   11  A    between atoms: C_18  and  O_19
REMARK   12  A    between atoms: O_19  and  C_20
REMARK   13  A    between atoms: C_26  and  C_27
REMARK   14  A    between atoms: C_30  and  O_31
REMARK                            x       y       z     vdW  Elec       q    Type
REMARK                         _______ _______ _______ _____ _____    ______ ____
ROOT
ATOM      1  C   UNL     1       0.011  12.509  18.692  0.00  0.00    +0.000 C 
ENDROOT
BRANCH   1   2
ATOM      2  C   UNL     1      -1.498  12.203  18.661  0.00  0.00    +0.000 A 
ATOM      3  S   UNL     1      -2.418  12.513  20.191  0.00  0.00    +0.000 S 
ATOM      4  C   UNL     1      -3.887  12.122  19.368  0.00  0.00    +0.000 A 
ATOM      5  N   UNL     1      -5.146  12.153  19.677  0.00  0.00    +0.000 NA
ATOM      6  C   UNL     1      -5.713  11.767  18.480  0.00  0.00    +0.000 A 
ATOM      7  C   UNL     1      -7.186  11.695  18.330  0.00  0.00    +0.000 C 
ATOM      8  N   UNL     1      -4.848  11.494  17.476  0.00  0.00    +0.000 NA
ATOM      9  N   UNL     1      -3.662  11.754  18.079  0.00  0.00    +0.000 N 
ATOM     10  C   UNL     1      -2.329  11.784  17.675  0.00  0.00    +0.000 A 
BRANCH  10  11
ATOM     11  O   UNL     1      -1.959  11.467  16.384  0.00  0.00    +0.000 OA
ATOM     12  H   UNL     1      -1.334  12.158  16.087  0.00  0.00    +0.000 HD
ENDBRANCH  10  11
ENDBRANCH   1   2
BRANCH   1  16
ATOM     13  C   UNL     1       1.708  16.452  19.536  0.00  0.00    +0.000 C 
ATOM     14  C   UNL     1       2.508  15.187  19.809  0.00  0.00    +0.000 C 
ATOM     15  C   UNL     1       1.927  13.997  19.053  0.00  0.00    +0.000 C 
ATOM     16  N   UNL     1       0.513  13.727  19.413  0.00  0.00    +0.000 NA
ATOM     17  C   UNL     1      -0.313  14.913  19.145  0.00  0.00    +0.000 C 
ATOM     18  C   UNL     1       0.228  16.182  19.824  0.00  0.00    +0.000 C 
BRANCH  13  19
ATOM     19  C   UNL     1       1.948  16.956  18.119  0.00  0.00    +0.000 C 
ATOM     20  O   UNL     1       3.017  16.916  17.528  0.00  0.00    +0.000 OA
BRANCH  19  22
ATOM     21  C   UNL     1       0.960  18.566  16.713  0.00  0.00    +0.000 C 
ATOM     22  O   UNL     1       0.790  17.457  17.598  0.00  0.00    +0.000 OA
ENDBRANCH  19  22
ENDBRANCH  13  19
ENDBRANCH   1  16
BRANCH   1  23
ATOM     23  C   UNL     1       0.737  11.272  19.252  0.00  0.00    +0.000 A 
ATOM     24  C   UNL     1       1.122  10.257  18.373  0.00  0.00    +0.000 A 
ATOM     25  C   UNL     1       1.570   9.021  18.843  0.00  0.00    +0.000 A 
ATOM     26  C   UNL     1       1.596   8.764  20.233  0.00  0.00    +0.000 A 
ATOM     27  C   UNL     1       1.206   9.786  21.129  0.00  0.00    +0.000 A 
ATOM     28  C   UNL     1       0.836  11.046  20.630  0.00  0.00    +0.000 A 
BRANCH  25  29
ATOM     29  O   UNL     1       1.923   8.008  17.976  0.00  0.00    +0.000 OA
ATOM     30  C   UNL     1       3.304   7.976  17.612  0.00  0.00    +0.000 C 
ENDBRANCH  25  29
BRANCH  26  31
ATOM     31  O   UNL     1       1.910   7.470  20.582  0.00  0.00    +0.000 OA
ATOM     32  C   UNL     1       0.838   6.586  20.883  0.00  0.00    +0.000 C 
ENDBRANCH  26  31
BRANCH  27  33
ATOM     33  O   UNL     1       1.164   9.516  22.475  0.00  0.00    +0.000 OA
ATOM     34  C   UNL     1      -0.104   9.643  23.115  0.00  0.00    +0.000 C 
ENDBRANCH  27  33
ENDBRANCH   1  23
TORSDOF 9
ENDMDL
MODEL 8
REMARK VINA RESULT:      -5.8      2.679      5.667
REMARK  Name = 
REMARK  14 active torsions:
REMARK  status: ('A' for Active; 'I' for Inactive)
REMARK    1  A    between atoms: C_1  and  O_2
REMARK    2  A    between atoms: O_2  and  C_3
REMARK    3  A    between atoms: C_3  and  C_5
REMARK    4  A    between atoms: N_8  and  C_9
REMARK    5  A    between atoms: C_9  and  C_10
REMARK    6  A    between atoms: C_9  and  C_22
REMARK    7  A    between atoms: C_12  and  O_13
REMARK    8  A    between atoms: O_13  and  C_14
REMARK    9  A    between atoms: C_15  and  O_16
REMARK   10  A    between atoms: O_16  and  C_17
REMARK   11  A    between atoms: C_18  and  O_19
REMARK   12  A    between atoms: O_19  and  C_20
REMARK   13  A    between atoms: C_26  and  C_27
REMARK   14  A    between atoms: C_30  and  O_31
REMARK                            x       y       z     vdW  Elec       q    Type
REMARK                         _______ _______ _______ _____ _____    ______ ____
ROOT
ATOM      1  C   UNL     1       0.260  12.052  18.719  0.00  0.00    +0.000 C 
ENDROOT
BRANCH   1   2
ATOM      2  C   UNL     1      -1.261  11.814  18.687  0.00  0.00    +0.000 A 
ATOM      3  S   UNL     1      -2.224  12.552  20.033  0.00  0.00    +0.000 S 
ATOM      4  C   UNL     1      -3.677  12.024  19.261  0.00  0.00    +0.000 A 
ATOM      5  N   UNL     1      -4.944  12.188  19.483  0.00  0.00    +0.000 NA
ATOM      6  C   UNL     1      -5.483  11.528  18.398  0.00  0.00    +0.000 A 
ATOM      7  C   UNL     1      -6.950  11.483  18.194  0.00  0.00    +0.000 C 
ATOM      8  N   UNL     1      -4.594  10.965  17.547  0.00  0.00    +0.000 NA
ATOM      9  N   UNL     1      -3.421  11.322  18.125  0.00  0.00    +0.000 N 
ATOM     10  C   UNL     1      -2.073  11.188  17.800  0.00  0.00    +0.000 A 
BRANCH  10  11
ATOM     11  O   UNL     1      -1.670  10.529  16.657  0.00  0.00    +0.000 OA
ATOM     12  H   UNL     1      -1.327   9.655  16.934  0.00  0.00    +0.000 HD
ENDBRANCH  10  11
ENDBRANCH   1   2
BRANCH   1  16
ATOM     13  C   UNL     1       2.642  15.571  19.761  0.00  0.00    +0.000 C 
ATOM     14  C   UNL     1       2.888  14.235  20.447  0.00  0.00    +0.000 C 
ATOM     15  C   UNL     1       2.281  13.088  19.646  0.00  0.00    +0.000 C 
ATOM     16  N   UNL     1       0.817  13.237  19.455  0.00  0.00    +0.000 NA
ATOM     17  C   UNL     1       0.523  14.504  18.771  0.00  0.00    +0.000 C 
ATOM     18  C   UNL     1       1.144  15.721  19.478  0.00  0.00    +0.000 C 
BRANCH  13  19
ATOM     19  C   UNL     1       3.493  15.707  18.506  0.00  0.00    +0.000 C 
ATOM     20  O   UNL     1       3.072  15.998  17.396  0.00  0.00    +0.000 OA
BRANCH  19  22
ATOM     21  C   UNL     1       5.505  14.692  17.820  0.00  0.00    +0.000 C 
ATOM     22  O   UNL     1       4.803  15.460  18.800  0.00  0.00    +0.000 OA
ENDBRANCH  19  22
ENDBRANCH  13  19
ENDBRANCH   1  16
BRANCH   1  23
ATOM     23  C   UNL     1       0.931  10.777  19.262  0.00  0.00    +0.000 A 
ATOM     24  C   UNL     1       1.416   9.828  18.358  0.00  0.00    +0.000 A 
ATOM     25  C   UNL     1       1.820   8.561  18.782  0.00  0.00    +0.000 A 
ATOM     26  C   UNL     1       1.699   8.204  20.145  0.00  0.00    +0.000 A 
ATOM     27  C   UNL     1       1.207   9.157  21.065  0.00  0.00    +0.000 A 
ATOM     28  C   UNL     1       0.884  10.451  20.623  0.00  0.00    +0.000 A 
BRANCH  25  29
ATOM     29  O   UNL     1       2.270   7.614  17.887  0.00  0.00    +0.000 OA
ATOM     30  C   UNL     1       3.676   7.644  17.630  0.00  0.00    +0.000 C 
ENDBRANCH  25  29
BRANCH  26  31
ATOM     31  O   UNL     1       1.983   6.887  20.430  0.00  0.00    +0.000 OA
ATOM     32  C   UNL     1       0.891   5.984  20.550  0.00  0.00    +0.000 C 
ENDBRANCH  26  31
BRANCH  27  33
ATOM     33  O   UNL     1       1.024   8.790  22.376  0.00  0.00    +0.000 OA
ATOM     34  C   UNL     1       0.016   9.491  23.103  0.00  0.00    +0.000 C 
ENDBRANCH  27  33
ENDBRANCH   1  23
TORSDOF 9
ENDMDL
MODEL 9
REMARK VINA RESULT:      -5.8      1.544      1.950
REMARK  Name = 
REMARK  14 active torsions:
REMARK  status: ('A' for Active; 'I' for Inactive)
REMARK    1  A    between atoms: C_1  and  O_2
REMARK    2  A    between atoms: O_2  and  C_3
REMARK    3  A    between atoms: C_3  and  C_5
REMARK    4  A    between atoms: N_8  and  C_9
REMARK    5  A    between atoms: C_9  and  C_10
REMARK    6  A    between atoms: C_9  and  C_22
REMARK    7  A    between atoms: C_12  and  O_13
REMARK    8  A    between atoms: O_13  and  C_14
REMARK    9  A    between atoms: C_15  and  O_16
REMARK   10  A    between atoms: O_16  and  C_17
REMARK   11  A    between atoms: C_18  and  O_19
REMARK   12  A    between atoms: O_19  and  C_20
REMARK   13  A    between atoms: C_26  and  C_27
REMARK   14  A    between atoms: C_30  and  O_31
REMARK                            x       y       z     vdW  Elec       q    Type
REMARK                         _______ _______ _______ _____ _____    ______ ____
ROOT
ATOM      1  C   UNL     1       0.539  11.138  20.313  0.00  0.00    +0.000 C 
ENDROOT
BRANCH   1   2
ATOM      2  C   UNL     1       1.206   9.831  19.847  0.00  0.00    +0.000 A 
ATOM      3  S   UNL     1       1.173   8.445  21.012  0.00  0.00    +0.000 S 
ATOM      4  C   UNL     1       1.892   7.435  19.808  0.00  0.00    +0.000 A 
ATOM      5  N   UNL     1       2.181   6.174  19.723  0.00  0.00    +0.000 NA
ATOM      6  C   UNL     1       2.664   6.108  18.432  0.00  0.00    +0.000 A 
ATOM      7  C   UNL     1       3.093   4.813  17.852  0.00  0.00    +0.000 C 
ATOM      8  N   UNL     1       2.690   7.275  17.749  0.00  0.00    +0.000 NA
ATOM      9  N   UNL     1       2.161   8.123  18.666  0.00  0.00    +0.000 N 
ATOM     10  C   UNL     1       1.793   9.466  18.680  0.00  0.00    +0.000 A 
BRANCH  10  11
ATOM     11  O   UNL     1       1.975  10.275  17.577  0.00  0.00    +0.000 OA
ATOM     12  H   UNL     1       1.691  11.176  17.831  0.00  0.00    +0.000 HD
ENDBRANCH  10  11
ENDBRANCH   1   2
BRANCH   1  16
ATOM     13  C   UNL     1       1.061  15.360  19.293  0.00  0.00    +0.000 C 
ATOM     14  C   UNL     1       1.271  14.276  18.246  0.00  0.00    +0.000 C 
ATOM     15  C   UNL     1       0.624  12.964  18.678  0.00  0.00    +0.000 C 
ATOM     16  N   UNL     1       1.160  12.461  19.967  0.00  0.00    +0.000 NA
ATOM     17  C   UNL     1       0.960  13.463  21.024  0.00  0.00    +0.000 C 
ATOM     18  C   UNL     1       1.533  14.841  20.654  0.00  0.00    +0.000 C 
BRANCH  13  19
ATOM     19  C   UNL     1      -0.388  15.828  19.313  0.00  0.00    +0.000 C 
ATOM     20  O   UNL     1      -1.199  15.574  20.191  0.00  0.00    +0.000 OA
BRANCH  19  22
ATOM     21  C   UNL     1      -1.288  17.834  18.468  0.00  0.00    +0.000 C 
ATOM     22  O   UNL     1      -0.652  16.580  18.206  0.00  0.00    +0.000 OA
ENDBRANCH  19  22
ENDBRANCH  13  19
ENDBRANCH   1  16
BRANCH   1  23
ATOM     23  C   UNL     1      -0.918  11.134  19.815  0.00  0.00    +0.000 A 
ATOM     24  C   UNL     1      -1.241  10.402  18.670  0.00  0.00    +0.000 A 
ATOM     25  C   UNL     1      -2.480  10.544  18.042  0.00  0.00    +0.000 A 
ATOM     26  C   UNL     1      -3.418  11.478  18.541  0.00  0.00    +0.000 A 
ATOM     27  C   UNL     1      -3.097  12.224  19.698  0.00  0.00    +0.000 A 
ATOM     28  C   UNL     1      -1.876  12.002  20.354  0.00  0.00    +0.000 A 
BRANCH  25  29
ATOM     29  O   UNL     1      -2.789   9.844  16.895  0.00  0.00    +0.000 OA
ATOM     30  C   UNL     1      -2.582  10.559  15.675  0.00  0.00    +0.000 C 
ENDBRANCH  25  29
BRANCH  26  31
ATOM     31  O   UNL     1      -4.542  11.647  17.764  0.00  0.00    +0.000 OA
ATOM     32  C   UNL     1      -5.749  11.038  18.204  0.00  0.00    +0.000 C 
ENDBRANCH  26  31
BRANCH  27  33
ATOM     33  O   UNL     1      -3.977  13.180  20.142  0.00  0.00    +0.000 OA
ATOM     34  C   UNL     1      -4.361  13.110  21.514  0.00  0.00    +0.000 C 
ENDBRANCH  27  33
ENDBRANCH   1  23
TORSDOF 9
ENDMDL
