MODEL 1
REMARK VINA RESULT:      -7.6      0.000      0.000
REMARK  Name = 
REMARK  3 active torsions:
REMARK  status: ('A' for Active; 'I' for Inactive)
REMARK    1  A    between atoms: C_1  and  O_2
REMARK    2  A    between atoms: O_2  and  C_3
REMARK    3  A    between atoms: C_7  and  C_9
REMARK                            x       y       z     vdW  Elec       q    Type
REMARK                         _______ _______ _______ _____ _____    ______ ____
ROOT
ATOM      1  C   UNL     1       5.151   3.864  16.669  0.00  0.00    +0.000 A 
ATOM      2  C   UNL     1       6.207   4.660  17.096  0.00  0.00    +0.000 A 
ATOM      3  C   UNL     1       7.075   5.242  16.171  0.00  0.00    +0.000 A 
ATOM      4  C   UNL     1       7.004   4.937  14.825  0.00  0.00    +0.000 A 
ATOM      5  N   UNL     1       7.877   5.510  13.983  0.00  0.00    +0.000 NA
ATOM      6  C   UNL     1       7.833   5.140  12.686  0.00  0.00    +0.000 A 
ATOM      7  C   UNL     1       6.951   4.201  12.180  0.00  0.00    +0.000 A 
ATOM      8  C   UNL     1       6.036   3.627  13.055  0.00  0.00    +0.000 A 
ATOM      9  C   UNL     1       6.034   4.001  14.404  0.00  0.00    +0.000 A 
ATOM     10  C   UNL     1       5.108   3.483  15.322  0.00  0.00    +0.000 A 
ENDROOT
BRANCH   1  15
ATOM     11  C   UNL     1       1.734   4.881  19.979  0.00  0.00    +0.000 C 
ATOM     12  C   UNL     1       2.694   6.023  19.628  0.00  0.00    +0.000 C 
ATOM     13  C   UNL     1       3.133   5.709  18.214  0.00  0.00    +0.000 C 
ATOM     14  N   UNL     1       3.243   4.260  18.236  0.00  0.00    +0.000 N 
ATOM     15  C   UNL     1       4.069   3.375  17.568  0.00  0.00    +0.000 C 
ATOM     16  O   UNL     1       3.909   2.152  17.646  0.00  0.00    +0.000 OA
ATOM     17  C   UNL     1       2.128   3.745  19.016  0.00  0.00    +0.000 C 
BRANCH  11  19
ATOM     18  C   UNL     1       1.914   3.130  21.575  0.00  0.00    +0.000 C 
ATOM     19  O   UNL     1       1.933   4.533  21.350  0.00  0.00    +0.000 OA
ENDBRANCH  11  19
ENDBRANCH   1  15
TORSDOF 2
ENDMDL
MODEL 2
REMARK VINA RESULT:      -7.6      3.641      7.061
REMARK  Name = 
REMARK  3 active torsions:
REMARK  status: ('A' for Active; 'I' for Inactive)
REMARK    1  A    between atoms: C_1  and  O_2
REMARK    2  A    between atoms: O_2  and  C_3
REMARK    3  A    between atoms: C_7  and  C_9
REMARK                            x       y       z     vdW  Elec       q    Type
REMARK                         _______ _______ _______ _____ _____    ______ ____
ROOT
ATOM      1  C   UNL     1       2.610   7.138  18.572  0.00  0.00    +0.000 A 
ATOM      2  C   UNL     1       2.211   8.104  17.657  0.00  0.00    +0.000 A 
ATOM      3  C   UNL     1       1.580   9.272  18.090  0.00  0.00    +0.000 A 
ATOM      4  C   UNL     1       1.206   9.442  19.409  0.00  0.00    +0.000 A 
ATOM      5  N   UNL     1       0.584  10.577  19.766  0.00  0.00    +0.000 NA
ATOM      6  C   UNL     1       0.166  10.687  21.044  0.00  0.00    +0.000 A 
ATOM      7  C   UNL     1       0.331   9.700  21.999  0.00  0.00    +0.000 A 
ATOM      8  C   UNL     1       0.995   8.536  21.627  0.00  0.00    +0.000 A 
ATOM      9  C   UNL     1       1.464   8.392  20.317  0.00  0.00    +0.000 A 
ATOM     10  C   UNL     1       2.175   7.256  19.897  0.00  0.00    +0.000 A 
ENDROOT
BRANCH   1  15
ATOM     11  C   UNL     1       2.945   2.358  17.726  0.00  0.00    +0.000 C 
ATOM     12  C   UNL     1       1.612   2.850  18.299  0.00  0.00    +0.000 C 
ATOM     13  C   UNL     1       1.520   4.286  17.831  0.00  0.00    +0.000 C 
ATOM     14  N   UNL     1       2.899   4.736  17.936  0.00  0.00    +0.000 N 
ATOM     15  C   UNL     1       3.461   5.967  18.219  0.00  0.00    +0.000 C 
ATOM     16  O   UNL     1       4.680   6.160  18.137  0.00  0.00    +0.000 OA
ATOM     17  C   UNL     1       3.754   3.648  17.487  0.00  0.00    +0.000 C 
BRANCH  11  19
ATOM     18  C   UNL     1       4.235   2.207  19.716  0.00  0.00    +0.000 C 
ATOM     19  O   UNL     1       3.557   1.498  18.689  0.00  0.00    +0.000 OA
ENDBRANCH  11  19
ENDBRANCH   1  15
TORSDOF 2
ENDMDL
MODEL 3
REMARK VINA RESULT:      -7.5      1.572      2.144
REMARK  Name = 
REMARK  3 active torsions:
REMARK  status: ('A' for Active; 'I' for Inactive)
REMARK    1  A    between atoms: C_1  and  O_2
REMARK    2  A    between atoms: O_2  and  C_3
REMARK    3  A    between atoms: C_7  and  C_9
REMARK                            x       y       z     vdW  Elec       q    Type
REMARK                         _______ _______ _______ _____ _____    ______ ____
ROOT
ATOM      1  C   UNL     1       4.974   5.550  17.603  0.00  0.00    +0.000 A 
ATOM      2  C   UNL     1       6.241   6.091  17.783  0.00  0.00    +0.000 A 
ATOM      3  C   UNL     1       7.157   6.116  16.730  0.00  0.00    +0.000 A 
ATOM      4  C   UNL     1       6.893   5.484  15.530  0.00  0.00    +0.000 A 
ATOM      5  N   UNL     1       7.818   5.522  14.559  0.00  0.00    +0.000 NA
ATOM      6  C   UNL     1       7.565   4.836  13.425  0.00  0.00    +0.000 A 
ATOM      7  C   UNL     1       6.419   4.091  13.211  0.00  0.00    +0.000 A 
ATOM      8  C   UNL     1       5.455   4.074  14.214  0.00  0.00    +0.000 A 
ATOM      9  C   UNL     1       5.670   4.791  15.396  0.00  0.00    +0.000 A 
ATOM     10  C   UNL     1       4.715   4.840  16.424  0.00  0.00    +0.000 A 
ENDROOT
BRANCH   1  15
ATOM     11  C   UNL     1       2.237   3.425  21.019  0.00  0.00    +0.000 C 
ATOM     12  C   UNL     1       3.130   2.492  20.192  0.00  0.00    +0.000 C 
ATOM     13  C   UNL     1       4.281   3.376  19.761  0.00  0.00    +0.000 C 
ATOM     14  N   UNL     1       3.619   4.644  19.500  0.00  0.00    +0.000 N 
ATOM     15  C   UNL     1       3.877   5.665  18.604  0.00  0.00    +0.000 C 
ATOM     16  O   UNL     1       3.248   6.729  18.633  0.00  0.00    +0.000 OA
ATOM     17  C   UNL     1       2.614   4.838  20.534  0.00  0.00    +0.000 C 
BRANCH  11  19
ATOM     18  C   UNL     1       0.663   2.657  19.413  0.00  0.00    +0.000 C 
ATOM     19  O   UNL     1       0.874   3.098  20.748  0.00  0.00    +0.000 OA
ENDBRANCH  11  19
ENDBRANCH   1  15
TORSDOF 2
ENDMDL
MODEL 4
REMARK VINA RESULT:      -7.3      2.961      6.976
REMARK  Name = 
REMARK  3 active torsions:
REMARK  status: ('A' for Active; 'I' for Inactive)
REMARK    1  A    between atoms: C_1  and  O_2
REMARK    2  A    between atoms: O_2  and  C_3
REMARK    3  A    between atoms: C_7  and  C_9
REMARK                            x       y       z     vdW  Elec       q    Type
REMARK                         _______ _______ _______ _____ _____    ______ ____
ROOT
ATOM      1  C   UNL     1       3.061   6.324  18.511  0.00  0.00    +0.000 A 
ATOM      2  C   UNL     1       2.676   6.156  19.835  0.00  0.00    +0.000 A 
ATOM      3  C   UNL     1       1.861   7.101  20.462  0.00  0.00    +0.000 A 
ATOM      4  C   UNL     1       1.530   8.291  19.842  0.00  0.00    +0.000 A 
ATOM      5  N   UNL     1       0.760   9.172  20.499  0.00  0.00    +0.000 NA
ATOM      6  C   UNL     1       0.511  10.355  19.901  0.00  0.00    +0.000 A 
ATOM      7  C   UNL     1       1.010  10.715  18.661  0.00  0.00    +0.000 A 
ATOM      8  C   UNL     1       1.790   9.788  17.978  0.00  0.00    +0.000 A 
ATOM      9  C   UNL     1       2.052   8.541  18.555  0.00  0.00    +0.000 A 
ATOM     10  C   UNL     1       2.800   7.554  17.893  0.00  0.00    +0.000 A 
ENDROOT
BRANCH   1  15
ATOM     11  C   UNL     1       7.191   4.658  16.552  0.00  0.00    +0.000 C 
ATOM     12  C   UNL     1       7.242   6.077  17.129  0.00  0.00    +0.000 C 
ATOM     13  C   UNL     1       6.177   6.073  18.204  0.00  0.00    +0.000 C 
ATOM     14  N   UNL     1       5.133   5.257  17.605  0.00  0.00    +0.000 N 
ATOM     15  C   UNL     1       3.755   5.275  17.713  0.00  0.00    +0.000 C 
ATOM     16  O   UNL     1       3.051   4.397  17.201  0.00  0.00    +0.000 OA
ATOM     17  C   UNL     1       5.779   4.154  16.910  0.00  0.00    +0.000 C 
BRANCH  11  19
ATOM     18  C   UNL     1       6.390   4.086  14.389  0.00  0.00    +0.000 C 
ATOM     19  O   UNL     1       7.403   4.739  15.143  0.00  0.00    +0.000 OA
ENDBRANCH  11  19
ENDBRANCH   1  15
TORSDOF 2
ENDMDL
MODEL 5
REMARK VINA RESULT:      -7.2      1.261      1.449
REMARK  Name = 
REMARK  3 active torsions:
REMARK  status: ('A' for Active; 'I' for Inactive)
REMARK    1  A    between atoms: C_1  and  O_2
REMARK    2  A    between atoms: O_2  and  C_3
REMARK    3  A    between atoms: C_7  and  C_9
REMARK                            x       y       z     vdW  Elec       q    Type
REMARK                         _______ _______ _______ _____ _____    ______ ____
ROOT
ATOM      1  C   UNL     1       5.704   4.142  17.362  0.00  0.00    +0.000 A 
ATOM      2  C   UNL     1       6.758   5.044  17.443  0.00  0.00    +0.000 A 
ATOM      3  C   UNL     1       7.369   5.525  16.284  0.00  0.00    +0.000 A 
ATOM      4  C   UNL     1       7.048   5.022  15.038  0.00  0.00    +0.000 A 
ATOM      5  N   UNL     1       7.682   5.507  13.959  0.00  0.00    +0.000 NA
ATOM      6  C   UNL     1       7.402   4.948  12.763  0.00  0.00    +0.000 A 
ATOM      7  C   UNL     1       6.513   3.902  12.588  0.00  0.00    +0.000 A 
ATOM      8  C   UNL     1       5.845   3.419  13.708  0.00  0.00    +0.000 A 
ATOM      9  C   UNL     1       6.090   3.987  14.963  0.00  0.00    +0.000 A 
ATOM     10  C   UNL     1       5.416   3.565  16.119  0.00  0.00    +0.000 A 
ENDROOT
BRANCH   1  15
ATOM     11  C   UNL     1       1.276   3.495  19.272  0.00  0.00    +0.000 C 
ATOM     12  C   UNL     1       1.329   4.213  17.919  0.00  0.00    +0.000 C 
ATOM     13  C   UNL     1       2.596   3.691  17.277  0.00  0.00    +0.000 C 
ATOM     14  N   UNL     1       3.501   3.592  18.411  0.00  0.00    +0.000 N 
ATOM     15  C   UNL     1       4.871   3.738  18.529  0.00  0.00    +0.000 C 
ATOM     16  O   UNL     1       5.463   3.487  19.585  0.00  0.00    +0.000 OA
ATOM     17  C   UNL     1       2.737   3.088  19.542  0.00  0.00    +0.000 C 
BRANCH  11  19
ATOM     18  C   UNL     1       1.714   5.408  20.611  0.00  0.00    +0.000 C 
ATOM     19  O   UNL     1       0.772   4.409  20.245  0.00  0.00    +0.000 OA
ENDBRANCH  11  19
ENDBRANCH   1  15
TORSDOF 2
ENDMDL
MODEL 6
REMARK VINA RESULT:      -7.1      2.979      7.205
REMARK  Name = 
REMARK  3 active torsions:
REMARK  status: ('A' for Active; 'I' for Inactive)
REMARK    1  A    between atoms: C_1  and  O_2
REMARK    2  A    between atoms: O_2  and  C_3
REMARK    3  A    between atoms: C_7  and  C_9
REMARK                            x       y       z     vdW  Elec       q    Type
REMARK                         _______ _______ _______ _____ _____    ______ ____
ROOT
ATOM      1  C   UNL     1       3.024   6.693  18.226  0.00  0.00    +0.000 A 
ATOM      2  C   UNL     1       2.779   7.761  17.372  0.00  0.00    +0.000 A 
ATOM      3  C   UNL     1       2.166   8.922  17.848  0.00  0.00    +0.000 A 
ATOM      4  C   UNL     1       1.657   8.995  19.130  0.00  0.00    +0.000 A 
ATOM      5  N   UNL     1       1.059  10.129  19.527  0.00  0.00    +0.000 NA
ATOM      6  C   UNL     1       0.507  10.148  20.758  0.00  0.00    +0.000 A 
ATOM      7  C   UNL     1       0.513   9.069  21.626  0.00  0.00    +0.000 A 
ATOM      8  C   UNL     1       1.153   7.905  21.214  0.00  0.00    +0.000 A 
ATOM      9  C   UNL     1       1.757   7.852  19.953  0.00  0.00    +0.000 A 
ATOM     10  C   UNL     1       2.450   6.717  19.503  0.00  0.00    +0.000 A 
ENDROOT
BRANCH   1  15
ATOM     11  C   UNL     1       7.411   4.840  17.235  0.00  0.00    +0.000 C 
ATOM     12  C   UNL     1       7.333   6.366  17.347  0.00  0.00    +0.000 C 
ATOM     13  C   UNL     1       6.163   6.605  18.276  0.00  0.00    +0.000 C 
ATOM     14  N   UNL     1       5.229   5.566  17.873  0.00  0.00    +0.000 N 
ATOM     15  C   UNL     1       3.847   5.509  17.853  0.00  0.00    +0.000 C 
ATOM     16  O   UNL     1       3.244   4.464  17.580  0.00  0.00    +0.000 OA
ATOM     17  C   UNL     1       5.997   4.359  17.611  0.00  0.00    +0.000 C 
BRANCH  11  19
ATOM     18  C   UNL     1       6.653   4.504  15.008  0.00  0.00    +0.000 C 
ATOM     19  O   UNL     1       7.765   4.506  15.892  0.00  0.00    +0.000 OA
ENDBRANCH  11  19
ENDBRANCH   1  15
TORSDOF 2
ENDMDL
MODEL 7
REMARK VINA RESULT:      -7.0      1.590      2.010
REMARK  Name = 
REMARK  3 active torsions:
REMARK  status: ('A' for Active; 'I' for Inactive)
REMARK    1  A    between atoms: C_1  and  O_2
REMARK    2  A    between atoms: O_2  and  C_3
REMARK    3  A    between atoms: C_7  and  C_9
REMARK                            x       y       z     vdW  Elec       q    Type
REMARK                         _______ _______ _______ _____ _____    ______ ____
ROOT
ATOM      1  C   UNL     1       5.630   4.617  17.482  0.00  0.00    +0.000 A 
ATOM      2  C   UNL     1       6.818   5.336  17.483  0.00  0.00    +0.000 A 
ATOM      3  C   UNL     1       7.477   5.618  16.284  0.00  0.00    +0.000 A 
ATOM      4  C   UNL     1       7.053   5.077  15.086  0.00  0.00    +0.000 A 
ATOM      5  N   UNL     1       7.736   5.365  13.966  0.00  0.00    +0.000 NA
ATOM      6  C   UNL     1       7.345   4.767  12.822  0.00  0.00    +0.000 A 
ATOM      7  C   UNL     1       6.294   3.871  12.738  0.00  0.00    +0.000 A 
ATOM      8  C   UNL     1       5.578   3.594  13.898  0.00  0.00    +0.000 A 
ATOM      9  C   UNL     1       5.938   4.211  15.101  0.00  0.00    +0.000 A 
ATOM     10  C   UNL     1       5.227   3.998  16.292  0.00  0.00    +0.000 A 
ENDROOT
BRANCH   1  15
ATOM     11  C   UNL     1       1.970   2.265  19.661  0.00  0.00    +0.000 C 
ATOM     12  C   UNL     1       2.169   1.970  18.170  0.00  0.00    +0.000 C 
ATOM     13  C   UNL     1       3.643   2.228  17.940  0.00  0.00    +0.000 C 
ATOM     14  N   UNL     1       3.893   3.380  18.791  0.00  0.00    +0.000 N 
ATOM     15  C   UNL     1       4.766   4.448  18.684  0.00  0.00    +0.000 C 
ATOM     16  O   UNL     1       4.903   5.269  19.598  0.00  0.00    +0.000 OA
ATOM     17  C   UNL     1       3.149   3.188  20.026  0.00  0.00    +0.000 C 
BRANCH  11  19
ATOM     18  C   UNL     1       0.806   4.215  20.361  0.00  0.00    +0.000 C 
ATOM     19  O   UNL     1       0.703   2.902  19.827  0.00  0.00    +0.000 OA
ENDBRANCH  11  19
ENDBRANCH   1  15
TORSDOF 2
ENDMDL
MODEL 8
REMARK VINA RESULT:      -6.9      3.131      7.457
REMARK  Name = 
REMARK  3 active torsions:
REMARK  status: ('A' for Active; 'I' for Inactive)
REMARK    1  A    between atoms: C_1  and  O_2
REMARK    2  A    between atoms: O_2  and  C_3
REMARK    3  A    between atoms: C_7  and  C_9
REMARK                            x       y       z     vdW  Elec       q    Type
REMARK                         _______ _______ _______ _____ _____    ______ ____
ROOT
ATOM      1  C   UNL     1       2.591   6.859  18.845  0.00  0.00    +0.000 A 
ATOM      2  C   UNL     1       2.278   7.729  17.808  0.00  0.00    +0.000 A 
ATOM      3  C   UNL     1       1.710   8.976  18.078  0.00  0.00    +0.000 A 
ATOM      4  C   UNL     1       1.313   9.326  19.354  0.00  0.00    +0.000 A 
ATOM      5  N   UNL     1       0.754  10.530  19.552  0.00  0.00    +0.000 NA
ATOM      6  C   UNL     1       0.309  10.818  20.793  0.00  0.00    +0.000 A 
ATOM      7  C   UNL     1       0.386   9.945  21.864  0.00  0.00    +0.000 A 
ATOM      8  C   UNL     1       0.986   8.708  21.655  0.00  0.00    +0.000 A 
ATOM      9  C   UNL     1       1.480   8.380  20.388  0.00  0.00    +0.000 A 
ATOM     10  C   UNL     1       2.128   7.162  20.131  0.00  0.00    +0.000 A 
ENDROOT
BRANCH   1  15
ATOM     11  C   UNL     1       6.257   4.548  16.633  0.00  0.00    +0.000 C 
ATOM     12  C   UNL     1       5.903   5.934  16.082  0.00  0.00    +0.000 C 
ATOM     13  C   UNL     1       5.300   6.655  17.269  0.00  0.00    +0.000 C 
ATOM     14  N   UNL     1       4.546   5.599  17.924  0.00  0.00    +0.000 N 
ATOM     15  C   UNL     1       3.376   5.606  18.662  0.00  0.00    +0.000 C 
ATOM     16  O   UNL     1       2.968   4.593  19.242  0.00  0.00    +0.000 OA
ATOM     17  C   UNL     1       5.343   4.384  17.862  0.00  0.00    +0.000 C 
BRANCH  11  19
ATOM     18  C   UNL     1       6.107   4.107  14.303  0.00  0.00    +0.000 C 
ATOM     19  O   UNL     1       5.990   3.581  15.617  0.00  0.00    +0.000 OA
ENDBRANCH  11  19
ENDBRANCH   1  15
TORSDOF 2
ENDMDL
MODEL 9
REMARK VINA RESULT:      -6.9      2.486      6.930
REMARK  Name = 
REMARK  3 active torsions:
REMARK  status: ('A' for Active; 'I' for Inactive)
REMARK    1  A    between atoms: C_1  and  O_2
REMARK    2  A    between atoms: O_2  and  C_3
REMARK    3  A    between atoms: C_7  and  C_9
REMARK                            x       y       z     vdW  Elec       q    Type
REMARK                         _______ _______ _______ _____ _____    ______ ____
ROOT
ATOM      1  C   UNL     1       5.143   4.626  16.120  0.00  0.00    +0.000 A 
ATOM      2  C   UNL     1       4.774   5.853  16.657  0.00  0.00    +0.000 A 
ATOM      3  C   UNL     1       3.810   5.926  17.664  0.00  0.00    +0.000 A 
ATOM      4  C   UNL     1       3.094   4.811  18.057  0.00  0.00    +0.000 A 
ATOM      5  N   UNL     1       2.164   4.943  19.016  0.00  0.00    +0.000 NA
ATOM      6  C   UNL     1       1.429   3.855  19.329  0.00  0.00    +0.000 A 
ATOM      7  C   UNL     1       1.571   2.623  18.716  0.00  0.00    +0.000 A 
ATOM      8  C   UNL     1       2.551   2.490  17.739  0.00  0.00    +0.000 A 
ATOM      9  C   UNL     1       3.350   3.588  17.400  0.00  0.00    +0.000 A 
ATOM     10  C   UNL     1       4.378   3.500  16.449  0.00  0.00    +0.000 A 
ENDROOT
BRANCH   1  15
ATOM     11  C   UNL     1       6.757   3.411  11.694  0.00  0.00    +0.000 C 
ATOM     12  C   UNL     1       5.276   3.128  11.974  0.00  0.00    +0.000 C 
ATOM     13  C   UNL     1       4.901   4.151  13.025  0.00  0.00    +0.000 C 
ATOM     14  N   UNL     1       6.099   4.204  13.848  0.00  0.00    +0.000 N 
ATOM     15  C   UNL     1       6.296   4.441  15.196  0.00  0.00    +0.000 C 
ATOM     16  O   UNL     1       7.429   4.564  15.675  0.00  0.00    +0.000 OA
ATOM     17  C   UNL     1       7.249   4.141  12.959  0.00  0.00    +0.000 C 
BRANCH  11  19
ATOM     18  C   UNL     1       6.548   1.138  11.035  0.00  0.00    +0.000 C 
ATOM     19  O   UNL     1       7.420   2.164  11.488  0.00  0.00    +0.000 OA
ENDBRANCH  11  19
ENDBRANCH   1  15
TORSDOF 2
ENDMDL
