MODEL 1
REMARK VINA RESULT:      -6.6      0.000      0.000
REMARK  Name = 
REMARK  1 active torsions:
REMARK  status: ('A' for Active; 'I' for Inactive)
REMARK    1  A    between atoms: N_5  and  C_6
REMARK                            x       y       z     vdW  Elec       q    Type
REMARK                         _______ _______ _______ _____ _____    ______ ____
ROOT
ATOM      1  O   UNL     1       7.958   4.392  16.551  0.00  0.00    +0.000 OA
ATOM      2  C   UNL     1       6.901   4.607  17.128  0.00  0.00    +0.000 C 
ATOM      3  N   UNL     1       6.729   4.332  18.443  0.00  0.00    +0.000 N 
ATOM      4  C   UNL     1       5.634   4.870  19.184  0.00  0.00    +0.000 C 
ATOM      5  N   UNL     1       4.417   4.809  18.383  0.00  0.00    +0.000 NA
ATOM      6  C   UNL     1       4.670   5.589  17.181  0.00  0.00    +0.000 C 
ATOM      7  N   UNL     1       5.812   5.089  16.487  0.00  0.00    +0.000 N 
ATOM      8  H   UNL     1       7.563   4.031  18.924  0.00  0.00    +0.000 HD
ATOM      9  H   UNL     1       5.990   5.389  15.539  0.00  0.00    +0.000 HD
ENDROOT
BRANCH   5  10
ATOM     10  C   UNL     1       3.917   3.427  18.174  0.00  0.00    +0.000 C 
ATOM     11  C   UNL     1       3.605   2.730  19.524  0.00  0.00    +0.000 C 
ATOM     12  C   UNL     1       2.404   3.341  20.249  0.00  0.00    +0.000 C 
ATOM     13  C   UNL     1       1.154   3.354  19.374  0.00  0.00    +0.000 C 
ATOM     14  C   UNL     1       1.411   3.949  17.992  0.00  0.00    +0.000 C 
ATOM     15  C   UNL     1       2.630   3.318  17.321  0.00  0.00    +0.000 C 
ENDBRANCH   5  10
TORSDOF 1
ENDMDL
MODEL 2
REMARK VINA RESULT:      -6.3      1.191      1.257
REMARK  Name = 
REMARK  1 active torsions:
REMARK  status: ('A' for Active; 'I' for Inactive)
REMARK    1  A    between atoms: N_5  and  C_6
REMARK                            x       y       z     vdW  Elec       q    Type
REMARK                         _______ _______ _______ _____ _____    ______ ____
ROOT
ATOM      1  O   UNL     1       7.852   4.408  18.135  0.00  0.00    +0.000 OA
ATOM      2  C   UNL     1       6.636   4.504  18.220  0.00  0.00    +0.000 C 
ATOM      3  N   UNL     1       6.027   5.024  19.312  0.00  0.00    +0.000 N 
ATOM      4  C   UNL     1       4.659   5.432  19.285  0.00  0.00    +0.000 C 
ATOM      5  N   UNL     1       3.865   4.454  18.552  0.00  0.00    +0.000 NA
ATOM      6  C   UNL     1       4.419   4.390  17.208  0.00  0.00    +0.000 C 
ATOM      7  N   UNL     1       5.806   4.054  17.250  0.00  0.00    +0.000 N 
ATOM      8  H   UNL     1       6.655   5.411  20.001  0.00  0.00    +0.000 HD
ATOM      9  H   UNL     1       6.277   3.773  16.402  0.00  0.00    +0.000 HD
ENDROOT
BRANCH   5  10
ATOM     10  C   UNL     1       3.721   3.159  19.263  0.00  0.00    +0.000 C 
ATOM     11  C   UNL     1       3.029   3.345  20.638  0.00  0.00    +0.000 C 
ATOM     12  C   UNL     1       1.557   3.747  20.517  0.00  0.00    +0.000 C 
ATOM     13  C   UNL     1       0.762   2.759  19.668  0.00  0.00    +0.000 C 
ATOM     14  C   UNL     1       1.434   2.461  18.331  0.00  0.00    +0.000 C 
ATOM     15  C   UNL     1       2.904   2.083  18.507  0.00  0.00    +0.000 C 
ENDBRANCH   5  10
TORSDOF 1
ENDMDL
MODEL 3
REMARK VINA RESULT:      -6.2      1.069      1.206
REMARK  Name = 
REMARK  1 active torsions:
REMARK  status: ('A' for Active; 'I' for Inactive)
REMARK    1  A    between atoms: N_5  and  C_6
REMARK                            x       y       z     vdW  Elec       q    Type
REMARK                         _______ _______ _______ _____ _____    ______ ____
ROOT
ATOM      1  O   UNL     1       6.666   4.136  16.093  0.00  0.00    +0.000 OA
ATOM      2  C   UNL     1       5.828   4.332  16.962  0.00  0.00    +0.000 C 
ATOM      3  N   UNL     1       6.090   4.130  18.275  0.00  0.00    +0.000 N 
ATOM      4  C   UNL     1       5.244   4.656  19.298  0.00  0.00    +0.000 C 
ATOM      5  N   UNL     1       3.846   4.483  18.922  0.00  0.00    +0.000 NA
ATOM      6  C   UNL     1       3.660   5.199  17.669  0.00  0.00    +0.000 C 
ATOM      7  N   UNL     1       4.563   4.716  16.674  0.00  0.00    +0.000 N 
ATOM      8  H   UNL     1       7.051   3.903  18.484  0.00  0.00    +0.000 HD
ATOM      9  H   UNL     1       4.418   4.966  15.707  0.00  0.00    +0.000 HD
ENDROOT
BRANCH   5  10
ATOM     10  C   UNL     1       3.402   3.066  18.940  0.00  0.00    +0.000 C 
ATOM     11  C   UNL     1       3.589   2.434  20.343  0.00  0.00    +0.000 C 
ATOM     12  C   UNL     1       2.645   3.022  21.395  0.00  0.00    +0.000 C 
ATOM     13  C   UNL     1       1.183   2.918  20.973  0.00  0.00    +0.000 C 
ATOM     14  C   UNL     1       0.941   3.445  19.561  0.00  0.00    +0.000 C 
ATOM     15  C   UNL     1       1.919   2.841  18.555  0.00  0.00    +0.000 C 
ENDBRANCH   5  10
TORSDOF 1
ENDMDL
MODEL 4
REMARK VINA RESULT:      -6.2      1.544      2.369
REMARK  Name = 
REMARK  1 active torsions:
REMARK  status: ('A' for Active; 'I' for Inactive)
REMARK    1  A    between atoms: N_5  and  C_6
REMARK                            x       y       z     vdW  Elec       q    Type
REMARK                         _______ _______ _______ _____ _____    ______ ____
ROOT
ATOM      1  O   UNL     1       6.244   6.731  16.259  0.00  0.00    +0.000 OA
ATOM      2  C   UNL     1       5.635   5.905  16.924  0.00  0.00    +0.000 C 
ATOM      3  N   UNL     1       4.863   4.949  16.356  0.00  0.00    +0.000 N 
ATOM      4  C   UNL     1       4.423   3.807  17.091  0.00  0.00    +0.000 C 
ATOM      5  N   UNL     1       4.008   4.209  18.430  0.00  0.00    +0.000 NA
ATOM      6  C   UNL     1       5.169   4.822  19.059  0.00  0.00    +0.000 C 
ATOM      7  N   UNL     1       5.648   5.916  18.277  0.00  0.00    +0.000 N 
ATOM      8  H   UNL     1       4.909   4.912  15.349  0.00  0.00    +0.000 HD
ATOM      9  H   UNL     1       6.310   6.563  18.679  0.00  0.00    +0.000 HD
ENDROOT
BRANCH   5  10
ATOM     10  C   UNL     1       2.757   5.009  18.445  0.00  0.00    +0.000 C 
ATOM     11  C   UNL     1       1.565   4.201  17.872  0.00  0.00    +0.000 C 
ATOM     12  C   UNL     1       1.146   3.035  18.771  0.00  0.00    +0.000 C 
ATOM     13  C   UNL     1       0.824   3.494  20.190  0.00  0.00    +0.000 C 
ATOM     14  C   UNL     1       1.922   4.371  20.786  0.00  0.00    +0.000 C 
ATOM     15  C   UNL     1       2.315   5.507  19.842  0.00  0.00    +0.000 C 
ENDBRANCH   5  10
TORSDOF 1
ENDMDL
MODEL 5
REMARK VINA RESULT:      -6.0      3.378      4.938
REMARK  Name = 
REMARK  1 active torsions:
REMARK  status: ('A' for Active; 'I' for Inactive)
REMARK    1  A    between atoms: N_5  and  C_6
REMARK                            x       y       z     vdW  Elec       q    Type
REMARK                         _______ _______ _______ _____ _____    ______ ____
ROOT
ATOM      1  O   UNL     1       1.358   2.311  22.488  0.00  0.00    +0.000 OA
ATOM      2  C   UNL     1       1.727   2.771  21.416  0.00  0.00    +0.000 C 
ATOM      3  N   UNL     1       2.964   2.537  20.918  0.00  0.00    +0.000 N 
ATOM      4  C   UNL     1       3.282   2.790  19.550  0.00  0.00    +0.000 C 
ATOM      5  N   UNL     1       2.684   4.051  19.128  0.00  0.00    +0.000 NA
ATOM      6  C   UNL     1       1.248   3.915  19.316  0.00  0.00    +0.000 C 
ATOM      7  N   UNL     1       0.945   3.587  20.672  0.00  0.00    +0.000 N 
ATOM      8  H   UNL     1       3.516   1.879  21.450  0.00  0.00    +0.000 HD
ATOM      9  H   UNL     1      -0.006   3.661  21.003  0.00  0.00    +0.000 HD
ENDROOT
BRANCH   5  10
ATOM     10  C   UNL     1       3.316   5.241  19.753  0.00  0.00    +0.000 C 
ATOM     11  C   UNL     1       4.781   5.417  19.276  0.00  0.00    +0.000 C 
ATOM     12  C   UNL     1       4.886   5.805  17.799  0.00  0.00    +0.000 C 
ATOM     13  C   UNL     1       4.083   7.062  17.478  0.00  0.00    +0.000 C 
ATOM     14  C   UNL     1       2.650   6.993  17.999  0.00  0.00    +0.000 C 
ATOM     15  C   UNL     1       2.602   6.585  19.471  0.00  0.00    +0.000 C 
ENDBRANCH   5  10
TORSDOF 1
ENDMDL
MODEL 6
REMARK VINA RESULT:      -5.9      2.894      4.692
REMARK  Name = 
REMARK  1 active torsions:
REMARK  status: ('A' for Active; 'I' for Inactive)
REMARK    1  A    between atoms: N_5  and  C_6
REMARK                            x       y       z     vdW  Elec       q    Type
REMARK                         _______ _______ _______ _____ _____    ______ ____
ROOT
ATOM      1  O   UNL     1       0.190   2.169  18.871  0.00  0.00    +0.000 OA
ATOM      2  C   UNL     1       1.401   2.335  18.887  0.00  0.00    +0.000 C 
ATOM      3  N   UNL     1       2.030   2.961  19.911  0.00  0.00    +0.000 N 
ATOM      4  C   UNL     1       3.443   2.870  20.090  0.00  0.00    +0.000 C 
ATOM      5  N   UNL     1       4.114   2.986  18.801  0.00  0.00    +0.000 NA
ATOM      6  C   UNL     1       3.620   1.896  17.974  0.00  0.00    +0.000 C 
ATOM      7  N   UNL     1       2.198   1.951  17.863  0.00  0.00    +0.000 N 
ATOM      8  H   UNL     1       1.436   3.188  20.695  0.00  0.00    +0.000 HD
ATOM      9  H   UNL     1       1.730   1.393  17.164  0.00  0.00    +0.000 HD
ENDROOT
BRANCH   5  10
ATOM     10  C   UNL     1       4.027   4.346  18.211  0.00  0.00    +0.000 C 
ATOM     11  C   UNL     1       4.687   5.404  19.133  0.00  0.00    +0.000 C 
ATOM     12  C   UNL     1       6.207   5.251  19.225  0.00  0.00    +0.000 C 
ATOM     13  C   UNL     1       6.870   5.278  17.851  0.00  0.00    +0.000 C 
ATOM     14  C   UNL     1       6.210   4.319  16.863  0.00  0.00    +0.000 C 
ATOM     15  C   UNL     1       4.694   4.502  16.823  0.00  0.00    +0.000 C 
ENDBRANCH   5  10
TORSDOF 1
ENDMDL
MODEL 7
REMARK VINA RESULT:      -5.8      1.565      1.926
REMARK  Name = 
REMARK  1 active torsions:
REMARK  status: ('A' for Active; 'I' for Inactive)
REMARK    1  A    between atoms: N_5  and  C_6
REMARK                            x       y       z     vdW  Elec       q    Type
REMARK                         _______ _______ _______ _____ _____    ______ ____
ROOT
ATOM      1  O   UNL     1       5.602   6.660  15.230  0.00  0.00    +0.000 OA
ATOM      2  C   UNL     1       5.193   6.055  16.211  0.00  0.00    +0.000 C 
ATOM      3  N   UNL     1       5.577   4.787  16.489  0.00  0.00    +0.000 N 
ATOM      4  C   UNL     1       5.368   4.205  17.776  0.00  0.00    +0.000 C 
ATOM      5  N   UNL     1       4.044   4.563  18.271  0.00  0.00    +0.000 NA
ATOM      6  C   UNL     1       4.004   6.016  18.341  0.00  0.00    +0.000 C 
ATOM      7  N   UNL     1       4.290   6.590  17.065  0.00  0.00    +0.000 N 
ATOM      8  H   UNL     1       6.296   4.421  15.882  0.00  0.00    +0.000 HD
ATOM      9  H   UNL     1       4.099   7.569  16.905  0.00  0.00    +0.000 HD
ENDROOT
BRANCH   5  10
ATOM     10  C   UNL     1       2.938   3.913  17.523  0.00  0.00    +0.000 C 
ATOM     11  C   UNL     1       3.003   2.369  17.650  0.00  0.00    +0.000 C 
ATOM     12  C   UNL     1       2.696   1.872  19.065  0.00  0.00    +0.000 C 
ATOM     13  C   UNL     1       1.346   2.376  19.568  0.00  0.00    +0.000 C 
ATOM     14  C   UNL     1       1.179   3.882  19.391  0.00  0.00    +0.000 C 
ATOM     15  C   UNL     1       1.515   4.327  17.969  0.00  0.00    +0.000 C 
ENDBRANCH   5  10
TORSDOF 1
ENDMDL
MODEL 8
REMARK VINA RESULT:      -5.8      2.370      4.793
REMARK  Name = 
REMARK  1 active torsions:
REMARK  status: ('A' for Active; 'I' for Inactive)
REMARK    1  A    between atoms: N_5  and  C_6
REMARK                            x       y       z     vdW  Elec       q    Type
REMARK                         _______ _______ _______ _____ _____    ______ ____
ROOT
ATOM      1  O   UNL     1       2.579   1.776  17.495  0.00  0.00    +0.000 OA
ATOM      2  C   UNL     1       3.206   2.755  17.875  0.00  0.00    +0.000 C 
ATOM      3  N   UNL     1       2.971   3.995  17.386  0.00  0.00    +0.000 N 
ATOM      4  C   UNL     1       3.459   5.165  18.044  0.00  0.00    +0.000 C 
ATOM      5  N   UNL     1       4.823   4.940  18.506  0.00  0.00    +0.000 NA
ATOM      6  C   UNL     1       4.773   3.808  19.418  0.00  0.00    +0.000 C 
ATOM      7  N   UNL     1       4.213   2.664  18.773  0.00  0.00    +0.000 N 
ATOM      8  H   UNL     1       2.179   4.061  16.764  0.00  0.00    +0.000 HD
ATOM      9  H   UNL     1       4.301   1.756  19.205  0.00  0.00    +0.000 HD
ENDROOT
BRANCH   5  10
ATOM     10  C   UNL     1       5.812   4.847  17.402  0.00  0.00    +0.000 C 
ATOM     11  C   UNL     1       5.755   6.099  16.488  0.00  0.00    +0.000 C 
ATOM     12  C   UNL     1       6.251   7.370  17.183  0.00  0.00    +0.000 C 
ATOM     13  C   UNL     1       7.660   7.202  17.744  0.00  0.00    +0.000 C 
ATOM     14  C   UNL     1       7.811   5.938  18.585  0.00  0.00    +0.000 C 
ATOM     15  C   UNL     1       7.285   4.704  17.853  0.00  0.00    +0.000 C 
ENDBRANCH   5  10
TORSDOF 1
ENDMDL
MODEL 9
REMARK VINA RESULT:      -5.8      2.856      4.741
REMARK  Name = 
REMARK  1 active torsions:
REMARK  status: ('A' for Active; 'I' for Inactive)
REMARK    1  A    between atoms: N_5  and  C_6
REMARK                            x       y       z     vdW  Elec       q    Type
REMARK                         _______ _______ _______ _____ _____    ______ ____
ROOT
ATOM      1  O   UNL     1       0.251   2.224  18.473  0.00  0.00    +0.000 OA
ATOM      2  C   UNL     1       1.422   2.575  18.521  0.00  0.00    +0.000 C 
ATOM      3  N   UNL     1       1.809   3.713  19.144  0.00  0.00    +0.000 N 
ATOM      4  C   UNL     1       3.175   3.957  19.481  0.00  0.00    +0.000 C 
ATOM      5  N   UNL     1       4.037   3.540  18.381  0.00  0.00    +0.000 NA
ATOM      6  C   UNL     1       3.793   2.121  18.175  0.00  0.00    +0.000 C 
ATOM      7  N   UNL     1       2.411   1.879  17.914  0.00  0.00    +0.000 N 
ATOM      8  H   UNL     1       1.074   4.191  19.645  0.00  0.00    +0.000 HD
ATOM      9  H   UNL     1       2.122   0.983  17.550  0.00  0.00    +0.000 HD
ENDROOT
BRANCH   5  10
ATOM     10  C   UNL     1       3.921   4.406  17.181  0.00  0.00    +0.000 C 
ATOM     11  C   UNL     1       4.219   5.889  17.524  0.00  0.00    +0.000 C 
ATOM     12  C   UNL     1       5.685   6.135  17.889  0.00  0.00    +0.000 C 
ATOM     13  C   UNL     1       6.635   5.657  16.795  0.00  0.00    +0.000 C 
ATOM     14  C   UNL     1       6.341   4.228  16.345  0.00  0.00    +0.000 C 
ATOM     15  C   UNL     1       4.863   4.032  16.011  0.00  0.00    +0.000 C 
ENDBRANCH   5  10
TORSDOF 1
ENDMDL
