MODEL 1
REMARK VINA RESULT:      -9.1      0.000      0.000
REMARK  Name = 
REMARK  8 active torsions:
REMARK  status: ('A' for Active; 'I' for Inactive)
REMARK    1  A    between atoms: C_1  and  C_2
REMARK    2  A    between atoms: C_5  and  C_6
REMARK    3  A    between atoms: C_7  and  C_8
REMARK    4  A    between atoms: C_8  and  C_10
REMARK    5  A    between atoms: C_19  and  O_20
REMARK    6  A    between atoms: N_23  and  C_24
REMARK    7  A    between atoms: C_24  and  C_25
REMARK    8  A    between atoms: C_25  and  N_26
REMARK                            x       y       z     vdW  Elec       q    Type
REMARK                         _______ _______ _______ _____ _____    ______ ____
ROOT
ATOM      1  C   UNL     1       3.599   5.948  19.474  0.00  0.00    +0.000 C 
ATOM      2  C   UNL     1       4.469   5.868  18.273  0.00  0.00    +0.000 C 
ATOM      3  C   UNL     1       4.183   6.814  17.362  0.00  0.00    +0.000 C 
ATOM      4  C   UNL     1       3.086   7.632  17.913  0.00  0.00    +0.000 C 
ATOM      5  O   UNL     1       2.671   8.677  17.422  0.00  0.00    +0.000 OA
ATOM      6  N   UNL     1       2.693   7.033  19.096  0.00  0.00    +0.000 N 
ENDROOT
BRANCH   1  11
ATOM      7  C   UNL     1       0.665   2.137  18.722  0.00  0.00    +0.000 C 
ATOM      8  C   UNL     1       1.424   3.078  19.570  0.00  0.00    +0.000 A 
ATOM      9  C   UNL     1       1.492   3.261  20.934  0.00  0.00    +0.000 A 
ATOM     10  C   UNL     1       2.388   4.328  21.144  0.00  0.00    +0.000 A 
ATOM     11  C   UNL     1       2.784   4.767  19.899  0.00  0.00    +0.000 A 
ATOM     12  O   UNL     1       2.223   3.982  18.930  0.00  0.00    +0.000 OA
ENDBRANCH   1  11
BRANCH   2  13
ATOM     13  C   UNL     1       5.556   4.919  18.009  0.00  0.00    +0.000 C 
ATOM     14  O   UNL     1       6.105   4.397  18.987  0.00  0.00    +0.000 OA
BRANCH  13  15
ATOM     15  C   UNL     1       6.008   4.623  16.677  0.00  0.00    +0.000 A 
ATOM     16  C   UNL     1       5.329   3.887  15.731  0.00  0.00    +0.000 A 
ATOM     17  C   UNL     1       6.168   3.810  14.610  0.00  0.00    +0.000 A 
ATOM     18  C   UNL     1       6.050   3.201  13.357  0.00  0.00    +0.000 A 
ATOM     19  C   UNL     1       6.321   4.101  12.330  0.00  0.00    +0.000 A 
ATOM     20  C   UNL     1       7.294   5.092  12.503  0.00  0.00    +0.000 A 
ATOM     21  C   UNL     1       7.864   5.336  13.764  0.00  0.00    +0.000 A 
ATOM     22  C   UNL     1       7.140   4.781  14.817  0.00  0.00    +0.000 A 
ATOM     23  O   UNL     1       7.148   5.164  16.132  0.00  0.00    +0.000 OA
ENDBRANCH  13  15
ENDBRANCH   2  13
BRANCH   3  24
ATOM     24  O   UNL     1       4.789   7.059  16.157  0.00  0.00    +0.000 OA
ATOM     25  H   UNL     1       4.555   7.972  15.878  0.00  0.00    +0.000 HD
ENDBRANCH   3  24
BRANCH   6  26
ATOM     26  C   UNL     1       1.825   7.670  20.085  0.00  0.00    +0.000 C 
BRANCH  26  27
ATOM     27  C   UNL     1       1.287   9.071  19.719  0.00  0.00    +0.000 C 
BRANCH  27  28
ATOM     28  N   UNL     1      -0.086   9.337  20.205  0.00  0.00    +0.000 NA
ATOM     29  C   UNL     1      -0.333  10.801  20.263  0.00  0.00    +0.000 C 
ATOM     30  C   UNL     1       0.400  11.511  21.416  0.00  0.00    +0.000 C 
ATOM     31  O   UNL     1       0.051  10.933  22.681  0.00  0.00    +0.000 OA
ATOM     32  C   UNL     1       0.348   9.533  22.700  0.00  0.00    +0.000 C 
ATOM     33  C   UNL     1      -0.358   8.790  21.552  0.00  0.00    +0.000 C 
ENDBRANCH  27  28
ENDBRANCH  26  27
ENDBRANCH   6  26
TORSDOF 7
ENDMDL
MODEL 2
REMARK VINA RESULT:      -8.9      0.961      1.376
REMARK  Name = 
REMARK  8 active torsions:
REMARK  status: ('A' for Active; 'I' for Inactive)
REMARK    1  A    between atoms: C_1  and  C_2
REMARK    2  A    between atoms: C_5  and  C_6
REMARK    3  A    between atoms: C_7  and  C_8
REMARK    4  A    between atoms: C_8  and  C_10
REMARK    5  A    between atoms: C_19  and  O_20
REMARK    6  A    between atoms: N_23  and  C_24
REMARK    7  A    between atoms: C_24  and  C_25
REMARK    8  A    between atoms: C_25  and  N_26
REMARK                            x       y       z     vdW  Elec       q    Type
REMARK                         _______ _______ _______ _____ _____    ______ ____
ROOT
ATOM      1  C   UNL     1       3.539   5.952  19.096  0.00  0.00    +0.000 C 
ATOM      2  C   UNL     1       4.496   5.880  17.964  0.00  0.00    +0.000 C 
ATOM      3  C   UNL     1       4.371   6.914  17.113  0.00  0.00    +0.000 C 
ATOM      4  C   UNL     1       3.306   7.787  17.642  0.00  0.00    +0.000 C 
ATOM      5  O   UNL     1       3.026   8.899  17.207  0.00  0.00    +0.000 OA
ATOM      6  N   UNL     1       2.765   7.142  18.739  0.00  0.00    +0.000 N 
ENDROOT
BRANCH   1  11
ATOM      7  C   UNL     1       1.510   2.467  21.824  0.00  0.00    +0.000 C 
ATOM      8  C   UNL     1       1.708   3.222  20.570  0.00  0.00    +0.000 A 
ATOM      9  C   UNL     1       1.240   3.041  19.286  0.00  0.00    +0.000 A 
ATOM     10  C   UNL     1       1.787   4.087  18.517  0.00  0.00    +0.000 A 
ATOM     11  C   UNL     1       2.592   4.824  19.360  0.00  0.00    +0.000 A 
ATOM     12  O   UNL     1       2.521   4.318  20.628  0.00  0.00    +0.000 OA
ENDBRANCH   1  11
BRANCH   2  13
ATOM     13  C   UNL     1       5.516   4.856  17.709  0.00  0.00    +0.000 C 
ATOM     14  O   UNL     1       5.971   4.250  18.687  0.00  0.00    +0.000 OA
BRANCH  13  15
ATOM     15  C   UNL     1       6.010   4.580  16.388  0.00  0.00    +0.000 A 
ATOM     16  C   UNL     1       5.349   3.883  15.400  0.00  0.00    +0.000 A 
ATOM     17  C   UNL     1       6.227   3.811  14.309  0.00  0.00    +0.000 A 
ATOM     18  C   UNL     1       6.140   3.234  13.038  0.00  0.00    +0.000 A 
ATOM     19  C   UNL     1       6.472   4.150  12.044  0.00  0.00    +0.000 A 
ATOM     20  C   UNL     1       7.461   5.112  12.276  0.00  0.00    +0.000 A 
ATOM     21  C   UNL     1       7.989   5.313  13.562  0.00  0.00    +0.000 A 
ATOM     22  C   UNL     1       7.213   4.752  14.574  0.00  0.00    +0.000 A 
ATOM     23  O   UNL     1       7.182   5.105  15.897  0.00  0.00    +0.000 OA
ENDBRANCH  13  15
ENDBRANCH   2  13
BRANCH   3  24
ATOM     24  O   UNL     1       5.096   7.189  15.982  0.00  0.00    +0.000 OA
ATOM     25  H   UNL     1       4.624   6.792  15.215  0.00  0.00    +0.000 HD
ENDBRANCH   3  24
BRANCH   6  26
ATOM     26  C   UNL     1       1.876   7.782  19.707  0.00  0.00    +0.000 C 
BRANCH  26  27
ATOM     27  C   UNL     1       1.241   9.119  19.268  0.00  0.00    +0.000 C 
BRANCH  27  28
ATOM     28  N   UNL     1       0.184   9.614  20.179  0.00  0.00    +0.000 NA
ATOM     29  C   UNL     1      -0.864  10.329  19.406  0.00  0.00    +0.000 C 
ATOM     30  C   UNL     1      -0.422  11.710  18.887  0.00  0.00    +0.000 C 
ATOM     31  O   UNL     1       0.011  12.550  19.966  0.00  0.00    +0.000 OA
ATOM     32  C   UNL     1       1.080  11.934  20.693  0.00  0.00    +0.000 C 
ATOM     33  C   UNL     1       0.678  10.544  21.218  0.00  0.00    +0.000 C 
ENDBRANCH  27  28
ENDBRANCH  26  27
ENDBRANCH   6  26
TORSDOF 7
ENDMDL
MODEL 3
REMARK VINA RESULT:      -8.8      0.747      1.154
REMARK  Name = 
REMARK  8 active torsions:
REMARK  status: ('A' for Active; 'I' for Inactive)
REMARK    1  A    between atoms: C_1  and  C_2
REMARK    2  A    between atoms: C_5  and  C_6
REMARK    3  A    between atoms: C_7  and  C_8
REMARK    4  A    between atoms: C_8  and  C_10
REMARK    5  A    between atoms: C_19  and  O_20
REMARK    6  A    between atoms: N_23  and  C_24
REMARK    7  A    between atoms: C_24  and  C_25
REMARK    8  A    between atoms: C_25  and  N_26
REMARK                            x       y       z     vdW  Elec       q    Type
REMARK                         _______ _______ _______ _____ _____    ______ ____
ROOT
ATOM      1  C   UNL     1       3.491   5.852  19.554  0.00  0.00    +0.000 C 
ATOM      2  C   UNL     1       4.213   5.898  18.258  0.00  0.00    +0.000 C 
ATOM      3  C   UNL     1       3.842   6.940  17.494  0.00  0.00    +0.000 C 
ATOM      4  C   UNL     1       2.832   7.700  18.255  0.00  0.00    +0.000 C 
ATOM      5  O   UNL     1       2.383   8.795  17.933  0.00  0.00    +0.000 OA
ATOM      6  N   UNL     1       2.568   6.978  19.406  0.00  0.00    +0.000 N 
ENDROOT
BRANCH   1  11
ATOM      7  C   UNL     1       0.561   2.058  18.704  0.00  0.00    +0.000 C 
ATOM      8  C   UNL     1       1.351   2.954  19.573  0.00  0.00    +0.000 A 
ATOM      9  C   UNL     1       1.480   3.054  20.941  0.00  0.00    +0.000 A 
ATOM     10  C   UNL     1       2.375   4.117  21.175  0.00  0.00    +0.000 A 
ATOM     11  C   UNL     1       2.708   4.637  19.942  0.00  0.00    +0.000 A 
ATOM     12  O   UNL     1       2.110   3.906  18.954  0.00  0.00    +0.000 OA
ENDBRANCH   1  11
BRANCH   2  13
ATOM     13  C   UNL     1       5.244   4.976  17.767  0.00  0.00    +0.000 C 
ATOM     14  O   UNL     1       5.843   4.294  18.607  0.00  0.00    +0.000 OA
BRANCH  13  15
ATOM     15  C   UNL     1       5.587   4.883  16.374  0.00  0.00    +0.000 A 
ATOM     16  C   UNL     1       6.841   5.055  15.831  0.00  0.00    +0.000 A 
ATOM     17  C   UNL     1       6.694   4.931  14.442  0.00  0.00    +0.000 A 
ATOM     18  C   UNL     1       7.584   5.014  13.367  0.00  0.00    +0.000 A 
ATOM     19  C   UNL     1       7.476   3.902  12.535  0.00  0.00    +0.000 A 
ATOM     20  C   UNL     1       6.231   3.297  12.329  0.00  0.00    +0.000 A 
ATOM     21  C   UNL     1       5.114   3.655  13.102  0.00  0.00    +0.000 A 
ATOM     22  C   UNL     1       5.443   4.356  14.261  0.00  0.00    +0.000 A 
ATOM     23  O   UNL     1       4.702   4.473  15.406  0.00  0.00    +0.000 OA
ENDBRANCH  13  15
ENDBRANCH   2  13
BRANCH   3  24
ATOM     24  O   UNL     1       4.308   7.311  16.260  0.00  0.00    +0.000 OA
ATOM     25  H   UNL     1       3.820   8.117  15.980  0.00  0.00    +0.000 HD
ENDBRANCH   3  24
BRANCH   6  26
ATOM     26  C   UNL     1       1.834   7.508  20.553  0.00  0.00    +0.000 C 
BRANCH  26  27
ATOM     27  C   UNL     1       1.323   8.960  20.423  0.00  0.00    +0.000 C 
BRANCH  27  28
ATOM     28  N   UNL     1      -0.114   9.125  20.740  0.00  0.00    +0.000 NA
ATOM     29  C   UNL     1      -0.497  10.557  20.645  0.00  0.00    +0.000 C 
ATOM     30  C   UNL     1       0.036  11.422  21.803  0.00  0.00    +0.000 C 
ATOM     31  O   UNL     1      -0.398  10.910  23.070  0.00  0.00    +0.000 OA
ATOM     32  C   UNL     1       0.020   9.551  23.240  0.00  0.00    +0.000 C 
ATOM     33  C   UNL     1      -0.484   8.657  22.093  0.00  0.00    +0.000 C 
ENDBRANCH  27  28
ENDBRANCH  26  27
ENDBRANCH   6  26
TORSDOF 7
ENDMDL
MODEL 4
REMARK VINA RESULT:      -8.6      3.956      7.700
REMARK  Name = 
REMARK  8 active torsions:
REMARK  status: ('A' for Active; 'I' for Inactive)
REMARK    1  A    between atoms: C_1  and  C_2
REMARK    2  A    between atoms: C_5  and  C_6
REMARK    3  A    between atoms: C_7  and  C_8
REMARK    4  A    between atoms: C_8  and  C_10
REMARK    5  A    between atoms: C_19  and  O_20
REMARK    6  A    between atoms: N_23  and  C_24
REMARK    7  A    between atoms: C_24  and  C_25
REMARK    8  A    between atoms: C_25  and  N_26
REMARK                            x       y       z     vdW  Elec       q    Type
REMARK                         _______ _______ _______ _____ _____    ______ ____
ROOT
ATOM      1  C   UNL     1       0.205  11.215  20.267  0.00  0.00    +0.000 C 
ATOM      2  C   UNL     1       0.261  10.348  21.472  0.00  0.00    +0.000 C 
ATOM      3  C   UNL     1      -0.751  10.581  22.326  0.00  0.00    +0.000 C 
ATOM      4  C   UNL     1      -1.593  11.634  21.726  0.00  0.00    +0.000 C 
ATOM      5  O   UNL     1      -2.685  11.992  22.154  0.00  0.00    +0.000 OA
ATOM      6  N   UNL     1      -0.947  12.061  20.579  0.00  0.00    +0.000 N 
ENDROOT
BRANCH   1  11
ATOM      7  C   UNL     1       3.596  14.591  21.164  0.00  0.00    +0.000 C 
ATOM      8  C   UNL     1       2.863  13.647  20.297  0.00  0.00    +0.000 A 
ATOM      9  C   UNL     1       2.895  13.406  18.941  0.00  0.00    +0.000 A 
ATOM     10  C   UNL     1       1.952  12.388  18.699  0.00  0.00    +0.000 A 
ATOM     11  C   UNL     1       1.364  12.093  19.911  0.00  0.00    +0.000 A 
ATOM     12  O   UNL     1       1.942  12.838  20.901  0.00  0.00    +0.000 OA
ENDBRANCH   1  11
BRANCH   2  13
ATOM     13  C   UNL     1       1.251   9.313  21.792  0.00  0.00    +0.000 C 
ATOM     14  O   UNL     1       1.888   9.441  22.844  0.00  0.00    +0.000 OA
BRANCH  13  15
ATOM     15  C   UNL     1       1.513   8.207  20.912  0.00  0.00    +0.000 A 
ATOM     16  C   UNL     1       2.052   8.282  19.647  0.00  0.00    +0.000 A 
ATOM     17  C   UNL     1       2.072   6.972  19.145  0.00  0.00    +0.000 A 
ATOM     18  C   UNL     1       2.486   6.411  17.933  0.00  0.00    +0.000 A 
ATOM     19  C   UNL     1       3.356   5.344  18.142  0.00  0.00    +0.000 A 
ATOM     20  C   UNL     1       3.182   4.501  19.245  0.00  0.00    +0.000 A 
ATOM     21  C   UNL     1       2.274   4.824  20.268  0.00  0.00    +0.000 A 
ATOM     22  C   UNL     1       1.870   6.157  20.250  0.00  0.00    +0.000 A 
ATOM     23  O   UNL     1       1.370   6.893  21.291  0.00  0.00    +0.000 OA
ENDBRANCH  13  15
ENDBRANCH   2  13
BRANCH   3  24
ATOM     24  O   UNL     1      -1.032   9.960  23.514  0.00  0.00    +0.000 OA
ATOM     25  H   UNL     1      -0.554   9.101  23.530  0.00  0.00    +0.000 HD
ENDBRANCH   3  24
BRANCH   6  26
ATOM     26  C   UNL     1      -1.570  12.895  19.554  0.00  0.00    +0.000 C 
BRANCH  26  27
ATOM     27  C   UNL     1      -1.808  12.226  18.182  0.00  0.00    +0.000 C 
BRANCH  27  28
ATOM     28  N   UNL     1      -2.615  10.986  18.246  0.00  0.00    +0.000 NA
ATOM     29  C   UNL     1      -2.216  10.059  17.156  0.00  0.00    +0.000 C 
ATOM     30  C   UNL     1      -2.687  10.502  15.758  0.00  0.00    +0.000 C 
ATOM     31  O   UNL     1      -4.111  10.669  15.724  0.00  0.00    +0.000 OA
ATOM     32  C   UNL     1      -4.535  11.619  16.708  0.00  0.00    +0.000 C 
ATOM     33  C   UNL     1      -4.071  11.216  18.119  0.00  0.00    +0.000 C 
ENDBRANCH  27  28
ENDBRANCH  26  27
ENDBRANCH   6  26
TORSDOF 7
ENDMDL
MODEL 5
REMARK VINA RESULT:      -8.5      0.913      1.547
REMARK  Name = 
REMARK  8 active torsions:
REMARK  status: ('A' for Active; 'I' for Inactive)
REMARK    1  A    between atoms: C_1  and  C_2
REMARK    2  A    between atoms: C_5  and  C_6
REMARK    3  A    between atoms: C_7  and  C_8
REMARK    4  A    between atoms: C_8  and  C_10
REMARK    5  A    between atoms: C_19  and  O_20
REMARK    6  A    between atoms: N_23  and  C_24
REMARK    7  A    between atoms: C_24  and  C_25
REMARK    8  A    between atoms: C_25  and  N_26
REMARK                            x       y       z     vdW  Elec       q    Type
REMARK                         _______ _______ _______ _____ _____    ______ ____
ROOT
ATOM      1  C   UNL     1       3.521   5.692  19.644  0.00  0.00    +0.000 C 
ATOM      2  C   UNL     1       4.237   5.781  18.346  0.00  0.00    +0.000 C 
ATOM      3  C   UNL     1       3.859   6.847  17.618  0.00  0.00    +0.000 C 
ATOM      4  C   UNL     1       2.852   7.580  18.408  0.00  0.00    +0.000 C 
ATOM      5  O   UNL     1       2.398   8.683  18.123  0.00  0.00    +0.000 OA
ATOM      6  N   UNL     1       2.595   6.820  19.536  0.00  0.00    +0.000 N 
ENDROOT
BRANCH   1  11
ATOM      7  C   UNL     1       0.512   1.980  18.711  0.00  0.00    +0.000 C 
ATOM      8  C   UNL     1       1.350   2.817  19.593  0.00  0.00    +0.000 A 
ATOM      9  C   UNL     1       1.543   2.835  20.957  0.00  0.00    +0.000 A 
ATOM     10  C   UNL     1       2.460   3.875  21.211  0.00  0.00    +0.000 A 
ATOM     11  C   UNL     1       2.743   4.463  19.996  0.00  0.00    +0.000 A 
ATOM     12  O   UNL     1       2.092   3.797  18.996  0.00  0.00    +0.000 OA
ENDBRANCH   1  11
BRANCH   2  13
ATOM     13  C   UNL     1       5.267   4.878  17.820  0.00  0.00    +0.000 C 
ATOM     14  O   UNL     1       5.882   4.181  18.637  0.00  0.00    +0.000 OA
BRANCH  13  15
ATOM     15  C   UNL     1       5.592   4.819  16.422  0.00  0.00    +0.000 A 
ATOM     16  C   UNL     1       6.836   5.020  15.865  0.00  0.00    +0.000 A 
ATOM     17  C   UNL     1       6.670   4.922  14.476  0.00  0.00    +0.000 A 
ATOM     18  C   UNL     1       7.544   5.041  13.391  0.00  0.00    +0.000 A 
ATOM     19  C   UNL     1       7.440   3.945  12.537  0.00  0.00    +0.000 A 
ATOM     20  C   UNL     1       6.202   3.326  12.336  0.00  0.00    +0.000 A 
ATOM     21  C   UNL     1       5.091   3.652  13.131  0.00  0.00    +0.000 A 
ATOM     22  C   UNL     1       5.425   4.333  14.300  0.00  0.00    +0.000 A 
ATOM     23  O   UNL     1       4.699   4.415  15.457  0.00  0.00    +0.000 OA
ENDBRANCH  13  15
ENDBRANCH   2  13
BRANCH   3  24
ATOM     24  O   UNL     1       4.319   7.258  16.394  0.00  0.00    +0.000 OA
ATOM     25  H   UNL     1       4.849   6.526  16.007  0.00  0.00    +0.000 HD
ENDBRANCH   3  24
BRANCH   6  26
ATOM     26  C   UNL     1       1.866   7.312  20.703  0.00  0.00    +0.000 C 
BRANCH  26  27
ATOM     27  C   UNL     1       1.021   8.587  20.492  0.00  0.00    +0.000 C 
BRANCH  27  28
ATOM     28  N   UNL     1       1.384   9.708  21.389  0.00  0.00    +0.000 NA
ATOM     29  C   UNL     1       0.909   9.433  22.769  0.00  0.00    +0.000 C 
ATOM     30  C   UNL     1      -0.617   9.561  22.940  0.00  0.00    +0.000 C 
ATOM     31  O   UNL     1      -1.071  10.863  22.545  0.00  0.00    +0.000 OA
ATOM     32  C   UNL     1      -0.704  11.140  21.190  0.00  0.00    +0.000 C 
ATOM     33  C   UNL     1       0.815  11.010  20.977  0.00  0.00    +0.000 C 
ENDBRANCH  27  28
ENDBRANCH  26  27
ENDBRANCH   6  26
TORSDOF 7
ENDMDL
MODEL 6
REMARK VINA RESULT:      -8.3      1.000      1.047
REMARK  Name = 
REMARK  8 active torsions:
REMARK  status: ('A' for Active; 'I' for Inactive)
REMARK    1  A    between atoms: C_1  and  C_2
REMARK    2  A    between atoms: C_5  and  C_6
REMARK    3  A    between atoms: C_7  and  C_8
REMARK    4  A    between atoms: C_8  and  C_10
REMARK    5  A    between atoms: C_19  and  O_20
REMARK    6  A    between atoms: N_23  and  C_24
REMARK    7  A    between atoms: C_24  and  C_25
REMARK    8  A    between atoms: C_25  and  N_26
REMARK                            x       y       z     vdW  Elec       q    Type
REMARK                         _______ _______ _______ _____ _____    ______ ____
ROOT
ATOM      1  C   UNL     1       3.991   5.692  19.122  0.00  0.00    +0.000 C 
ATOM      2  C   UNL     1       4.884   5.937  17.962  0.00  0.00    +0.000 C 
ATOM      3  C   UNL     1       4.445   6.931  17.170  0.00  0.00    +0.000 C 
ATOM      4  C   UNL     1       3.203   7.452  17.773  0.00  0.00    +0.000 C 
ATOM      5  O   UNL     1       2.609   8.460  17.404  0.00  0.00    +0.000 OA
ATOM      6  N   UNL     1       2.905   6.635  18.849  0.00  0.00    +0.000 N 
ENDROOT
BRANCH   1  11
ATOM      7  C   UNL     1       3.848   0.842  18.724  0.00  0.00    +0.000 C 
ATOM      8  C   UNL     1       3.310   2.155  19.135  0.00  0.00    +0.000 A 
ATOM      9  C   UNL     1       2.103   2.542  19.677  0.00  0.00    +0.000 A 
ATOM     10  C   UNL     1       2.176   3.939  19.842  0.00  0.00    +0.000 A 
ATOM     11  C   UNL     1       3.403   4.335  19.352  0.00  0.00    +0.000 A 
ATOM     12  O   UNL     1       4.117   3.241  18.949  0.00  0.00    +0.000 OA
ENDBRANCH   1  11
BRANCH   2  13
ATOM     13  C   UNL     1       6.135   5.248  17.626  0.00  0.00    +0.000 C 
ATOM     14  O   UNL     1       6.937   5.045  18.545  0.00  0.00    +0.000 OA
BRANCH  13  15
ATOM     15  C   UNL     1       6.454   4.852  16.281  0.00  0.00    +0.000 A 
ATOM     16  C   UNL     1       5.704   4.023  15.477  0.00  0.00    +0.000 A 
ATOM     17  C   UNL     1       6.422   3.872  14.282  0.00  0.00    +0.000 A 
ATOM     18  C   UNL     1       6.192   3.156  13.103  0.00  0.00    +0.000 A 
ATOM     19  C   UNL     1       6.324   3.973  11.983  0.00  0.00    +0.000 A 
ATOM     20  C   UNL     1       7.277   4.998  11.969  0.00  0.00    +0.000 A 
ATOM     21  C   UNL     1       7.968   5.361  13.137  0.00  0.00    +0.000 A 
ATOM     22  C   UNL     1       7.378   4.879  14.303  0.00  0.00    +0.000 A 
ATOM     23  O   UNL     1       7.512   5.372  15.574  0.00  0.00    +0.000 OA
ENDBRANCH  13  15
ENDBRANCH   2  13
BRANCH   3  24
ATOM     24  O   UNL     1       5.019   7.444  16.036  0.00  0.00    +0.000 OA
ATOM     25  H   UNL     1       5.292   6.691  15.466  0.00  0.00    +0.000 HD
ENDBRANCH   3  24
BRANCH   6  26
ATOM     26  C   UNL     1       1.914   6.961  19.873  0.00  0.00    +0.000 C 
BRANCH  26  27
ATOM     27  C   UNL     1       1.801   8.451  20.262  0.00  0.00    +0.000 C 
BRANCH  27  28
ATOM     28  N   UNL     1       0.415   8.973  20.260  0.00  0.00    +0.000 NA
ATOM     29  C   UNL     1       0.413  10.416  19.907  0.00  0.00    +0.000 C 
ATOM     30  C   UNL     1       0.942  11.332  21.026  0.00  0.00    +0.000 C 
ATOM     31  O   UNL     1       0.193  11.151  22.236  0.00  0.00    +0.000 OA
ATOM     32  C   UNL     1       0.235   9.784  22.660  0.00  0.00    +0.000 C 
ATOM     33  C   UNL     1      -0.275   8.835  21.561  0.00  0.00    +0.000 C 
ENDBRANCH  27  28
ENDBRANCH  26  27
ENDBRANCH   6  26
TORSDOF 7
ENDMDL
MODEL 7
REMARK VINA RESULT:      -8.3      0.980      1.196
REMARK  Name = 
REMARK  8 active torsions:
REMARK  status: ('A' for Active; 'I' for Inactive)
REMARK    1  A    between atoms: C_1  and  C_2
REMARK    2  A    between atoms: C_5  and  C_6
REMARK    3  A    between atoms: C_7  and  C_8
REMARK    4  A    between atoms: C_8  and  C_10
REMARK    5  A    between atoms: C_19  and  O_20
REMARK    6  A    between atoms: N_23  and  C_24
REMARK    7  A    between atoms: C_24  and  C_25
REMARK    8  A    between atoms: C_25  and  N_26
REMARK                            x       y       z     vdW  Elec       q    Type
REMARK                         _______ _______ _______ _____ _____    ______ ____
ROOT
ATOM      1  C   UNL     1       4.131   5.628  19.017  0.00  0.00    +0.000 C 
ATOM      2  C   UNL     1       4.989   5.794  17.815  0.00  0.00    +0.000 C 
ATOM      3  C   UNL     1       4.566   6.784  17.010  0.00  0.00    +0.000 C 
ATOM      4  C   UNL     1       3.376   7.383  17.643  0.00  0.00    +0.000 C 
ATOM      5  O   UNL     1       2.817   8.408  17.266  0.00  0.00    +0.000 OA
ATOM      6  N   UNL     1       3.082   6.614  18.756  0.00  0.00    +0.000 N 
ENDROOT
BRANCH   1  11
ATOM      7  C   UNL     1       0.559   2.330  18.769  0.00  0.00    +0.000 C 
ATOM      8  C   UNL     1       1.862   2.839  19.242  0.00  0.00    +0.000 A 
ATOM      9  C   UNL     1       2.767   2.371  20.170  0.00  0.00    +0.000 A 
ATOM     10  C   UNL     1       3.824   3.302  20.192  0.00  0.00    +0.000 A 
ATOM     11  C   UNL     1       3.488   4.309  19.312  0.00  0.00    +0.000 A 
ATOM     12  O   UNL     1       2.302   4.013  18.700  0.00  0.00    +0.000 OA
ENDBRANCH   1  11
BRANCH   2  13
ATOM     13  C   UNL     1       6.190   5.033  17.454  0.00  0.00    +0.000 C 
ATOM     14  O   UNL     1       6.955   4.709  18.370  0.00  0.00    +0.000 OA
BRANCH  13  15
ATOM     15  C   UNL     1       6.506   4.704  16.091  0.00  0.00    +0.000 A 
ATOM     16  C   UNL     1       5.752   3.918  15.247  0.00  0.00    +0.000 A 
ATOM     17  C   UNL     1       6.468   3.824  14.045  0.00  0.00    +0.000 A 
ATOM     18  C   UNL     1       6.235   3.169  12.832  0.00  0.00    +0.000 A 
ATOM     19  C   UNL     1       6.369   4.040  11.754  0.00  0.00    +0.000 A 
ATOM     20  C   UNL     1       7.324   5.061  11.790  0.00  0.00    +0.000 A 
ATOM     21  C   UNL     1       8.019   5.362  12.973  0.00  0.00    +0.000 A 
ATOM     22  C   UNL     1       7.428   4.826  14.115  0.00  0.00    +0.000 A 
ATOM     23  O   UNL     1       7.565   5.254  15.409  0.00  0.00    +0.000 OA
ENDBRANCH  13  15
ENDBRANCH   2  13
BRANCH   3  24
ATOM     24  O   UNL     1       5.119   7.234  15.839  0.00  0.00    +0.000 OA
ATOM     25  H   UNL     1       5.565   6.475  15.402  0.00  0.00    +0.000 HD
ENDBRANCH   3  24
BRANCH   6  26
ATOM     26  C   UNL     1       2.150   7.019  19.805  0.00  0.00    +0.000 C 
BRANCH  26  27
ATOM     27  C   UNL     1       1.761   8.514  19.833  0.00  0.00    +0.000 C 
BRANCH  27  28
ATOM     28  N   UNL     1       0.832   8.877  20.927  0.00  0.00    +0.000 NA
ATOM     29  C   UNL     1      -0.529   9.117  20.384  0.00  0.00    +0.000 C 
ATOM     30  C   UNL     1      -0.662  10.435  19.598  0.00  0.00    +0.000 C 
ATOM     31  O   UNL     1      -0.283  11.557  20.407  0.00  0.00    +0.000 OA
ATOM     32  C   UNL     1       1.057  11.407  20.889  0.00  0.00    +0.000 C 
ATOM     33  C   UNL     1       1.232  10.092  21.670  0.00  0.00    +0.000 C 
ENDBRANCH  27  28
ENDBRANCH  26  27
ENDBRANCH   6  26
TORSDOF 7
ENDMDL
MODEL 8
REMARK VINA RESULT:      -8.2      1.111      1.720
REMARK  Name = 
REMARK  8 active torsions:
REMARK  status: ('A' for Active; 'I' for Inactive)
REMARK    1  A    between atoms: C_1  and  C_2
REMARK    2  A    between atoms: C_5  and  C_6
REMARK    3  A    between atoms: C_7  and  C_8
REMARK    4  A    between atoms: C_8  and  C_10
REMARK    5  A    between atoms: C_19  and  O_20
REMARK    6  A    between atoms: N_23  and  C_24
REMARK    7  A    between atoms: C_24  and  C_25
REMARK    8  A    between atoms: C_25  and  N_26
REMARK                            x       y       z     vdW  Elec       q    Type
REMARK                         _______ _______ _______ _____ _____    ______ ____
ROOT
ATOM      1  C   UNL     1       3.410   5.898  19.128  0.00  0.00    +0.000 C 
ATOM      2  C   UNL     1       4.227   5.955  17.889  0.00  0.00    +0.000 C 
ATOM      3  C   UNL     1       3.986   7.058  17.159  0.00  0.00    +0.000 C 
ATOM      4  C   UNL     1       2.978   7.851  17.888  0.00  0.00    +0.000 C 
ATOM      5  O   UNL     1       2.630   8.990  17.595  0.00  0.00    +0.000 OA
ATOM      6  N   UNL     1       2.581   7.094  18.977  0.00  0.00    +0.000 N 
ENDROOT
BRANCH   1  11
ATOM      7  C   UNL     1       1.473   2.392  21.894  0.00  0.00    +0.000 C 
ATOM      8  C   UNL     1       1.679   3.115  20.624  0.00  0.00    +0.000 A 
ATOM      9  C   UNL     1       1.275   2.865  19.330  0.00  0.00    +0.000 A 
ATOM     10  C   UNL     1       1.792   3.916  18.547  0.00  0.00    +0.000 A 
ATOM     11  C   UNL     1       2.519   4.726  19.394  0.00  0.00    +0.000 A 
ATOM     12  O   UNL     1       2.425   4.258  20.675  0.00  0.00    +0.000 OA
ENDBRANCH   1  11
BRANCH   2  13
ATOM     13  C   UNL     1       5.225   4.985  17.423  0.00  0.00    +0.000 C 
ATOM     14  O   UNL     1       5.803   4.307  18.280  0.00  0.00    +0.000 OA
BRANCH  13  15
ATOM     15  C   UNL     1       5.562   4.843  16.033  0.00  0.00    +0.000 A 
ATOM     16  C   UNL     1       6.821   4.952  15.484  0.00  0.00    +0.000 A 
ATOM     17  C   UNL     1       6.666   4.797  14.099  0.00  0.00    +0.000 A 
ATOM     18  C   UNL     1       7.556   4.818  13.021  0.00  0.00    +0.000 A 
ATOM     19  C   UNL     1       7.404   3.690  12.219  0.00  0.00    +0.000 A 
ATOM     20  C   UNL     1       6.136   3.128  12.030  0.00  0.00    +0.000 A 
ATOM     21  C   UNL     1       5.035   3.549  12.794  0.00  0.00    +0.000 A 
ATOM     22  C   UNL     1       5.393   4.266  13.934  0.00  0.00    +0.000 A 
ATOM     23  O   UNL     1       4.659   4.442  15.076  0.00  0.00    +0.000 OA
ENDBRANCH  13  15
ENDBRANCH   2  13
BRANCH   3  24
ATOM     24  O   UNL     1       4.566   7.453  15.983  0.00  0.00    +0.000 OA
ATOM     25  H   UNL     1       4.095   7.006  15.245  0.00  0.00    +0.000 HD
ENDBRANCH   3  24
BRANCH   6  26
ATOM     26  C   UNL     1       1.803   7.620  20.097  0.00  0.00    +0.000 C 
BRANCH  26  27
ATOM     27  C   UNL     1       1.476   9.128  20.051  0.00  0.00    +0.000 C 
BRANCH  27  28
ATOM     28  N   UNL     1       0.043   9.443  20.254  0.00  0.00    +0.000 NA
ATOM     29  C   UNL     1      -0.492  10.173  19.076  0.00  0.00    +0.000 C 
ATOM     30  C   UNL     1      -0.007  11.631  18.975  0.00  0.00    +0.000 C 
ATOM     31  O   UNL     1      -0.335  12.366  20.162  0.00  0.00    +0.000 OA
ATOM     32  C   UNL     1       0.231  11.741  21.319  0.00  0.00    +0.000 C 
ATOM     33  C   UNL     1      -0.222  10.275  21.447  0.00  0.00    +0.000 C 
ENDBRANCH  27  28
ENDBRANCH  26  27
ENDBRANCH   6  26
TORSDOF 7
ENDMDL
MODEL 9
REMARK VINA RESULT:      -8.1      1.134      1.854
REMARK  Name = 
REMARK  8 active torsions:
REMARK  status: ('A' for Active; 'I' for Inactive)
REMARK    1  A    between atoms: C_1  and  C_2
REMARK    2  A    between atoms: C_5  and  C_6
REMARK    3  A    between atoms: C_7  and  C_8
REMARK    4  A    between atoms: C_8  and  C_10
REMARK    5  A    between atoms: C_19  and  O_20
REMARK    6  A    between atoms: N_23  and  C_24
REMARK    7  A    between atoms: C_24  and  C_25
REMARK    8  A    between atoms: C_25  and  N_26
REMARK                            x       y       z     vdW  Elec       q    Type
REMARK                         _______ _______ _______ _____ _____    ______ ____
ROOT
ATOM      1  C   UNL     1       3.542   5.892  18.978  0.00  0.00    +0.000 C 
ATOM      2  C   UNL     1       4.348   5.905  17.731  0.00  0.00    +0.000 C 
ATOM      3  C   UNL     1       4.156   7.017  17.001  0.00  0.00    +0.000 C 
ATOM      4  C   UNL     1       3.198   7.862  17.738  0.00  0.00    +0.000 C 
ATOM      5  O   UNL     1       2.906   9.018  17.446  0.00  0.00    +0.000 OA
ATOM      6  N   UNL     1       2.773   7.129  18.832  0.00  0.00    +0.000 N 
ENDROOT
BRANCH   1  11
ATOM      7  C   UNL     1       1.485   2.467  21.759  0.00  0.00    +0.000 C 
ATOM      8  C   UNL     1       1.698   3.192  20.491  0.00  0.00    +0.000 A 
ATOM      9  C   UNL     1       1.248   2.979  19.206  0.00  0.00    +0.000 A 
ATOM     10  C   UNL     1       1.803   4.008  18.419  0.00  0.00    +0.000 A 
ATOM     11  C   UNL     1       2.594   4.767  19.255  0.00  0.00    +0.000 A 
ATOM     12  O   UNL     1       2.507   4.292  20.534  0.00  0.00    +0.000 OA
ENDBRANCH   1  11
BRANCH   2  13
ATOM     13  C   UNL     1       5.290   4.884  17.256  0.00  0.00    +0.000 C 
ATOM     14  O   UNL     1       5.858   4.193  18.110  0.00  0.00    +0.000 OA
BRANCH  13  15
ATOM     15  C   UNL     1       5.585   4.706  15.861  0.00  0.00    +0.000 A 
ATOM     16  C   UNL     1       6.837   4.702  15.287  0.00  0.00    +0.000 A 
ATOM     17  C   UNL     1       6.642   4.554  13.906  0.00  0.00    +0.000 A 
ATOM     18  C   UNL     1       7.509   4.492  12.811  0.00  0.00    +0.000 A 
ATOM     19  C   UNL     1       7.243   3.377  12.020  0.00  0.00    +0.000 A 
ATOM     20  C   UNL     1       5.929   2.927  11.859  0.00  0.00    +0.000 A 
ATOM     21  C   UNL     1       4.884   3.446  12.642  0.00  0.00    +0.000 A 
ATOM     22  C   UNL     1       5.325   4.135  13.769  0.00  0.00    +0.000 A 
ATOM     23  O   UNL     1       4.632   4.380  14.925  0.00  0.00    +0.000 OA
ENDBRANCH  13  15
ENDBRANCH   2  13
BRANCH   3  24
ATOM     24  O   UNL     1       4.744   7.381  15.817  0.00  0.00    +0.000 OA
ATOM     25  H   UNL     1       5.559   6.842  15.705  0.00  0.00    +0.000 HD
ENDBRANCH   3  24
BRANCH   6  26
ATOM     26  C   UNL     1       2.035   7.695  19.959  0.00  0.00    +0.000 C 
BRANCH  26  27
ATOM     27  C   UNL     1       0.925   8.710  19.606  0.00  0.00    +0.000 C 
BRANCH  27  28
ATOM     28  N   UNL     1       1.211  10.095  20.044  0.00  0.00    +0.000 NA
ATOM     29  C   UNL     1       0.935  10.240  21.496  0.00  0.00    +0.000 C 
ATOM     30  C   UNL     1      -0.564  10.253  21.847  0.00  0.00    +0.000 C 
ATOM     31  O   UNL     1      -1.249  11.297  21.140  0.00  0.00    +0.000 OA
ATOM     32  C   UNL     1      -1.077  11.150  19.726  0.00  0.00    +0.000 C 
ATOM     33  C   UNL     1       0.412  11.120  19.338  0.00  0.00    +0.000 C 
ENDBRANCH  27  28
ENDBRANCH  26  27
ENDBRANCH   6  26
TORSDOF 7
ENDMDL
