MODEL 1
REMARK VINA RESULT:      -9.2      0.000      0.000
REMARK  Name = 
REMARK  8 active torsions:
REMARK  status: ('A' for Active; 'I' for Inactive)
REMARK    1  A    between atoms: C_1  and  C_2
REMARK    2  A    between atoms: C_10  and  C_11
REMARK    3  A    between atoms: C_11  and  C_12
REMARK    4  A    between atoms: N_14  and  C_15
REMARK    5  A    between atoms: C_15  and  C_16
REMARK    6  A    between atoms: C_15  and  C_23
REMARK    7  A    between atoms: C_16  and  C_17
REMARK    8  A    between atoms: N_25  and  C_26
REMARK                            x       y       z     vdW  Elec       q    Type
REMARK                         _______ _______ _______ _____ _____    ______ ____
ROOT
ATOM      1  C   UNL     1       0.770  10.315  18.587  0.00  0.00    +0.000 C 
ENDROOT
BRANCH   1   2
ATOM      2  C   UNL     1       1.728  11.576  18.694  0.00  0.00    +0.000 C 
ATOM      3  O   UNL     1       2.415  11.909  17.717  0.00  0.00    +0.000 OA
ATOM      4  N   UNL     1       1.821  12.346  19.858  0.00  0.00    +0.000 N 
ATOM      5  C   UNL     1       2.449  13.666  19.786  0.00  0.00    +0.000 C 
ATOM      6  C   UNL     1       1.067  12.152  21.039  0.00  0.00    +0.000 A 
ATOM      7  C   UNL     1      -0.169  13.335  21.208  0.00  0.00    +0.000 A 
ATOM      8  C   UNL     1      -1.510  12.957  22.272  0.00  0.00    +0.000 A 
ATOM      9  C   UNL     1      -1.550  11.191  23.256  0.00  0.00    +0.000 A 
ATOM     10  N   UNL     1      -0.157  10.144  23.018  0.00  0.00    +0.000 NA
ATOM     11  N   UNL     1       1.098  10.669  21.917  0.00  0.00    +0.000 NA
ENDBRANCH   1   2
BRANCH   1  14
ATOM     12  C   UNL     1       2.114   8.152  18.466  0.00  0.00    +0.000 C 
ATOM     13  O   UNL     1       2.453   8.379  17.304  0.00  0.00    +0.000 OA
ATOM     14  N   UNL     1       1.301   9.043  19.173  0.00  0.00    +0.000 N 
ATOM     15  H   UNL     1       1.093   8.854  20.143  0.00  0.00    +0.000 HD
BRANCH  12  16
ATOM     16  C   UNL     1       2.591   6.878  19.222  0.00  0.00    +0.000 C 
BRANCH  16  26
ATOM     17  C   UNL     1       1.169   3.896  18.680  0.00  0.00    +0.000 C 
ATOM     18  C   UNL     1       2.455   4.444  18.147  0.00  0.00    +0.000 A 
ATOM     19  N   UNL     1       3.209   3.609  17.312  0.00  0.00    +0.000 N 
ATOM     20  C   UNL     1       4.317   4.229  16.788  0.00  0.00    +0.000 A 
ATOM     21  C   UNL     1       5.706   3.752  15.762  0.00  0.00    +0.000 A 
ATOM     22  C   UNL     1       7.188   4.721  15.617  0.00  0.00    +0.000 A 
ATOM     23  C   UNL     1       7.275   6.258  16.531  0.00  0.00    +0.000 A 
ATOM     24  C   UNL     1       5.643   6.754  17.616  0.00  0.00    +0.000 A 
ATOM     25  C   UNL     1       4.251   5.659  17.674  0.00  0.00    +0.000 A 
ATOM     26  C   UNL     1       3.037   5.702  18.369  0.00  0.00    +0.000 A 
ATOM     27  H   UNL     1       3.006   2.628  17.175  0.00  0.00    +0.000 HD
ENDBRANCH  16  26
ENDBRANCH  12  16
ENDBRANCH   1  14
BRANCH   1  28
ATOM     28  C   UNL     1      -0.644  10.635  19.183  0.00  0.00    +0.000 C 
BRANCH  28  29
ATOM     29  C   UNL     1      -1.782  10.723  18.177  0.00  0.00    +0.000 A 
ATOM     30  C   UNL     1      -2.892  11.542  18.426  0.00  0.00    +0.000 A 
ATOM     31  C   UNL     1      -3.988  11.538  17.558  0.00  0.00    +0.000 A 
ATOM     32  C   UNL     1      -3.986  10.719  16.432  0.00  0.00    +0.000 A 
ATOM     33  C   UNL     1      -2.870   9.942  16.144  0.00  0.00    +0.000 A 
ATOM     34  C   UNL     1      -1.766   9.972  16.994  0.00  0.00    +0.000 A 
ENDBRANCH  28  29
ENDBRANCH   1  28
TORSDOF 6
ENDMDL
MODEL 2
REMARK VINA RESULT:      -8.5      1.203      2.748
REMARK  Name = 
REMARK  8 active torsions:
REMARK  status: ('A' for Active; 'I' for Inactive)
REMARK    1  A    between atoms: C_1  and  C_2
REMARK    2  A    between atoms: C_10  and  C_11
REMARK    3  A    between atoms: C_11  and  C_12
REMARK    4  A    between atoms: N_14  and  C_15
REMARK    5  A    between atoms: C_15  and  C_16
REMARK    6  A    between atoms: C_15  and  C_23
REMARK    7  A    between atoms: C_16  and  C_17
REMARK    8  A    between atoms: N_25  and  C_26
REMARK                            x       y       z     vdW  Elec       q    Type
REMARK                         _______ _______ _______ _____ _____    ______ ____
ROOT
ATOM      1  C   UNL     1       0.616  10.626  18.478  0.00  0.00    +0.000 C 
ENDROOT
BRANCH   1   2
ATOM      2  C   UNL     1       1.073  12.130  18.698  0.00  0.00    +0.000 C 
ATOM      3  O   UNL     1       1.397  12.821  17.721  0.00  0.00    +0.000 OA
ATOM      4  N   UNL     1       1.113  12.721  19.966  0.00  0.00    +0.000 N 
ATOM      5  C   UNL     1       1.211  14.178  20.066  0.00  0.00    +0.000 C 
ATOM      6  C   UNL     1       0.717  12.105  21.176  0.00  0.00    +0.000 A 
ATOM      7  C   UNL     1      -0.798  12.700  21.729  0.00  0.00    +0.000 A 
ATOM      8  C   UNL     1      -1.690  11.709  22.867  0.00  0.00    +0.000 A 
ATOM      9  C   UNL     1      -0.918   9.948  23.492  0.00  0.00    +0.000 A 
ATOM     10  N   UNL     1       0.681   9.545  22.877  0.00  0.00    +0.000 NA
ATOM     11  N   UNL     1       1.434  10.644  21.742  0.00  0.00    +0.000 NA
ENDBRANCH   1   2
BRANCH   1  14
ATOM     12  C   UNL     1       2.216   8.653  18.259  0.00  0.00    +0.000 C 
ATOM     13  O   UNL     1       2.118   8.657  17.032  0.00  0.00    +0.000 OA
ATOM     14  N   UNL     1       1.527   9.581  19.046  0.00  0.00    +0.000 N 
ATOM     15  H   UNL     1       1.678   9.586  20.045  0.00  0.00    +0.000 HD
BRANCH  12  16
ATOM     16  C   UNL     1       3.130   7.637  19.004  0.00  0.00    +0.000 C 
BRANCH  16  26
ATOM     17  C   UNL     1       5.028   6.856  16.358  0.00  0.00    +0.000 C 
ATOM     18  C   UNL     1       4.160   5.972  17.197  0.00  0.00    +0.000 A 
ATOM     19  N   UNL     1       4.092   4.617  16.841  0.00  0.00    +0.000 N 
ATOM     20  C   UNL     1       3.359   3.864  17.724  0.00  0.00    +0.000 A 
ATOM     21  C   UNL     1       2.812   2.162  17.834  0.00  0.00    +0.000 A 
ATOM     22  C   UNL     1       1.514   1.623  18.921  0.00  0.00    +0.000 A 
ATOM     23  C   UNL     1       0.738   2.850  19.969  0.00  0.00    +0.000 A 
ATOM     24  C   UNL     1       1.453   4.735  19.829  0.00  0.00    +0.000 A 
ATOM     25  C   UNL     1       2.740   5.112  18.670  0.00  0.00    +0.000 A 
ATOM     26  C   UNL     1       3.378   6.305  18.313  0.00  0.00    +0.000 A 
ATOM     27  H   UNL     1       4.474   4.248  15.980  0.00  0.00    +0.000 HD
ENDBRANCH  16  26
ENDBRANCH  12  16
ENDBRANCH   1  14
BRANCH   1  28
ATOM     28  C   UNL     1      -0.847  10.405  18.993  0.00  0.00    +0.000 C 
BRANCH  28  29
ATOM     29  C   UNL     1      -1.941  10.501  17.940  0.00  0.00    +0.000 A 
ATOM     30  C   UNL     1      -1.834   9.795  16.734  0.00  0.00    +0.000 A 
ATOM     31  C   UNL     1      -2.782   9.970  15.721  0.00  0.00    +0.000 A 
ATOM     32  C   UNL     1      -3.847  10.849  15.902  0.00  0.00    +0.000 A 
ATOM     33  C   UNL     1      -3.995  11.515  17.114  0.00  0.00    +0.000 A 
ATOM     34  C   UNL     1      -3.067  11.314  18.133  0.00  0.00    +0.000 A 
ENDBRANCH  28  29
ENDBRANCH   1  28
TORSDOF 6
ENDMDL
MODEL 3
REMARK VINA RESULT:      -8.2      1.614      2.854
REMARK  Name = 
REMARK  8 active torsions:
REMARK  status: ('A' for Active; 'I' for Inactive)
REMARK    1  A    between atoms: C_1  and  C_2
REMARK    2  A    between atoms: C_10  and  C_11
REMARK    3  A    between atoms: C_11  and  C_12
REMARK    4  A    between atoms: N_14  and  C_15
REMARK    5  A    between atoms: C_15  and  C_16
REMARK    6  A    between atoms: C_15  and  C_23
REMARK    7  A    between atoms: C_16  and  C_17
REMARK    8  A    between atoms: N_25  and  C_26
REMARK                            x       y       z     vdW  Elec       q    Type
REMARK                         _______ _______ _______ _____ _____    ______ ____
ROOT
ATOM      1  C   UNL     1       0.340  11.274  18.679  0.00  0.00    +0.000 C 
ENDROOT
BRANCH   1   2
ATOM      2  C   UNL     1       1.013  12.707  18.798  0.00  0.00    +0.000 C 
ATOM      3  O   UNL     1       1.640  13.171  17.834  0.00  0.00    +0.000 OA
ATOM      4  N   UNL     1       0.915  13.485  19.956  0.00  0.00    +0.000 N 
ATOM      5  C   UNL     1       1.257  14.906  19.886  0.00  0.00    +0.000 C 
ATOM      6  C   UNL     1       0.188  13.143  21.121  0.00  0.00    +0.000 A 
ATOM      7  C   UNL     1      -1.270  14.044  21.250  0.00  0.00    +0.000 A 
ATOM      8  C   UNL     1      -2.530  13.400  22.285  0.00  0.00    +0.000 A 
ATOM      9  C   UNL     1      -2.227  11.669  23.285  0.00  0.00    +0.000 A 
ATOM     10  N   UNL     1      -0.641  10.933  23.089  0.00  0.00    +0.000 NA
ATOM     11  N   UNL     1       0.505  11.703  22.013  0.00  0.00    +0.000 NA
ENDBRANCH   1   2
BRANCH   1  14
ATOM     12  C   UNL     1       1.470   8.990  18.769  0.00  0.00    +0.000 C 
ATOM     13  O   UNL     1       1.296   8.811  17.564  0.00  0.00    +0.000 OA
ATOM     14  N   UNL     1       1.045  10.165  19.398  0.00  0.00    +0.000 N 
ATOM     15  H   UNL     1       1.258  10.303  20.376  0.00  0.00    +0.000 HD
BRANCH  12  16
ATOM     16  C   UNL     1       2.196   7.937  19.656  0.00  0.00    +0.000 C 
BRANCH  16  26
ATOM     17  C   UNL     1       4.230   7.649  17.012  0.00  0.00    +0.000 C 
ATOM     18  C   UNL     1       3.585   6.578  17.833  0.00  0.00    +0.000 A 
ATOM     19  N   UNL     1       3.830   5.250  17.458  0.00  0.00    +0.000 N 
ATOM     20  C   UNL     1       3.285   4.335  18.326  0.00  0.00    +0.000 A 
ATOM     21  C   UNL     1       3.142   2.552  18.409  0.00  0.00    +0.000 A 
ATOM     22  C   UNL     1       1.999   1.715  19.481  0.00  0.00    +0.000 A 
ATOM     23  C   UNL     1       0.959   2.716  20.540  0.00  0.00    +0.000 A 
ATOM     24  C   UNL     1       1.225   4.717  20.431  0.00  0.00    +0.000 A 
ATOM     25  C   UNL     1       2.395   5.395  19.285  0.00  0.00    +0.000 A 
ATOM     26  C   UNL     1       2.744   6.707  18.949  0.00  0.00    +0.000 A 
ATOM     27  H   UNL     1       4.288   4.991  16.595  0.00  0.00    +0.000 HD
ENDBRANCH  16  26
ENDBRANCH  12  16
ENDBRANCH   1  14
BRANCH   1  28
ATOM     28  C   UNL     1      -1.166  11.326  19.111  0.00  0.00    +0.000 C 
BRANCH  28  29
ATOM     29  C   UNL     1      -2.177  10.987  18.027  0.00  0.00    +0.000 A 
ATOM     30  C   UNL     1      -1.841  10.109  16.988  0.00  0.00    +0.000 A 
ATOM     31  C   UNL     1      -2.729   9.884  15.930  0.00  0.00    +0.000 A 
ATOM     32  C   UNL     1      -3.961  10.532  15.902  0.00  0.00    +0.000 A 
ATOM     33  C   UNL     1      -4.330  11.364  16.953  0.00  0.00    +0.000 A 
ATOM     34  C   UNL     1      -3.456  11.561  18.020  0.00  0.00    +0.000 A 
ENDBRANCH  28  29
ENDBRANCH   1  28
TORSDOF 6
ENDMDL
MODEL 4
REMARK VINA RESULT:      -8.1      2.500      8.675
REMARK  Name = 
REMARK  8 active torsions:
REMARK  status: ('A' for Active; 'I' for Inactive)
REMARK    1  A    between atoms: C_1  and  C_2
REMARK    2  A    between atoms: C_10  and  C_11
REMARK    3  A    between atoms: C_11  and  C_12
REMARK    4  A    between atoms: N_14  and  C_15
REMARK    5  A    between atoms: C_15  and  C_16
REMARK    6  A    between atoms: C_15  and  C_23
REMARK    7  A    between atoms: C_16  and  C_17
REMARK    8  A    between atoms: N_25  and  C_26
REMARK                            x       y       z     vdW  Elec       q    Type
REMARK                         _______ _______ _______ _____ _____    ______ ____
ROOT
ATOM      1  C   UNL     1       4.360   4.234  17.321  0.00  0.00    +0.000 C 
ENDROOT
BRANCH   1   2
ATOM      2  C   UNL     1       5.067   4.109  15.905  0.00  0.00    +0.000 C 
ATOM      3  O   UNL     1       4.439   3.635  14.947  0.00  0.00    +0.000 OA
ATOM      4  N   UNL     1       6.383   4.529  15.688  0.00  0.00    +0.000 N 
ATOM      5  C   UNL     1       6.854   4.700  14.313  0.00  0.00    +0.000 C 
ATOM      6  C   UNL     1       7.220   5.148  16.645  0.00  0.00    +0.000 A 
ATOM      7  C   UNL     1       7.388   6.834  16.350  0.00  0.00    +0.000 A 
ATOM      8  C   UNL     1       7.912   7.841  17.686  0.00  0.00    +0.000 A 
ATOM      9  C   UNL     1       8.309   7.005  19.483  0.00  0.00    +0.000 A 
ATOM     10  N   UNL     1       8.158   5.254  19.570  0.00  0.00    +0.000 NA
ATOM     11  N   UNL     1       7.619   4.396  18.143  0.00  0.00    +0.000 NA
ENDBRANCH   1   2
BRANCH   1  14
ATOM     12  C   UNL     1       3.496   6.586  17.793  0.00  0.00    +0.000 C 
ATOM     13  O   UNL     1       4.626   6.992  18.060  0.00  0.00    +0.000 OA
ATOM     14  N   UNL     1       3.271   5.258  17.415  0.00  0.00    +0.000 N 
ATOM     15  H   UNL     1       2.339   4.975  17.145  0.00  0.00    +0.000 HD
BRANCH  12  16
ATOM     16  C   UNL     1       2.257   7.528  17.833  0.00  0.00    +0.000 C 
BRANCH  16  26
ATOM     17  C   UNL     1       2.350   6.049  20.836  0.00  0.00    +0.000 C 
ATOM     18  C   UNL     1       1.841   7.405  20.462  0.00  0.00    +0.000 A 
ATOM     19  N   UNL     1       1.299   8.191  21.489  0.00  0.00    +0.000 N 
ATOM     20  C   UNL     1       0.954   9.454  21.077  0.00  0.00    +0.000 A 
ATOM     21  C   UNL     1       0.165  10.887  21.807  0.00  0.00    +0.000 A 
ATOM     22  C   UNL     1      -0.501  12.227  20.850  0.00  0.00    +0.000 A 
ATOM     23  C   UNL     1      -0.350  12.137  19.067  0.00  0.00    +0.000 A 
ATOM     24  C   UNL     1       0.606  10.518  18.326  0.00  0.00    +0.000 A 
ATOM     25  C   UNL     1       1.192   9.254  19.421  0.00  0.00    +0.000 A 
ATOM     26  C   UNL     1       1.818   8.023  19.202  0.00  0.00    +0.000 A 
ATOM     27  H   UNL     1       1.106   7.838  22.417  0.00  0.00    +0.000 HD
ENDBRANCH  16  26
ENDBRANCH  12  16
ENDBRANCH   1  14
BRANCH   1  28
ATOM     28  C   UNL     1       3.833   2.840  17.808  0.00  0.00    +0.000 C 
BRANCH  28  29
ATOM     29  C   UNL     1       2.935   2.863  19.035  0.00  0.00    +0.000 A 
ATOM     30  C   UNL     1       3.470   2.665  20.315  0.00  0.00    +0.000 A 
ATOM     31  C   UNL     1       2.633   2.573  21.431  0.00  0.00    +0.000 A 
ATOM     32  C   UNL     1       1.253   2.683  21.281  0.00  0.00    +0.000 A 
ATOM     33  C   UNL     1       0.711   2.934  20.025  0.00  0.00    +0.000 A 
ATOM     34  C   UNL     1       1.551   3.056  18.920  0.00  0.00    +0.000 A 
ENDBRANCH  28  29
ENDBRANCH   1  28
TORSDOF 6
ENDMDL
MODEL 5
REMARK VINA RESULT:      -7.9      1.475      1.798
REMARK  Name = 
REMARK  8 active torsions:
REMARK  status: ('A' for Active; 'I' for Inactive)
REMARK    1  A    between atoms: C_1  and  C_2
REMARK    2  A    between atoms: C_10  and  C_11
REMARK    3  A    between atoms: C_11  and  C_12
REMARK    4  A    between atoms: N_14  and  C_15
REMARK    5  A    between atoms: C_15  and  C_16
REMARK    6  A    between atoms: C_15  and  C_23
REMARK    7  A    between atoms: C_16  and  C_17
REMARK    8  A    between atoms: N_25  and  C_26
REMARK                            x       y       z     vdW  Elec       q    Type
REMARK                         _______ _______ _______ _____ _____    ______ ____
ROOT
ATOM      1  C   UNL     1      -0.279  10.916  18.387  0.00  0.00    +0.000 C 
ENDROOT
BRANCH   1   2
ATOM      2  C   UNL     1      -0.268  12.472  18.699  0.00  0.00    +0.000 C 
ATOM      3  O   UNL     1      -0.446  13.283  17.777  0.00  0.00    +0.000 OA
ATOM      4  N   UNL     1      -0.077  12.974  19.990  0.00  0.00    +0.000 N 
ATOM      5  C   UNL     1      -0.411  14.373  20.263  0.00  0.00    +0.000 C 
ATOM      6  C   UNL     1       0.074  12.198  21.163  0.00  0.00    +0.000 A 
ATOM      7  C   UNL     1      -1.345  12.223  22.132  0.00  0.00    +0.000 A 
ATOM      8  C   UNL     1      -1.550  10.932  23.301  0.00  0.00    +0.000 A 
ATOM      9  C   UNL     1      -0.134   9.501  23.479  0.00  0.00    +0.000 A 
ATOM     10  N   UNL     1       1.287   9.688  22.457  0.00  0.00    +0.000 NA
ATOM     11  N   UNL     1       1.332  11.034  21.339  0.00  0.00    +0.000 NA
ENDBRANCH   1   2
BRANCH   1  14
ATOM     12  C   UNL     1       1.515   9.105  18.322  0.00  0.00    +0.000 C 
ATOM     13  O   UNL     1       1.235   8.811  17.160  0.00  0.00    +0.000 OA
ATOM     14  N   UNL     1       0.836  10.124  18.998  0.00  0.00    +0.000 N 
ATOM     15  H   UNL     1       1.133  10.378  19.930  0.00  0.00    +0.000 HD
BRANCH  12  16
ATOM     16  C   UNL     1       2.656   8.383  19.096  0.00  0.00    +0.000 C 
BRANCH  16  26
ATOM     17  C   UNL     1       1.414   5.795  20.819  0.00  0.00    +0.000 C 
ATOM     18  C   UNL     1       2.284   5.794  19.603  0.00  0.00    +0.000 A 
ATOM     19  N   UNL     1       2.671   4.546  19.094  0.00  0.00    +0.000 N 
ATOM     20  C   UNL     1       3.378   4.638  17.920  0.00  0.00    +0.000 A 
ATOM     21  C   UNL     1       4.217   3.502  16.820  0.00  0.00    +0.000 A 
ATOM     22  C   UNL     1       5.395   4.021  15.594  0.00  0.00    +0.000 A 
ATOM     23  C   UNL     1       5.733   5.774  15.450  0.00  0.00    +0.000 A 
ATOM     24  C   UNL     1       4.700   6.994  16.687  0.00  0.00    +0.000 A 
ATOM     25  C   UNL     1       3.577   6.310  17.874  0.00  0.00    +0.000 A 
ATOM     26  C   UNL     1       2.790   6.884  18.878  0.00  0.00    +0.000 A 
ATOM     27  H   UNL     1       2.517   3.674  19.582  0.00  0.00    +0.000 HD
ENDBRANCH  16  26
ENDBRANCH  12  16
ENDBRANCH   1  14
BRANCH   1  28
ATOM     28  C   UNL     1      -1.661  10.280  18.762  0.00  0.00    +0.000 C 
BRANCH  28  29
ATOM     29  C   UNL     1      -2.882  10.931  18.129  0.00  0.00    +0.000 A 
ATOM     30  C   UNL     1      -3.761  11.701  18.903  0.00  0.00    +0.000 A 
ATOM     31  C   UNL     1      -4.942  12.206  18.350  0.00  0.00    +0.000 A 
ATOM     32  C   UNL     1      -5.255  11.949  17.017  0.00  0.00    +0.000 A 
ATOM     33  C   UNL     1      -4.367  11.233  16.223  0.00  0.00    +0.000 A 
ATOM     34  C   UNL     1      -3.176  10.759  16.770  0.00  0.00    +0.000 A 
ENDBRANCH  28  29
ENDBRANCH   1  28
TORSDOF 6
ENDMDL
MODEL 6
REMARK VINA RESULT:      -7.8      2.517      4.845
REMARK  Name = 
REMARK  8 active torsions:
REMARK  status: ('A' for Active; 'I' for Inactive)
REMARK    1  A    between atoms: C_1  and  C_2
REMARK    2  A    between atoms: C_10  and  C_11
REMARK    3  A    between atoms: C_11  and  C_12
REMARK    4  A    between atoms: N_14  and  C_15
REMARK    5  A    between atoms: C_15  and  C_16
REMARK    6  A    between atoms: C_15  and  C_23
REMARK    7  A    between atoms: C_16  and  C_17
REMARK    8  A    between atoms: N_25  and  C_26
REMARK                            x       y       z     vdW  Elec       q    Type
REMARK                         _______ _______ _______ _____ _____    ______ ____
ROOT
ATOM      1  C   UNL     1      -0.854  10.941  21.242  0.00  0.00    +0.000 C 
ENDROOT
BRANCH   1   2
ATOM      2  C   UNL     1      -0.137  12.065  20.379  0.00  0.00    +0.000 C 
ATOM      3  O   UNL     1       1.041  12.365  20.623  0.00  0.00    +0.000 OA
ATOM      4  N   UNL     1      -0.785  12.731  19.334  0.00  0.00    +0.000 N 
ATOM      5  C   UNL     1       0.017  13.496  18.377  0.00  0.00    +0.000 C 
ATOM      6  C   UNL     1      -2.099  12.472  18.879  0.00  0.00    +0.000 A 
ATOM      7  C   UNL     1      -2.100  11.617  17.387  0.00  0.00    +0.000 A 
ATOM      8  C   UNL     1      -3.561  10.750  16.953  0.00  0.00    +0.000 A 
ATOM      9  C   UNL     1      -5.164  10.796  18.183  0.00  0.00    +0.000 A 
ATOM     10  N   UNL     1      -5.001  11.789  19.626  0.00  0.00    +0.000 NA
ATOM     11  N   UNL     1      -3.471  12.589  19.914  0.00  0.00    +0.000 NA
ENDBRANCH   1   2
BRANCH   1  14
ATOM     12  C   UNL     1       0.867   9.073  21.459  0.00  0.00    +0.000 C 
ATOM     13  O   UNL     1       1.637   9.800  22.088  0.00  0.00    +0.000 OA
ATOM     14  N   UNL     1      -0.373   9.542  21.014  0.00  0.00    +0.000 N 
ATOM     15  H   UNL     1      -1.003   8.900  20.553  0.00  0.00    +0.000 HD
BRANCH  12  16
ATOM     16  C   UNL     1       1.215   7.589  21.148  0.00  0.00    +0.000 C 
BRANCH  16  26
ATOM     17  C   UNL     1       1.685   9.495  18.436  0.00  0.00    +0.000 C 
ATOM     18  C   UNL     1       2.169   8.107  18.715  0.00  0.00    +0.000 A 
ATOM     19  N   UNL     1       2.915   7.476  17.710  0.00  0.00    +0.000 N 
ATOM     20  C   UNL     1       3.405   6.251  18.091  0.00  0.00    +0.000 A 
ATOM     21  C   UNL     1       4.323   4.922  17.316  0.00  0.00    +0.000 A 
ATOM     22  C   UNL     1       4.431   3.285  17.997  0.00  0.00    +0.000 A 
ATOM     23  C   UNL     1       3.593   2.968  19.548  0.00  0.00    +0.000 A 
ATOM     24  C   UNL     1       2.632   4.535  20.389  0.00  0.00    +0.000 A 
ATOM     25  C   UNL     1       2.599   6.102  19.563  0.00  0.00    +0.000 A 
ATOM     26  C   UNL     1       1.979   7.320  19.861  0.00  0.00    +0.000 A 
ATOM     27  H   UNL     1       3.013   7.845  16.774  0.00  0.00    +0.000 HD
ENDBRANCH  16  26
ENDBRANCH  12  16
ENDBRANCH   1  14
BRANCH   1  28
ATOM     28  C   UNL     1      -0.798  11.289  22.769  0.00  0.00    +0.000 C 
BRANCH  28  29
ATOM     29  C   UNL     1      -1.777  12.353  23.242  0.00  0.00    +0.000 A 
ATOM     30  C   UNL     1      -1.348  13.668  23.466  0.00  0.00    +0.000 A 
ATOM     31  C   UNL     1      -2.218  14.619  24.007  0.00  0.00    +0.000 A 
ATOM     32  C   UNL     1      -3.527  14.267  24.328  0.00  0.00    +0.000 A 
ATOM     33  C   UNL     1      -3.982  12.981  24.062  0.00  0.00    +0.000 A 
ATOM     34  C   UNL     1      -3.121  12.045  23.493  0.00  0.00    +0.000 A 
ENDBRANCH  28  29
ENDBRANCH   1  28
TORSDOF 6
ENDMDL
MODEL 7
REMARK VINA RESULT:      -7.7      5.091      8.278
REMARK  Name = 
REMARK  8 active torsions:
REMARK  status: ('A' for Active; 'I' for Inactive)
REMARK    1  A    between atoms: C_1  and  C_2
REMARK    2  A    between atoms: C_10  and  C_11
REMARK    3  A    between atoms: C_11  and  C_12
REMARK    4  A    between atoms: N_14  and  C_15
REMARK    5  A    between atoms: C_15  and  C_16
REMARK    6  A    between atoms: C_15  and  C_23
REMARK    7  A    between atoms: C_16  and  C_17
REMARK    8  A    between atoms: N_25  and  C_26
REMARK                            x       y       z     vdW  Elec       q    Type
REMARK                         _______ _______ _______ _____ _____    ______ ____
ROOT
ATOM      1  C   UNL     1      -1.783  12.790  22.738  0.00  0.00    +0.000 C 
ENDROOT
BRANCH   1   2
ATOM      2  C   UNL     1      -1.503  14.136  23.533  0.00  0.00    +0.000 C 
ATOM      3  O   UNL     1      -0.392  14.679  23.444  0.00  0.00    +0.000 OA
ATOM      4  N   UNL     1      -2.476  14.749  24.329  0.00  0.00    +0.000 N 
ATOM      5  C   UNL     1      -2.273  16.135  24.753  0.00  0.00    +0.000 C 
ATOM      6  C   UNL     1      -3.809  14.306  24.491  0.00  0.00    +0.000 A 
ATOM      7  C   UNL     1      -4.919  15.291  23.624  0.00  0.00    +0.000 A 
ATOM      8  C   UNL     1      -6.493  14.610  23.259  0.00  0.00    +0.000 A 
ATOM      9  C   UNL     1      -6.947  12.738  23.872  0.00  0.00    +0.000 A 
ATOM     10  N   UNL     1      -5.712  11.914  24.817  0.00  0.00    +0.000 NA
ATOM     11  N   UNL     1      -4.191  12.735  25.089  0.00  0.00    +0.000 NA
ENDBRANCH   1   2
BRANCH   1  14
ATOM     12  C   UNL     1      -3.581  13.357  21.021  0.00  0.00    +0.000 C 
ATOM     13  O   UNL     1      -2.829  14.129  20.427  0.00  0.00    +0.000 OA
ATOM     14  N   UNL     1      -3.156  12.655  22.153  0.00  0.00    +0.000 N 
ATOM     15  H   UNL     1      -3.781  11.985  22.579  0.00  0.00    +0.000 HD
BRANCH  12  16
ATOM     16  C   UNL     1      -5.037  13.098  20.535  0.00  0.00    +0.000 C 
BRANCH  16  26
ATOM     17  C   UNL     1      -7.603  13.427  18.411  0.00  0.00    +0.000 C 
ATOM     18  C   UNL     1      -6.283  12.755  18.205  0.00  0.00    +0.000 A 
ATOM     19  N   UNL     1      -6.061  12.147  16.962  0.00  0.00    +0.000 N 
ATOM     20  C   UNL     1      -4.789  11.648  16.825  0.00  0.00    +0.000 A 
ATOM     21  C   UNL     1      -3.888  10.712  15.592  0.00  0.00    +0.000 A 
ATOM     22  C   UNL     1      -2.359   9.873  15.929  0.00  0.00    +0.000 A 
ATOM     23  C   UNL     1      -1.686   9.995  17.584  0.00  0.00    +0.000 A 
ATOM     24  C   UNL     1      -2.730  11.119  18.900  0.00  0.00    +0.000 A 
ATOM     25  C   UNL     1      -4.257  11.871  18.408  0.00  0.00    +0.000 A 
ATOM     26  C   UNL     1      -5.206  12.633  19.097  0.00  0.00    +0.000 A 
ATOM     27  H   UNL     1      -6.785  12.017  16.269  0.00  0.00    +0.000 HD
ENDBRANCH  16  26
ENDBRANCH  12  16
ENDBRANCH   1  14
BRANCH   1  28
ATOM     28  C   UNL     1      -0.699  12.560  21.629  0.00  0.00    +0.000 C 
BRANCH  28  29
ATOM     29  C   UNL     1      -0.165  11.141  21.510  0.00  0.00    +0.000 A 
ATOM     30  C   UNL     1       0.630  10.768  20.418  0.00  0.00    +0.000 A 
ATOM     31  C   UNL     1       1.028   9.438  20.248  0.00  0.00    +0.000 A 
ATOM     32  C   UNL     1       0.638   8.468  21.169  0.00  0.00    +0.000 A 
ATOM     33  C   UNL     1      -0.105   8.834  22.286  0.00  0.00    +0.000 A 
ATOM     34  C   UNL     1      -0.473  10.166  22.468  0.00  0.00    +0.000 A 
ENDBRANCH  28  29
ENDBRANCH   1  28
TORSDOF 6
ENDMDL
MODEL 8
REMARK VINA RESULT:      -7.6      2.094      7.991
REMARK  Name = 
REMARK  8 active torsions:
REMARK  status: ('A' for Active; 'I' for Inactive)
REMARK    1  A    between atoms: C_1  and  C_2
REMARK    2  A    between atoms: C_10  and  C_11
REMARK    3  A    between atoms: C_11  and  C_12
REMARK    4  A    between atoms: N_14  and  C_15
REMARK    5  A    between atoms: C_15  and  C_16
REMARK    6  A    between atoms: C_15  and  C_23
REMARK    7  A    between atoms: C_16  and  C_17
REMARK    8  A    between atoms: N_25  and  C_26
REMARK                            x       y       z     vdW  Elec       q    Type
REMARK                         _______ _______ _______ _____ _____    ______ ____
ROOT
ATOM      1  C   UNL     1       1.357   9.798  18.829  0.00  0.00    +0.000 C 
ENDROOT
BRANCH   1   2
ATOM      2  C   UNL     1       1.834  11.309  18.722  0.00  0.00    +0.000 C 
ATOM      3  O   UNL     1       2.429  11.692  17.704  0.00  0.00    +0.000 OA
ATOM      4  N   UNL     1       1.595  12.241  19.737  0.00  0.00    +0.000 N 
ATOM      5  C   UNL     1       1.753  13.666  19.442  0.00  0.00    +0.000 C 
ATOM      6  C   UNL     1       0.878  11.995  20.931  0.00  0.00    +0.000 A 
ATOM      7  C   UNL     1      -0.689  12.703  20.891  0.00  0.00    +0.000 A 
ATOM      8  C   UNL     1      -1.891  12.070  22.000  0.00  0.00    +0.000 A 
ATOM      9  C   UNL     1      -1.402  10.577  23.271  0.00  0.00    +0.000 A 
ATOM     10  N   UNL     1       0.272  10.037  23.221  0.00  0.00    +0.000 NA
ATOM     11  N   UNL     1       1.346  10.772  22.050  0.00  0.00    +0.000 NA
ENDBRANCH   1   2
BRANCH   1  14
ATOM     12  C   UNL     1      -1.059  10.355  18.233  0.00  0.00    +0.000 C 
ATOM     13  O   UNL     1      -0.707  11.247  17.462  0.00  0.00    +0.000 OA
ATOM     14  N   UNL     1      -0.123   9.591  18.937  0.00  0.00    +0.000 N 
ATOM     15  H   UNL     1      -0.446   8.828  19.515  0.00  0.00    +0.000 HD
BRANCH  12  16
ATOM     16  C   UNL     1      -2.560  10.007  18.450  0.00  0.00    +0.000 C 
BRANCH  16  26
ATOM     17  C   UNL     1      -3.106  10.110  15.149  0.00  0.00    +0.000 C 
ATOM     18  C   UNL     1      -3.797  10.854  16.248  0.00  0.00    +0.000 A 
ATOM     19  N   UNL     1      -4.812  11.746  15.877  0.00  0.00    +0.000 N 
ATOM     20  C   UNL     1      -5.460  12.304  16.952  0.00  0.00    +0.000 A 
ATOM     21  C   UNL     1      -6.737  13.534  17.201  0.00  0.00    +0.000 A 
ATOM     22  C   UNL     1      -7.045  14.317  18.766  0.00  0.00    +0.000 A 
ATOM     23  C   UNL     1      -6.033  13.826  20.160  0.00  0.00    +0.000 A 
ATOM     24  C   UNL     1      -4.655  12.390  19.810  0.00  0.00    +0.000 A 
ATOM     25  C   UNL     1      -4.458  11.728  18.177  0.00  0.00    +0.000 A 
ATOM     26  C   UNL     1      -3.571  10.794  17.632  0.00  0.00    +0.000 A 
ATOM     27  H   UNL     1      -4.995  12.015  14.919  0.00  0.00    +0.000 HD
ENDBRANCH  16  26
ENDBRANCH  12  16
ENDBRANCH   1  14
BRANCH   1  28
ATOM     28  C   UNL     1       1.937   8.945  17.649  0.00  0.00    +0.000 C 
BRANCH  28  29
ATOM     29  C   UNL     1       2.716   7.702  18.053  0.00  0.00    +0.000 A 
ATOM     30  C   UNL     1       2.362   6.979  19.200  0.00  0.00    +0.000 A 
ATOM     31  C   UNL     1       3.145   5.905  19.635  0.00  0.00    +0.000 A 
ATOM     32  C   UNL     1       4.287   5.539  18.926  0.00  0.00    +0.000 A 
ATOM     33  C   UNL     1       4.620   6.213  17.757  0.00  0.00    +0.000 A 
ATOM     34  C   UNL     1       3.820   7.263  17.309  0.00  0.00    +0.000 A 
ENDBRANCH  28  29
ENDBRANCH   1  28
TORSDOF 6
ENDMDL
MODEL 9
REMARK VINA RESULT:      -7.5      2.640      9.006
REMARK  Name = 
REMARK  8 active torsions:
REMARK  status: ('A' for Active; 'I' for Inactive)
REMARK    1  A    between atoms: C_1  and  C_2
REMARK    2  A    between atoms: C_10  and  C_11
REMARK    3  A    between atoms: C_11  and  C_12
REMARK    4  A    between atoms: N_14  and  C_15
REMARK    5  A    between atoms: C_15  and  C_16
REMARK    6  A    between atoms: C_15  and  C_23
REMARK    7  A    between atoms: C_16  and  C_17
REMARK    8  A    between atoms: N_25  and  C_26
REMARK                            x       y       z     vdW  Elec       q    Type
REMARK                         _______ _______ _______ _____ _____    ______ ____
ROOT
ATOM      1  C   UNL     1       4.457   5.523  18.611  0.00  0.00    +0.000 C 
ENDROOT
BRANCH   1   2
ATOM      2  C   UNL     1       5.358   4.414  19.304  0.00  0.00    +0.000 C 
ATOM      3  O   UNL     1       6.556   4.649  19.525  0.00  0.00    +0.000 OA
ATOM      4  N   UNL     1       4.847   3.172  19.692  0.00  0.00    +0.000 N 
ATOM      5  C   UNL     1       5.625   2.342  20.613  0.00  0.00    +0.000 C 
ATOM      6  C   UNL     1       3.498   2.762  19.577  0.00  0.00    +0.000 A 
ATOM      7  C   UNL     1       2.697   2.768  21.099  0.00  0.00    +0.000 A 
ATOM      8  C   UNL     1       0.945   2.825  21.091  0.00  0.00    +0.000 A 
ATOM      9  C   UNL     1      -0.054   2.863  19.334  0.00  0.00    +0.000 A 
ATOM     10  N   UNL     1       0.935   2.770  17.881  0.00  0.00    +0.000 NA
ATOM     11  N   UNL     1       2.675   2.722  18.064  0.00  0.00    +0.000 NA
ENDBRANCH   1   2
BRANCH   1  14
ATOM     12  C   UNL     1       2.387   6.521  19.715  0.00  0.00    +0.000 C 
ATOM     13  O   UNL     1       1.642   5.750  19.110  0.00  0.00    +0.000 OA
ATOM     14  N   UNL     1       3.774   6.479  19.541  0.00  0.00    +0.000 N 
ATOM     15  H   UNL     1       4.358   7.086  20.099  0.00  0.00    +0.000 HD
BRANCH  12  16
ATOM     16  C   UNL     1       1.834   7.568  20.726  0.00  0.00    +0.000 C 
BRANCH  16  26
ATOM     17  C   UNL     1       2.118   9.005  17.715  0.00  0.00    +0.000 C 
ATOM     18  C   UNL     1       1.276   9.410  18.883  0.00  0.00    +0.000 A 
ATOM     19  N   UNL     1       0.494  10.564  18.739  0.00  0.00    +0.000 N 
ATOM     20  C   UNL     1      -0.323  10.801  19.818  0.00  0.00    +0.000 A 
ATOM     21  C   UNL     1      -1.467  12.083  20.322  0.00  0.00    +0.000 A 
ATOM     22  C   UNL     1      -2.048  12.271  21.990  0.00  0.00    +0.000 A 
ATOM     23  C   UNL     1      -1.468  11.099  23.214  0.00  0.00    +0.000 A 
ATOM     24  C   UNL     1      -0.227   9.647  22.553  0.00  0.00    +0.000 A 
ATOM     25  C   UNL     1       0.277   9.617  20.854  0.00  0.00    +0.000 A 
ATOM     26  C   UNL     1       1.152   8.793  20.138  0.00  0.00    +0.000 A 
ATOM     27  H   UNL     1       0.581  11.202  17.959  0.00  0.00    +0.000 HD
ENDBRANCH  16  26
ENDBRANCH  12  16
ENDBRANCH   1  14
BRANCH   1  28
ATOM     28  C   UNL     1       5.274   6.312  17.531  0.00  0.00    +0.000 C 
BRANCH  28  29
ATOM     29  C   UNL     1       5.724   5.506  16.322  0.00  0.00    +0.000 A 
ATOM     30  C   UNL     1       7.057   5.548  15.892  0.00  0.00    +0.000 A 
ATOM     31  C   UNL     1       7.447   4.899  14.716  0.00  0.00    +0.000 A 
ATOM     32  C   UNL     1       6.510   4.198  13.960  0.00  0.00    +0.000 A 
ATOM     33  C   UNL     1       5.195   4.103  14.404  0.00  0.00    +0.000 A 
ATOM     34  C   UNL     1       4.818   4.725  15.592  0.00  0.00    +0.000 A 
ENDBRANCH  28  29
ENDBRANCH   1  28
TORSDOF 6
ENDMDL
