MODEL 1
REMARK VINA RESULT:      -8.1      0.000      0.000
REMARK  Name = 
REMARK  4 active torsions:
REMARK  status: ('A' for Active; 'I' for Inactive)
REMARK    1  A    between atoms: C_2  and  C_19
REMARK    2  A    between atoms: N_3  and  C_4
REMARK    3  A    between atoms: C_7  and  S_8
REMARK    4  A    between atoms: S_8  and  N_11
REMARK                            x       y       z     vdW  Elec       q    Type
REMARK                         _______ _______ _______ _____ _____    ______ ____
ROOT
ATOM      1  C   UNL     1       0.774   9.191  19.860  0.00  0.00    +0.000 A 
ATOM      2  C   UNL     1       1.203   8.141  20.674  0.00  0.00    +0.000 A 
ATOM      3  C   UNL     1       2.139   7.216  20.216  0.00  0.00    +0.000 A 
ATOM      4  C   UNL     1       2.643   7.329  18.921  0.00  0.00    +0.000 A 
ATOM      5  C   UNL     1       2.240   8.379  18.094  0.00  0.00    +0.000 A 
ATOM      6  C   UNL     1       1.292   9.300  18.561  0.00  0.00    +0.000 A 
ENDROOT
BRANCH   1   9
ATOM      7  O   UNL     1       1.160  11.533  21.582  0.00  0.00    +0.000 OA
ATOM      8  C   UNL     1       0.060  11.195  21.156  0.00  0.00    +0.000 C 
ATOM      9  N   UNL     1      -0.179  10.143  20.284  0.00  0.00    +0.000 N 
ATOM     10  H   UNL     1      -1.095  10.080  19.846  0.00  0.00    +0.000 HD
BRANCH   8  11
ATOM     11  C   UNL     1      -1.105  11.995  21.584  0.00  0.00    +0.000 A 
ATOM     12  C   UNL     1      -1.533  13.115  20.871  0.00  0.00    +0.000 A 
ATOM     13  F   UNL     1      -0.911  13.486  19.741  0.00  0.00    +0.000 F 
ATOM     14  C   UNL     1      -2.616  13.868  21.320  0.00  0.00    +0.000 A 
ATOM     15  F   UNL     1      -3.013  14.940  20.622  0.00  0.00    +0.000 F 
ATOM     16  C   UNL     1      -3.282  13.508  22.481  0.00  0.00    +0.000 A 
ATOM     17  F   UNL     1      -4.328  14.230  22.905  0.00  0.00    +0.000 F 
ATOM     18  C   UNL     1      -2.869  12.395  23.197  0.00  0.00    +0.000 A 
ATOM     19  F   UNL     1      -3.522  12.038  24.312  0.00  0.00    +0.000 F 
ATOM     20  C   UNL     1      -1.788  11.642  22.754  0.00  0.00    +0.000 A 
ATOM     21  F   UNL     1      -1.447  10.554  23.458  0.00  0.00    +0.000 F 
ENDBRANCH   8  11
ENDBRANCH   1   9
BRANCH   4  22
ATOM     22  S   UNL     1       3.868   6.161  18.389  0.00  0.00    +0.000 S 
ATOM     23  O   UNL     1       4.747   6.847  17.466  0.00  0.00    +0.000 OA
ATOM     24  O   UNL     1       4.388   5.501  19.566  0.00  0.00    +0.000 OA
BRANCH  22  25
ATOM     25  N   UNL     1       2.941   5.106  17.444  0.00  0.00    +0.000 N 
ATOM     26  C   UNL     1       2.697   3.884  18.103  0.00  0.00    +0.000 A 
ATOM     27  N   UNL     1       3.407   2.832  17.774  0.00  0.00    +0.000 NA
ATOM     28  C   UNL     1       3.007   1.766  18.556  0.00  0.00    +0.000 A 
ATOM     29  C   UNL     1       1.919   1.997  19.373  0.00  0.00    +0.000 A 
ATOM     30  S   UNL     1       1.418   3.630  19.208  0.00  0.00    +0.000 S 
ATOM     31  H   UNL     1       3.496   4.925  16.606  0.00  0.00    +0.000 HD
ENDBRANCH  22  25
ENDBRANCH   4  22
TORSDOF 4
ENDMDL
MODEL 2
REMARK VINA RESULT:      -8.1      0.134      1.979
REMARK  Name = 
REMARK  4 active torsions:
REMARK  status: ('A' for Active; 'I' for Inactive)
REMARK    1  A    between atoms: C_2  and  C_19
REMARK    2  A    between atoms: N_3  and  C_4
REMARK    3  A    between atoms: C_7  and  S_8
REMARK    4  A    between atoms: S_8  and  N_11
REMARK                            x       y       z     vdW  Elec       q    Type
REMARK                         _______ _______ _______ _____ _____    ______ ____
ROOT
ATOM      1  C   UNL     1       0.846   9.184  19.800  0.00  0.00    +0.000 A 
ATOM      2  C   UNL     1       1.314   8.141  20.602  0.00  0.00    +0.000 A 
ATOM      3  C   UNL     1       2.233   7.216  20.110  0.00  0.00    +0.000 A 
ATOM      4  C   UNL     1       2.681   7.324  18.794  0.00  0.00    +0.000 A 
ATOM      5  C   UNL     1       2.240   8.366  17.978  0.00  0.00    +0.000 A 
ATOM      6  C   UNL     1       1.309   9.286  18.479  0.00  0.00    +0.000 A 
ENDROOT
BRANCH   1   9
ATOM      7  O   UNL     1       1.269  11.456  21.605  0.00  0.00    +0.000 OA
ATOM      8  C   UNL     1       0.164  11.151  21.167  0.00  0.00    +0.000 C 
ATOM      9  N   UNL     1      -0.092  10.136  20.259  0.00  0.00    +0.000 N 
ATOM     10  H   UNL     1      -1.008  10.102  19.819  0.00  0.00    +0.000 HD
BRANCH   8  11
ATOM     11  C   UNL     1      -0.988  11.954  21.624  0.00  0.00    +0.000 A 
ATOM     12  C   UNL     1      -1.719  11.617  22.763  0.00  0.00    +0.000 A 
ATOM     13  F   UNL     1      -1.374  10.554  23.506  0.00  0.00    +0.000 F 
ATOM     14  C   UNL     1      -2.821  12.377  23.148  0.00  0.00    +0.000 A 
ATOM     15  F   UNL     1      -3.510  12.038  24.245  0.00  0.00    +0.000 F 
ATOM     16  C   UNL     1      -3.199  13.484  22.403  0.00  0.00    +0.000 A 
ATOM     17  F   UNL     1      -4.254  14.218  22.781  0.00  0.00    +0.000 F 
ATOM     18  C   UNL     1      -2.479  13.833  21.271  0.00  0.00    +0.000 A 
ATOM     19  F   UNL     1      -2.835  14.910  20.558  0.00  0.00    +0.000 F 
ATOM     20  C   UNL     1      -1.380  13.075  20.881  0.00  0.00    +0.000 A 
ATOM     21  F   UNL     1      -0.693  13.471  19.802  0.00  0.00    +0.000 F 
ENDBRANCH   8  11
ENDBRANCH   1   9
BRANCH   4  22
ATOM     22  S   UNL     1       3.888   6.157  18.218  0.00  0.00    +0.000 S 
ATOM     23  O   UNL     1       4.695   6.827  17.221  0.00  0.00    +0.000 OA
ATOM     24  O   UNL     1       4.492   5.538  19.378  0.00  0.00    +0.000 OA
BRANCH  22  25
ATOM     25  N   UNL     1       2.918   5.062  17.365  0.00  0.00    +0.000 N 
ATOM     26  C   UNL     1       2.713   3.867  18.086  0.00  0.00    +0.000 A 
ATOM     27  N   UNL     1       3.410   2.804  17.765  0.00  0.00    +0.000 NA
ATOM     28  C   UNL     1       3.054   1.770  18.609  0.00  0.00    +0.000 A 
ATOM     29  C   UNL     1       2.009   2.033  19.469  0.00  0.00    +0.000 A 
ATOM     30  S   UNL     1       1.493   3.657  19.264  0.00  0.00    +0.000 S 
ATOM     31  H   UNL     1       3.431   4.848  16.508  0.00  0.00    +0.000 HD
ENDBRANCH  22  25
ENDBRANCH   4  22
TORSDOF 4
ENDMDL
MODEL 3
REMARK VINA RESULT:      -8.0      0.477      2.201
REMARK  Name = 
REMARK  4 active torsions:
REMARK  status: ('A' for Active; 'I' for Inactive)
REMARK    1  A    between atoms: C_2  and  C_19
REMARK    2  A    between atoms: N_3  and  C_4
REMARK    3  A    between atoms: C_7  and  S_8
REMARK    4  A    between atoms: S_8  and  N_11
REMARK                            x       y       z     vdW  Elec       q    Type
REMARK                         _______ _______ _______ _____ _____    ______ ____
ROOT
ATOM      1  C   UNL     1       0.588   9.421  20.027  0.00  0.00    +0.000 A 
ATOM      2  C   UNL     1       1.072   9.488  18.720  0.00  0.00    +0.000 A 
ATOM      3  C   UNL     1       1.968   8.535  18.238  0.00  0.00    +0.000 A 
ATOM      4  C   UNL     1       2.400   7.509  19.078  0.00  0.00    +0.000 A 
ATOM      5  C   UNL     1       1.919   7.413  20.384  0.00  0.00    +0.000 A 
ATOM      6  C   UNL     1       1.024   8.381  20.862  0.00  0.00    +0.000 A 
ENDROOT
BRANCH   1   9
ATOM      7  O   UNL     1       1.176  11.896  21.486  0.00  0.00    +0.000 OA
ATOM      8  C   UNL     1       0.032  11.492  21.295  0.00  0.00    +0.000 C 
ATOM      9  N   UNL     1      -0.314  10.372  20.555  0.00  0.00    +0.000 N 
ATOM     10  H   UNL     1      -1.290  10.247  20.299  0.00  0.00    +0.000 HD
BRANCH   8  11
ATOM     11  C   UNL     1      -1.069  12.285  21.876  0.00  0.00    +0.000 A 
ATOM     12  C   UNL     1      -1.866  11.795  22.912  0.00  0.00    +0.000 A 
ATOM     13  F   UNL     1      -1.632  10.584  23.439  0.00  0.00    +0.000 F 
ATOM     14  C   UNL     1      -2.918  12.556  23.415  0.00  0.00    +0.000 A 
ATOM     15  F   UNL     1      -3.672  12.070  24.409  0.00  0.00    +0.000 F 
ATOM     16  C   UNL     1      -3.182  13.813  22.893  0.00  0.00    +0.000 A 
ATOM     17  F   UNL     1      -4.190  14.546  23.386  0.00  0.00    +0.000 F 
ATOM     18  C   UNL     1      -2.396  14.314  21.867  0.00  0.00    +0.000 A 
ATOM     19  F   UNL     1      -2.641  15.535  21.371  0.00  0.00    +0.000 F 
ATOM     20  C   UNL     1      -1.346  13.557  21.359  0.00  0.00    +0.000 A 
ATOM     21  F   UNL     1      -0.591  14.095  20.393  0.00  0.00    +0.000 F 
ENDBRANCH   8  11
ENDBRANCH   1   9
BRANCH   4  22
ATOM     22  S   UNL     1       3.503   6.288  18.415  0.00  0.00    +0.000 S 
ATOM     23  O   UNL     1       4.260   6.919  17.355  0.00  0.00    +0.000 OA
ATOM     24  O   UNL     1       4.167   5.643  19.527  0.00  0.00    +0.000 OA
BRANCH  22  25
ATOM     25  N   UNL     1       2.421   5.238  17.645  0.00  0.00    +0.000 N 
ATOM     26  C   UNL     1       2.333   3.994  18.304  0.00  0.00    +0.000 A 
ATOM     27  N   UNL     1       2.978   2.966  17.810  0.00  0.00    +0.000 NA
ATOM     28  C   UNL     1       2.760   1.873  18.626  0.00  0.00    +0.000 A 
ATOM     29  C   UNL     1       1.855   2.061  19.650  0.00  0.00    +0.000 A 
ATOM     30  S   UNL     1       1.307   3.687  19.636  0.00  0.00    +0.000 S 
ATOM     31  H   UNL     1       2.799   5.089  16.708  0.00  0.00    +0.000 HD
ENDBRANCH  22  25
ENDBRANCH   4  22
TORSDOF 4
ENDMDL
MODEL 4
REMARK VINA RESULT:      -7.9      5.286     10.004
REMARK  Name = 
REMARK  4 active torsions:
REMARK  status: ('A' for Active; 'I' for Inactive)
REMARK    1  A    between atoms: C_2  and  C_19
REMARK    2  A    between atoms: N_3  and  C_4
REMARK    3  A    between atoms: C_7  and  S_8
REMARK    4  A    between atoms: S_8  and  N_11
REMARK                            x       y       z     vdW  Elec       q    Type
REMARK                         _______ _______ _______ _____ _____    ______ ____
ROOT
ATOM      1  C   UNL     1       1.132   8.686  21.143  0.00  0.00    +0.000 A 
ATOM      2  C   UNL     1       0.963   9.628  20.128  0.00  0.00    +0.000 A 
ATOM      3  C   UNL     1       0.300  10.830  20.369  0.00  0.00    +0.000 A 
ATOM      4  C   UNL     1      -0.218  11.088  21.637  0.00  0.00    +0.000 A 
ATOM      5  C   UNL     1      -0.049  10.167  22.672  0.00  0.00    +0.000 A 
ATOM      6  C   UNL     1       0.613   8.958  22.417  0.00  0.00    +0.000 A 
ENDROOT
BRANCH   1   9
ATOM      7  O   UNL     1       2.198   7.569  18.649  0.00  0.00    +0.000 OA
ATOM      8  C   UNL     1       2.213   6.956  19.713  0.00  0.00    +0.000 C 
ATOM      9  N   UNL     1       1.791   7.453  20.936  0.00  0.00    +0.000 N 
ATOM     10  H   UNL     1       2.033   6.933  21.776  0.00  0.00    +0.000 HD
BRANCH   8  11
ATOM     11  C   UNL     1       2.757   5.583  19.692  0.00  0.00    +0.000 A 
ATOM     12  C   UNL     1       2.031   4.494  20.175  0.00  0.00    +0.000 A 
ATOM     13  F   UNL     1       0.787   4.658  20.651  0.00  0.00    +0.000 F 
ATOM     14  C   UNL     1       2.586   3.216  20.171  0.00  0.00    +0.000 A 
ATOM     15  F   UNL     1       1.874   2.183  20.638  0.00  0.00    +0.000 F 
ATOM     16  C   UNL     1       3.867   3.014  19.682  0.00  0.00    +0.000 A 
ATOM     17  F   UNL     1       4.394   1.782  19.672  0.00  0.00    +0.000 F 
ATOM     18  C   UNL     1       4.598   4.087  19.196  0.00  0.00    +0.000 A 
ATOM     19  F   UNL     1       5.831   3.890  18.709  0.00  0.00    +0.000 F 
ATOM     20  C   UNL     1       4.049   5.365  19.200  0.00  0.00    +0.000 A 
ATOM     21  F   UNL     1       4.778   6.364  18.686  0.00  0.00    +0.000 F 
ENDBRANCH   8  11
ENDBRANCH   1   9
BRANCH   4  22
ATOM     22  S   UNL     1      -1.015  12.648  21.919  0.00  0.00    +0.000 S 
ATOM     23  O   UNL     1      -1.002  12.888  23.346  0.00  0.00    +0.000 OA
ATOM     24  O   UNL     1      -0.450  13.606  20.995  0.00  0.00    +0.000 OA
BRANCH  22  25
ATOM     25  N   UNL     1      -2.621  12.282  21.529  0.00  0.00    +0.000 N 
ATOM     26  C   UNL     1      -3.534  12.931  22.386  0.00  0.00    +0.000 A 
ATOM     27  N   UNL     1      -4.088  12.247  23.358  0.00  0.00    +0.000 NA
ATOM     28  C   UNL     1      -4.923  13.087  24.069  0.00  0.00    +0.000 A 
ATOM     29  C   UNL     1      -5.081  14.355  23.549  0.00  0.00    +0.000 A 
ATOM     30  S   UNL     1      -4.096  14.528  22.155  0.00  0.00    +0.000 S 
ATOM     31  H   UNL     1      -2.712  11.272  21.652  0.00  0.00    +0.000 HD
ENDBRANCH  22  25
ENDBRANCH   4  22
TORSDOF 4
ENDMDL
MODEL 5
REMARK VINA RESULT:      -7.9      5.283      9.882
REMARK  Name = 
REMARK  4 active torsions:
REMARK  status: ('A' for Active; 'I' for Inactive)
REMARK    1  A    between atoms: C_2  and  C_19
REMARK    2  A    between atoms: N_3  and  C_4
REMARK    3  A    between atoms: C_7  and  S_8
REMARK    4  A    between atoms: S_8  and  N_11
REMARK                            x       y       z     vdW  Elec       q    Type
REMARK                         _______ _______ _______ _____ _____    ______ ____
ROOT
ATOM      1  C   UNL     1       1.157   8.701  21.163  0.00  0.00    +0.000 A 
ATOM      2  C   UNL     1       1.036   9.673  20.168  0.00  0.00    +0.000 A 
ATOM      3  C   UNL     1       0.355  10.865  20.410  0.00  0.00    +0.000 A 
ATOM      4  C   UNL     1      -0.229  11.083  21.657  0.00  0.00    +0.000 A 
ATOM      5  C   UNL     1      -0.109  10.133  22.672  0.00  0.00    +0.000 A 
ATOM      6  C   UNL     1       0.571   8.934  22.416  0.00  0.00    +0.000 A 
ENDROOT
BRANCH   1   9
ATOM      7  O   UNL     1       2.141   7.552  18.651  0.00  0.00    +0.000 OA
ATOM      8  C   UNL     1       2.213   6.963  19.725  0.00  0.00    +0.000 C 
ATOM      9  N   UNL     1       1.832   7.478  20.954  0.00  0.00    +0.000 N 
ATOM     10  H   UNL     1       2.118   6.981  21.794  0.00  0.00    +0.000 HD
BRANCH   8  11
ATOM     11  C   UNL     1       2.783   5.601  19.710  0.00  0.00    +0.000 A 
ATOM     12  C   UNL     1       4.057   5.339  19.207  0.00  0.00    +0.000 A 
ATOM     13  F   UNL     1       4.827   6.335  18.742  0.00  0.00    +0.000 F 
ATOM     14  C   UNL     1       4.553   4.037  19.177  0.00  0.00    +0.000 A 
ATOM     15  F   UNL     1       5.778   3.805  18.691  0.00  0.00    +0.000 F 
ATOM     16  C   UNL     1       3.783   2.987  19.654  0.00  0.00    +0.000 A 
ATOM     17  F   UNL     1       4.266   1.738  19.632  0.00  0.00    +0.000 F 
ATOM     18  C   UNL     1       2.517   3.234  20.161  0.00  0.00    +0.000 A 
ATOM     19  F   UNL     1       1.777   2.222  20.636  0.00  0.00    +0.000 F 
ATOM     20  C   UNL     1       2.017   4.532  20.190  0.00  0.00    +0.000 A 
ATOM     21  F   UNL     1       0.803   4.727  20.722  0.00  0.00    +0.000 F 
ENDBRANCH   8  11
ENDBRANCH   1   9
BRANCH   4  22
ATOM     22  S   UNL     1      -1.047  12.632  21.943  0.00  0.00    +0.000 S 
ATOM     23  O   UNL     1      -1.039  12.867  23.371  0.00  0.00    +0.000 OA
ATOM     24  O   UNL     1      -0.494  13.601  21.023  0.00  0.00    +0.000 OA
BRANCH  22  25
ATOM     25  N   UNL     1      -2.648  12.245  21.550  0.00  0.00    +0.000 N 
ATOM     26  C   UNL     1      -3.572  12.917  22.378  0.00  0.00    +0.000 A 
ATOM     27  N   UNL     1      -4.132  12.262  23.365  0.00  0.00    +0.000 NA
ATOM     28  C   UNL     1      -4.978  13.120  24.041  0.00  0.00    +0.000 A 
ATOM     29  C   UNL     1      -5.137  14.369  23.479  0.00  0.00    +0.000 A 
ATOM     30  S   UNL     1      -4.139  14.503  22.090  0.00  0.00    +0.000 S 
ATOM     31  H   UNL     1      -2.735  11.239  21.704  0.00  0.00    +0.000 HD
ENDBRANCH  22  25
ENDBRANCH   4  22
TORSDOF 4
ENDMDL
MODEL 6
REMARK VINA RESULT:      -7.7      1.334      2.601
REMARK  Name = 
REMARK  4 active torsions:
REMARK  status: ('A' for Active; 'I' for Inactive)
REMARK    1  A    between atoms: C_2  and  C_19
REMARK    2  A    between atoms: N_3  and  C_4
REMARK    3  A    between atoms: C_7  and  S_8
REMARK    4  A    between atoms: S_8  and  N_11
REMARK                            x       y       z     vdW  Elec       q    Type
REMARK                         _______ _______ _______ _____ _____    ______ ____
ROOT
ATOM      1  C   UNL     1       0.402   9.660  19.941  0.00  0.00    +0.000 A 
ATOM      2  C   UNL     1       0.814   9.721  18.609  0.00  0.00    +0.000 A 
ATOM      3  C   UNL     1       1.716   8.792  18.094  0.00  0.00    +0.000 A 
ATOM      4  C   UNL     1       2.227   7.796  18.925  0.00  0.00    +0.000 A 
ATOM      5  C   UNL     1       1.819   7.705  20.256  0.00  0.00    +0.000 A 
ATOM      6  C   UNL     1       0.917   8.649  20.767  0.00  0.00    +0.000 A 
ENDROOT
BRANCH   1   9
ATOM      7  O   UNL     1       0.972  12.001  21.611  0.00  0.00    +0.000 OA
ATOM      8  C   UNL     1      -0.169  11.640  21.341  0.00  0.00    +0.000 C 
ATOM      9  N   UNL     1      -0.504  10.588  20.502  0.00  0.00    +0.000 N 
ATOM     10  H   UNL     1      -1.470  10.505  20.196  0.00  0.00    +0.000 HD
BRANCH   8  11
ATOM     11  C   UNL     1      -1.280  12.411  21.934  0.00  0.00    +0.000 A 
ATOM     12  C   UNL     1      -2.049  11.910  22.984  0.00  0.00    +0.000 A 
ATOM     13  F   UNL     1      -1.780  10.707  23.515  0.00  0.00    +0.000 F 
ATOM     14  C   UNL     1      -3.111  12.649  23.499  0.00  0.00    +0.000 A 
ATOM     15  F   UNL     1      -3.838  12.152  24.508  0.00  0.00    +0.000 F 
ATOM     16  C   UNL     1      -3.411  13.897  22.974  0.00  0.00    +0.000 A 
ATOM     17  F   UNL     1      -4.428  14.609  23.478  0.00  0.00    +0.000 F 
ATOM     18  C   UNL     1      -2.652  14.409  21.933  0.00  0.00    +0.000 A 
ATOM     19  F   UNL     1      -2.933  15.621  21.434  0.00  0.00    +0.000 F 
ATOM     20  C   UNL     1      -1.593  13.673  21.414  0.00  0.00    +0.000 A 
ATOM     21  F   UNL     1      -0.865  14.223  20.433  0.00  0.00    +0.000 F 
ENDBRANCH   8  11
ENDBRANCH   1   9
BRANCH   4  22
ATOM     22  S   UNL     1       3.336   6.602  18.222  0.00  0.00    +0.000 S 
ATOM     23  O   UNL     1       2.528   5.562  17.623  0.00  0.00    +0.000 OA
ATOM     24  O   UNL     1       4.325   7.320  17.449  0.00  0.00    +0.000 OA
BRANCH  22  25
ATOM     25  N   UNL     1       4.015   5.914  19.613  0.00  0.00    +0.000 N 
ATOM     26  C   UNL     1       3.737   4.534  19.708  0.00  0.00    +0.000 A 
ATOM     27  N   UNL     1       2.789   4.133  20.520  0.00  0.00    +0.000 NA
ATOM     28  C   UNL     1       2.686   2.757  20.434  0.00  0.00    +0.000 A 
ATOM     29  C   UNL     1       3.639   2.134  19.655  0.00  0.00    +0.000 A 
ATOM     30  S   UNL     1       4.662   3.316  18.947  0.00  0.00    +0.000 S 
ATOM     31  H   UNL     1       3.578   6.395  20.401  0.00  0.00    +0.000 HD
ENDBRANCH  22  25
ENDBRANCH   4  22
TORSDOF 4
ENDMDL
MODEL 7
REMARK VINA RESULT:      -7.7      1.336      1.716
REMARK  Name = 
REMARK  4 active torsions:
REMARK  status: ('A' for Active; 'I' for Inactive)
REMARK    1  A    between atoms: C_2  and  C_19
REMARK    2  A    between atoms: N_3  and  C_4
REMARK    3  A    between atoms: C_7  and  S_8
REMARK    4  A    between atoms: S_8  and  N_11
REMARK                            x       y       z     vdW  Elec       q    Type
REMARK                         _______ _______ _______ _____ _____    ______ ____
ROOT
ATOM      1  C   UNL     1       0.402   9.678  19.875  0.00  0.00    +0.000 A 
ATOM      2  C   UNL     1       0.817   9.711  18.543  0.00  0.00    +0.000 A 
ATOM      3  C   UNL     1       1.716   8.768  18.048  0.00  0.00    +0.000 A 
ATOM      4  C   UNL     1       2.221   7.786  18.899  0.00  0.00    +0.000 A 
ATOM      5  C   UNL     1       1.809   7.723  20.231  0.00  0.00    +0.000 A 
ATOM      6  C   UNL     1       0.912   8.681  20.721  0.00  0.00    +0.000 A 
ENDROOT
BRANCH   1   9
ATOM      7  O   UNL     1       0.962  11.947  21.646  0.00  0.00    +0.000 OA
ATOM      8  C   UNL     1      -0.175  11.635  21.304  0.00  0.00    +0.000 C 
ATOM      9  N   UNL     1      -0.500  10.621  20.416  0.00  0.00    +0.000 N 
ATOM     10  H   UNL     1      -1.450  10.582  20.056  0.00  0.00    +0.000 HD
BRANCH   8  11
ATOM     11  C   UNL     1      -1.289  12.428  21.861  0.00  0.00    +0.000 A 
ATOM     12  C   UNL     1      -1.608  13.697  21.376  0.00  0.00    +0.000 A 
ATOM     13  F   UNL     1      -0.922  14.230  20.353  0.00  0.00    +0.000 F 
ATOM     14  C   UNL     1      -2.644  14.432  21.946  0.00  0.00    +0.000 A 
ATOM     15  F   UNL     1      -2.936  15.648  21.466  0.00  0.00    +0.000 F 
ATOM     16  C   UNL     1      -3.374  13.907  23.001  0.00  0.00    +0.000 A 
ATOM     17  F   UNL     1      -4.376  14.614  23.541  0.00  0.00    +0.000 F 
ATOM     18  C   UNL     1      -3.070  12.646  23.490  0.00  0.00    +0.000 A 
ATOM     19  F   UNL     1      -3.784  12.131  24.501  0.00  0.00    +0.000 F 
ATOM     20  C   UNL     1      -2.034  11.909  22.926  0.00  0.00    +0.000 A 
ATOM     21  F   UNL     1      -1.801  10.681  23.407  0.00  0.00    +0.000 F 
ENDBRANCH   8  11
ENDBRANCH   1   9
BRANCH   4  22
ATOM     22  S   UNL     1       3.325   6.573  18.222  0.00  0.00    +0.000 S 
ATOM     23  O   UNL     1       2.513   5.530  17.634  0.00  0.00    +0.000 OA
ATOM     24  O   UNL     1       4.324   7.271  17.444  0.00  0.00    +0.000 OA
BRANCH  22  25
ATOM     25  N   UNL     1       3.991   5.902  19.627  0.00  0.00    +0.000 N 
ATOM     26  C   UNL     1       3.665   4.536  19.765  0.00  0.00    +0.000 A 
ATOM     27  N   UNL     1       2.710   4.192  20.593  0.00  0.00    +0.000 NA
ATOM     28  C   UNL     1       2.558   2.819  20.548  0.00  0.00    +0.000 A 
ATOM     29  C   UNL     1       3.483   2.140  19.781  0.00  0.00    +0.000 A 
ATOM     30  S   UNL     1       4.541   3.265  19.033  0.00  0.00    +0.000 S 
ATOM     31  H   UNL     1       3.577   6.420  20.404  0.00  0.00    +0.000 HD
ENDBRANCH  22  25
ENDBRANCH   4  22
TORSDOF 4
ENDMDL
MODEL 8
REMARK VINA RESULT:      -7.7      2.175      3.326
REMARK  Name = 
REMARK  4 active torsions:
REMARK  status: ('A' for Active; 'I' for Inactive)
REMARK    1  A    between atoms: C_2  and  C_19
REMARK    2  A    between atoms: N_3  and  C_4
REMARK    3  A    between atoms: C_7  and  S_8
REMARK    4  A    between atoms: S_8  and  N_11
REMARK                            x       y       z     vdW  Elec       q    Type
REMARK                         _______ _______ _______ _____ _____    ______ ____
ROOT
ATOM      1  C   UNL     1       1.444   8.270  19.971  0.00  0.00    +0.000 A 
ATOM      2  C   UNL     1       1.490   7.113  20.750  0.00  0.00    +0.000 A 
ATOM      3  C   UNL     1       2.165   5.977  20.307  0.00  0.00    +0.000 A 
ATOM      4  C   UNL     1       2.790   5.989  19.061  0.00  0.00    +0.000 A 
ATOM      5  C   UNL     1       2.770   7.139  18.270  0.00  0.00    +0.000 A 
ATOM      6  C   UNL     1       2.081   8.274  18.721  0.00  0.00    +0.000 A 
ENDROOT
BRANCH   1   9
ATOM      7  O   UNL     1       1.662   9.728  22.506  0.00  0.00    +0.000 OA
ATOM      8  C   UNL     1       0.866  10.041  21.625  0.00  0.00    +0.000 C 
ATOM      9  N   UNL     1       0.763   9.438  20.380  0.00  0.00    +0.000 N 
ATOM     10  H   UNL     1       0.211   9.904  19.664  0.00  0.00    +0.000 HD
BRANCH   8  11
ATOM     11  C   UNL     1      -0.036  11.176  21.903  0.00  0.00    +0.000 A 
ATOM     12  C   UNL     1      -1.113  11.065  22.782  0.00  0.00    +0.000 A 
ATOM     13  F   UNL     1      -1.347   9.917  23.435  0.00  0.00    +0.000 F 
ATOM     14  C   UNL     1      -1.965  12.146  22.997  0.00  0.00    +0.000 A 
ATOM     15  F   UNL     1      -2.993  12.021  23.845  0.00  0.00    +0.000 F 
ATOM     16  C   UNL     1      -1.747  13.348  22.340  0.00  0.00    +0.000 A 
ATOM     17  F   UNL     1      -2.563  14.387  22.556  0.00  0.00    +0.000 F 
ATOM     18  C   UNL     1      -0.678  13.472  21.467  0.00  0.00    +0.000 A 
ATOM     19  F   UNL     1      -0.457  14.638  20.842  0.00  0.00    +0.000 F 
ATOM     20  C   UNL     1       0.174  12.395  21.247  0.00  0.00    +0.000 A 
ATOM     21  F   UNL     1       1.214  12.573  20.422  0.00  0.00    +0.000 F 
ENDBRANCH   8  11
ENDBRANCH   1   9
BRANCH   4  22
ATOM     22  S   UNL     1       3.679   4.541  18.551  0.00  0.00    +0.000 S 
ATOM     23  O   UNL     1       3.767   3.662  19.698  0.00  0.00    +0.000 OA
ATOM     24  O   UNL     1       3.107   4.087  17.303  0.00  0.00    +0.000 OA
BRANCH  22  25
ATOM     25  N   UNL     1       5.238   5.164  18.329  0.00  0.00    +0.000 N 
ATOM     26  C   UNL     1       5.672   5.035  16.993  0.00  0.00    +0.000 A 
ATOM     27  N   UNL     1       6.502   4.069  16.686  0.00  0.00    +0.000 NA
ATOM     28  C   UNL     1       6.771   4.129  15.332  0.00  0.00    +0.000 A 
ATOM     29  C   UNL     1       6.238   5.213  14.665  0.00  0.00    +0.000 A 
ATOM     30  S   UNL     1       5.309   6.157  15.756  0.00  0.00    +0.000 S 
ATOM     31  H   UNL     1       5.847   4.606  18.930  0.00  0.00    +0.000 HD
ENDBRANCH  22  25
ENDBRANCH   4  22
TORSDOF 4
ENDMDL
MODEL 9
REMARK VINA RESULT:      -7.6      5.410     10.051
REMARK  Name = 
REMARK  4 active torsions:
REMARK  status: ('A' for Active; 'I' for Inactive)
REMARK    1  A    between atoms: C_2  and  C_19
REMARK    2  A    between atoms: N_3  and  C_4
REMARK    3  A    between atoms: C_7  and  S_8
REMARK    4  A    between atoms: S_8  and  N_11
REMARK                            x       y       z     vdW  Elec       q    Type
REMARK                         _______ _______ _______ _____ _____    ______ ____
ROOT
ATOM      1  C   UNL     1       1.135   8.666  20.891  0.00  0.00    +0.000 A 
ATOM      2  C   UNL     1       0.930   9.556  19.836  0.00  0.00    +0.000 A 
ATOM      3  C   UNL     1       0.182  10.719  20.015  0.00  0.00    +0.000 A 
ATOM      4  C   UNL     1      -0.382  10.990  21.260  0.00  0.00    +0.000 A 
ATOM      5  C   UNL     1      -0.178  10.123  22.334  0.00  0.00    +0.000 A 
ATOM      6  C   UNL     1       0.569   8.952  22.142  0.00  0.00    +0.000 A 
ENDROOT
BRANCH   1   9
ATOM      7  O   UNL     1       2.113   7.395  18.436  0.00  0.00    +0.000 OA
ATOM      8  C   UNL     1       2.254   6.892  19.546  0.00  0.00    +0.000 C 
ATOM      9  N   UNL     1       1.879   7.473  20.748  0.00  0.00    +0.000 N 
ATOM     10  H   UNL     1       2.222   7.058  21.611  0.00  0.00    +0.000 HD
BRANCH   8  11
ATOM     11  C   UNL     1       2.908   5.570  19.610  0.00  0.00    +0.000 A 
ATOM     12  C   UNL     1       4.172   5.343  19.064  0.00  0.00    +0.000 A 
ATOM     13  F   UNL     1       4.854   6.342  18.483  0.00  0.00    +0.000 F 
ATOM     14  C   UNL     1       4.746   4.076  19.112  0.00  0.00    +0.000 A 
ATOM     15  F   UNL     1       5.960   3.878  18.583  0.00  0.00    +0.000 F 
ATOM     16  C   UNL     1       4.068   3.024  19.710  0.00  0.00    +0.000 A 
ATOM     17  F   UNL     1       4.628   1.809  19.762  0.00  0.00    +0.000 F 
ATOM     18  C   UNL     1       2.813   3.237  20.260  0.00  0.00    +0.000 A 
ATOM     19  F   UNL     1       2.162   2.225  20.850  0.00  0.00    +0.000 F 
ATOM     20  C   UNL     1       2.234   4.500  20.212  0.00  0.00    +0.000 A 
ATOM     21  F   UNL     1       1.037   4.666  20.788  0.00  0.00    +0.000 F 
ENDBRANCH   8  11
ENDBRANCH   1   9
BRANCH   4  22
ATOM     22  S   UNL     1      -1.287  12.503  21.463  0.00  0.00    +0.000 S 
ATOM     23  O   UNL     1      -0.401  13.587  21.097  0.00  0.00    +0.000 OA
ATOM     24  O   UNL     1      -2.572  12.338  20.821  0.00  0.00    +0.000 OA
BRANCH  22  25
ATOM     25  N   UNL     1      -1.440  12.581  23.147  0.00  0.00    +0.000 N 
ATOM     26  C   UNL     1      -1.779  13.878  23.586  0.00  0.00    +0.000 A 
ATOM     27  N   UNL     1      -0.842  14.645  24.087  0.00  0.00    +0.000 NA
ATOM     28  C   UNL     1      -1.401  15.861  24.429  0.00  0.00    +0.000 A 
ATOM     29  C   UNL     1      -2.771  15.948  24.296  0.00  0.00    +0.000 A 
ATOM     30  S   UNL     1      -3.378  14.477  23.655  0.00  0.00    +0.000 S 
ATOM     31  H   UNL     1      -0.520  12.336  23.520  0.00  0.00    +0.000 HD
ENDBRANCH  22  25
ENDBRANCH   4  22
TORSDOF 4
ENDMDL
