MODEL 1
REMARK VINA RESULT:      -6.1      0.000      0.000
REMARK  Name = 
REMARK  7 active torsions:
REMARK  status: ('A' for Active; 'I' for Inactive)
REMARK    1  A    between atoms: C_1  and  C_2
REMARK    2  A    between atoms: C_3  and  C_4
REMARK    3  A    between atoms: C_13  and  S_14
REMARK    4  A    between atoms: S_14  and  N_17
REMARK    5  A    between atoms: N_17  and  C_18
REMARK    6  A    between atoms: C_25  and  C_26
REMARK    7  A    between atoms: N_27  and  C_28
REMARK                            x       y       z     vdW  Elec       q    Type
REMARK                         _______ _______ _______ _____ _____    ______ ____
ROOT
ATOM      1  C   UNL     1       0.216   9.438  23.174  0.00  0.00    +0.000 C 
ATOM      2  C   UNL     1      -0.045  10.139  21.882  0.00  0.00    +0.000 A 
ATOM      3  C   UNL     1      -0.790  11.281  21.549  0.00  0.00    +0.000 A 
ATOM      4  C   UNL     1      -0.909  11.234  20.084  0.00  0.00    +0.000 A 
ATOM      5  C   UNL     1      -0.128  10.176  19.614  0.00  0.00    +0.000 A 
ATOM      6  C   UNL     1       0.133   9.619  18.254  0.00  0.00    +0.000 C 
ATOM      7  N   UNL     1       0.451   9.590  20.717  0.00  0.00    +0.000 N 
ATOM      8  C   UNL     1       1.389   8.479  20.691  0.00  0.00    +0.000 C 
ENDROOT
BRANCH   3   9
ATOM      9  C   UNL     1      -1.502  12.223  22.458  0.00  0.00    +0.000 C 
ATOM     10  O   UNL     1      -2.604  11.897  22.902  0.00  0.00    +0.000 OA
ATOM     11  N   UNL     1      -0.939  13.468  22.857  0.00  0.00    +0.000 N 
ATOM     12  C   UNL     1      -1.562  14.149  23.998  0.00  0.00    +0.000 C 
ATOM     13  C   UNL     1      -2.527  15.260  23.578  0.00  0.00    +0.000 C 
ATOM     14  C   UNL     1      -1.856  16.586  23.221  0.00  0.00    +0.000 C 
ATOM     15  C   UNL     1      -0.858  16.506  22.073  0.00  0.00    +0.000 C 
ATOM     16  C   UNL     1       0.350  15.652  22.418  0.00  0.00    +0.000 C 
ATOM     17  C   UNL     1       0.152  14.155  22.173  0.00  0.00    +0.000 C 
ENDBRANCH   3   9
BRANCH   4  18
ATOM     18  S   UNL     1      -1.916  12.308  19.104  0.00  0.00    +0.000 S 
ATOM     19  O   UNL     1      -2.810  11.431  18.387  0.00  0.00    +0.000 OA
ATOM     20  O   UNL     1      -2.332  13.335  20.037  0.00  0.00    +0.000 OA
BRANCH  18  21
ATOM     21  N   UNL     1      -0.919  13.115  17.981  0.00  0.00    +0.000 N 
ATOM     22  H   UNL     1      -0.567  12.401  17.339  0.00  0.00    +0.000 HD
BRANCH  21  23
ATOM     23  C   UNL     1       0.121  13.988  18.443  0.00  0.00    +0.000 A 
ATOM     24  C   UNL     1       1.410  13.493  18.657  0.00  0.00    +0.000 A 
ATOM     25  C   UNL     1       2.465  14.376  18.927  0.00  0.00    +0.000 A 
ATOM     26  C   UNL     1       2.220  15.745  18.995  0.00  0.00    +0.000 A 
ATOM     27  F   UNL     1       3.238  16.590  19.208  0.00  0.00    +0.000 F 
ATOM     28  C   UNL     1       0.934  16.247  18.823  0.00  0.00    +0.000 A 
ATOM     29  C   UNL     1      -0.123  15.365  18.556  0.00  0.00    +0.000 A 
ENDBRANCH  21  23
ENDBRANCH  18  21
ENDBRANCH   4  18
TORSDOF 4
ENDMDL
MODEL 2
REMARK VINA RESULT:      -6.1      3.100      4.200
REMARK  Name = 
REMARK  7 active torsions:
REMARK  status: ('A' for Active; 'I' for Inactive)
REMARK    1  A    between atoms: C_1  and  C_2
REMARK    2  A    between atoms: C_3  and  C_4
REMARK    3  A    between atoms: C_13  and  S_14
REMARK    4  A    between atoms: S_14  and  N_17
REMARK    5  A    between atoms: N_17  and  C_18
REMARK    6  A    between atoms: C_25  and  C_26
REMARK    7  A    between atoms: N_27  and  C_28
REMARK                            x       y       z     vdW  Elec       q    Type
REMARK                         _______ _______ _______ _____ _____    ______ ____
ROOT
ATOM      1  C   UNL     1      -0.289   9.890  23.151  0.00  0.00    +0.000 C 
ATOM      2  C   UNL     1       0.089  10.533  21.857  0.00  0.00    +0.000 A 
ATOM      3  C   UNL     1       0.009  11.853  21.387  0.00  0.00    +0.000 A 
ATOM      4  C   UNL     1       0.229  11.747  19.937  0.00  0.00    +0.000 A 
ATOM      5  C   UNL     1       0.565  10.424  19.640  0.00  0.00    +0.000 A 
ATOM      6  C   UNL     1       0.873   9.705  18.369  0.00  0.00    +0.000 C 
ATOM      7  N   UNL     1       0.558   9.736  20.832  0.00  0.00    +0.000 N 
ATOM      8  C   UNL     1       0.904   8.334  21.002  0.00  0.00    +0.000 C 
ENDROOT
BRANCH   3   9
ATOM      9  C   UNL     1      -0.420  13.076  22.124  0.00  0.00    +0.000 C 
ATOM     10  O   UNL     1       0.442  13.864  22.513  0.00  0.00    +0.000 OA
ATOM     11  N   UNL     1      -1.790  13.379  22.362  0.00  0.00    +0.000 N 
ATOM     12  C   UNL     1      -2.108  14.746  22.790  0.00  0.00    +0.000 C 
ATOM     13  C   UNL     1      -2.309  14.870  24.302  0.00  0.00    +0.000 C 
ATOM     14  C   UNL     1      -3.691  14.450  24.799  0.00  0.00    +0.000 C 
ATOM     15  C   UNL     1      -4.067  13.006  24.490  0.00  0.00    +0.000 C 
ATOM     16  C   UNL     1      -4.204  12.753  23.000  0.00  0.00    +0.000 C 
ATOM     17  C   UNL     1      -2.888  12.419  22.294  0.00  0.00    +0.000 C 
ENDBRANCH   3   9
BRANCH   4  18
ATOM     18  S   UNL     1       0.043  13.067  18.775  0.00  0.00    +0.000 S 
ATOM     19  O   UNL     1      -0.765  14.051  19.453  0.00  0.00    +0.000 OA
ATOM     20  O   UNL     1       1.390  13.289  18.290  0.00  0.00    +0.000 OA
BRANCH  18  21
ATOM     21  N   UNL     1      -0.818  12.485  17.423  0.00  0.00    +0.000 N 
ATOM     22  H   UNL     1      -0.860  13.254  16.751  0.00  0.00    +0.000 HD
BRANCH  21  23
ATOM     23  C   UNL     1      -2.093  11.854  17.603  0.00  0.00    +0.000 A 
ATOM     24  C   UNL     1      -2.381  10.652  16.949  0.00  0.00    +0.000 A 
ATOM     25  C   UNL     1      -3.547   9.942  17.267  0.00  0.00    +0.000 A 
ATOM     26  C   UNL     1      -4.423  10.445  18.225  0.00  0.00    +0.000 A 
ATOM     27  F   UNL     1      -5.514   9.742  18.560  0.00  0.00    +0.000 F 
ATOM     28  C   UNL     1      -4.168  11.660  18.854  0.00  0.00    +0.000 A 
ATOM     29  C   UNL     1      -3.004  12.374  18.534  0.00  0.00    +0.000 A 
ENDBRANCH  21  23
ENDBRANCH  18  21
ENDBRANCH   4  18
TORSDOF 4
ENDMDL
MODEL 3
REMARK VINA RESULT:      -6.1      3.263      6.055
REMARK  Name = 
REMARK  7 active torsions:
REMARK  status: ('A' for Active; 'I' for Inactive)
REMARK    1  A    between atoms: C_1  and  C_2
REMARK    2  A    between atoms: C_3  and  C_4
REMARK    3  A    between atoms: C_13  and  S_14
REMARK    4  A    between atoms: S_14  and  N_17
REMARK    5  A    between atoms: N_17  and  C_18
REMARK    6  A    between atoms: C_25  and  C_26
REMARK    7  A    between atoms: N_27  and  C_28
REMARK                            x       y       z     vdW  Elec       q    Type
REMARK                         _______ _______ _______ _____ _____    ______ ____
ROOT
ATOM      1  C   UNL     1      -1.034  15.308  23.933  0.00  0.00    +0.000 C 
ATOM      2  C   UNL     1      -2.233  14.610  23.380  0.00  0.00    +0.000 A 
ATOM      3  C   UNL     1      -2.406  13.696  22.328  0.00  0.00    +0.000 A 
ATOM      4  C   UNL     1      -3.858  13.665  22.097  0.00  0.00    +0.000 A 
ATOM      5  C   UNL     1      -4.477  14.427  23.090  0.00  0.00    +0.000 A 
ATOM      6  C   UNL     1      -5.898  14.786  23.370  0.00  0.00    +0.000 C 
ATOM      7  N   UNL     1      -3.476  14.913  23.900  0.00  0.00    +0.000 N 
ATOM      8  C   UNL     1      -3.669  15.717  25.096  0.00  0.00    +0.000 C 
ENDROOT
BRANCH   3   9
ATOM      9  C   UNL     1      -1.366  13.059  21.473  0.00  0.00    +0.000 C 
ATOM     10  O   UNL     1      -1.164  13.518  20.348  0.00  0.00    +0.000 OA
ATOM     11  N   UNL     1      -0.577  11.963  21.922  0.00  0.00    +0.000 N 
ATOM     12  C   UNL     1       0.623  11.638  21.143  0.00  0.00    +0.000 C 
ATOM     13  C   UNL     1       0.411  10.473  20.174  0.00  0.00    +0.000 C 
ATOM     14  C   UNL     1       0.513   9.087  20.809  0.00  0.00    +0.000 C 
ATOM     15  C   UNL     1      -0.485   8.826  21.930  0.00  0.00    +0.000 C 
ATOM     16  C   UNL     1      -0.245   9.717  23.135  0.00  0.00    +0.000 C 
ATOM     17  C   UNL     1      -0.911  11.091  23.045  0.00  0.00    +0.000 C 
ENDBRANCH   3   9
BRANCH   4  18
ATOM     18  S   UNL     1      -4.662  12.839  20.756  0.00  0.00    +0.000 S 
ATOM     19  O   UNL     1      -5.689  12.034  21.374  0.00  0.00    +0.000 OA
ATOM     20  O   UNL     1      -4.902  13.896  19.796  0.00  0.00    +0.000 OA
BRANCH  18  21
ATOM     21  N   UNL     1      -3.536  11.806  19.998  0.00  0.00    +0.000 N 
ATOM     22  H   UNL     1      -2.615  12.069  20.355  0.00  0.00    +0.000 HD
BRANCH  21  23
ATOM     23  C   UNL     1      -3.543  11.661  18.572  0.00  0.00    +0.000 A 
ATOM     24  C   UNL     1      -2.339  11.545  17.871  0.00  0.00    +0.000 A 
ATOM     25  C   UNL     1      -2.349  11.218  16.508  0.00  0.00    +0.000 A 
ATOM     26  C   UNL     1      -3.563  11.024  15.853  0.00  0.00    +0.000 A 
ATOM     27  F   UNL     1      -3.568  10.667  14.561  0.00  0.00    +0.000 F 
ATOM     28  C   UNL     1      -4.769  11.177  16.529  0.00  0.00    +0.000 A 
ATOM     29  C   UNL     1      -4.761  11.508  17.892  0.00  0.00    +0.000 A 
ENDBRANCH  21  23
ENDBRANCH  18  21
ENDBRANCH   4  18
TORSDOF 4
ENDMDL
MODEL 4
REMARK VINA RESULT:      -5.9      1.965      2.572
REMARK  Name = 
REMARK  7 active torsions:
REMARK  status: ('A' for Active; 'I' for Inactive)
REMARK    1  A    between atoms: C_1  and  C_2
REMARK    2  A    between atoms: C_3  and  C_4
REMARK    3  A    between atoms: C_13  and  S_14
REMARK    4  A    between atoms: S_14  and  N_17
REMARK    5  A    between atoms: N_17  and  C_18
REMARK    6  A    between atoms: C_25  and  C_26
REMARK    7  A    between atoms: N_27  and  C_28
REMARK                            x       y       z     vdW  Elec       q    Type
REMARK                         _______ _______ _______ _____ _____    ______ ____
ROOT
ATOM      1  C   UNL     1      -0.270   9.867  23.023  0.00  0.00    +0.000 C 
ATOM      2  C   UNL     1       0.244  10.491  21.767  0.00  0.00    +0.000 A 
ATOM      3  C   UNL     1       0.231  11.807  21.281  0.00  0.00    +0.000 A 
ATOM      4  C   UNL     1       0.590  11.683  19.860  0.00  0.00    +0.000 A 
ATOM      5  C   UNL     1       0.932  10.352  19.608  0.00  0.00    +0.000 A 
ATOM      6  C   UNL     1       1.350   9.616  18.380  0.00  0.00    +0.000 C 
ATOM      7  N   UNL     1       0.798   9.676  20.800  0.00  0.00    +0.000 N 
ATOM      8  C   UNL     1       1.102   8.270  21.015  0.00  0.00    +0.000 C 
ENDROOT
BRANCH   3   9
ATOM      9  C   UNL     1      -0.248  13.044  21.961  0.00  0.00    +0.000 C 
ATOM     10  O   UNL     1       0.585  13.826  22.420  0.00  0.00    +0.000 OA
ATOM     11  N   UNL     1      -1.630  13.366  22.069  0.00  0.00    +0.000 N 
ATOM     12  C   UNL     1      -1.968  14.742  22.451  0.00  0.00    +0.000 C 
ATOM     13  C   UNL     1      -2.306  14.886  23.937  0.00  0.00    +0.000 C 
ATOM     14  C   UNL     1      -3.734  14.489  24.308  0.00  0.00    +0.000 C 
ATOM     15  C   UNL     1      -4.098  13.046  23.981  0.00  0.00    +0.000 C 
ATOM     16  C   UNL     1      -4.101  12.777  22.487  0.00  0.00    +0.000 C 
ATOM     17  C   UNL     1      -2.730  12.419  21.910  0.00  0.00    +0.000 C 
ENDBRANCH   3   9
BRANCH   4  18
ATOM     18  S   UNL     1       0.540  12.994  18.674  0.00  0.00    +0.000 S 
ATOM     19  O   UNL     1       1.707  12.795  17.848  0.00  0.00    +0.000 OA
ATOM     20  O   UNL     1      -0.827  12.974  18.197  0.00  0.00    +0.000 OA
BRANCH  18  21
ATOM     21  N   UNL     1       0.695  14.479  19.497  0.00  0.00    +0.000 N 
ATOM     22  H   UNL     1      -0.148  15.017  19.288  0.00  0.00    +0.000 HD
BRANCH  21  23
ATOM     23  C   UNL     1       1.888  15.260  19.347  0.00  0.00    +0.000 A 
ATOM     24  C   UNL     1       3.006  14.996  20.144  0.00  0.00    +0.000 A 
ATOM     25  C   UNL     1       4.227  15.630  19.872  0.00  0.00    +0.000 A 
ATOM     26  C   UNL     1       4.317  16.533  18.816  0.00  0.00    +0.000 A 
ATOM     27  F   UNL     1       5.496  17.103  18.531  0.00  0.00    +0.000 F 
ATOM     28  C   UNL     1       3.201  16.835  18.042  0.00  0.00    +0.000 A 
ATOM     29  C   UNL     1       1.978  16.205  18.314  0.00  0.00    +0.000 A 
ENDBRANCH  21  23
ENDBRANCH  18  21
ENDBRANCH   4  18
TORSDOF 4
ENDMDL
MODEL 5
REMARK VINA RESULT:      -5.8      3.121      4.613
REMARK  Name = 
REMARK  7 active torsions:
REMARK  status: ('A' for Active; 'I' for Inactive)
REMARK    1  A    between atoms: C_1  and  C_2
REMARK    2  A    between atoms: C_3  and  C_4
REMARK    3  A    between atoms: C_13  and  S_14
REMARK    4  A    between atoms: S_14  and  N_17
REMARK    5  A    between atoms: N_17  and  C_18
REMARK    6  A    between atoms: C_25  and  C_26
REMARK    7  A    between atoms: N_27  and  C_28
REMARK                            x       y       z     vdW  Elec       q    Type
REMARK                         _______ _______ _______ _____ _____    ______ ____
ROOT
ATOM      1  C   UNL     1      -1.622  12.126  23.414  0.00  0.00    +0.000 C 
ATOM      2  C   UNL     1      -0.800  11.698  22.243  0.00  0.00    +0.000 A 
ATOM      3  C   UNL     1      -0.532  12.287  20.998  0.00  0.00    +0.000 A 
ATOM      4  C   UNL     1       0.062  11.208  20.195  0.00  0.00    +0.000 A 
ATOM      5  C   UNL     1       0.248  10.097  21.021  0.00  0.00    +0.000 A 
ATOM      6  C   UNL     1       0.776   8.722  20.786  0.00  0.00    +0.000 C 
ATOM      7  N   UNL     1      -0.201  10.454  22.273  0.00  0.00    +0.000 N 
ATOM      8  C   UNL     1      -0.148   9.618  23.461  0.00  0.00    +0.000 C 
ENDROOT
BRANCH   3   9
ATOM      9  C   UNL     1      -0.944  13.629  20.499  0.00  0.00    +0.000 C 
ATOM     10  O   UNL     1      -2.114  13.796  20.151  0.00  0.00    +0.000 OA
ATOM     11  N   UNL     1      -0.044  14.730  20.442  0.00  0.00    +0.000 N 
ATOM     12  C   UNL     1      -0.628  16.064  20.257  0.00  0.00    +0.000 C 
ATOM     13  C   UNL     1      -0.567  16.550  18.808  0.00  0.00    +0.000 C 
ATOM     14  C   UNL     1       0.779  17.140  18.389  0.00  0.00    +0.000 C 
ATOM     15  C   UNL     1       1.959  16.184  18.512  0.00  0.00    +0.000 C 
ATOM     16  C   UNL     1       2.244  15.803  19.953  0.00  0.00    +0.000 C 
ATOM     17  C   UNL     1       1.412  14.628  20.470  0.00  0.00    +0.000 C 
ENDBRANCH   3   9
BRANCH   4  18
ATOM     18  S   UNL     1       0.423  11.299  18.466  0.00  0.00    +0.000 S 
ATOM     19  O   UNL     1       0.041  12.635  18.075  0.00  0.00    +0.000 OA
ATOM     20  O   UNL     1       1.762  10.756  18.365  0.00  0.00    +0.000 OA
BRANCH  18  21
ATOM     21  N   UNL     1      -0.567  10.181  17.643  0.00  0.00    +0.000 N 
ATOM     22  H   UNL     1      -0.069   9.928  16.786  0.00  0.00    +0.000 HD
BRANCH  21  23
ATOM     23  C   UNL     1      -1.945  10.488  17.398  0.00  0.00    +0.000 A 
ATOM     24  C   UNL     1      -2.778  10.874  18.453  0.00  0.00    +0.000 A 
ATOM     25  C   UNL     1      -4.069  11.352  18.190  0.00  0.00    +0.000 A 
ATOM     26  C   UNL     1      -4.523  11.428  16.876  0.00  0.00    +0.000 A 
ATOM     27  F   UNL     1      -5.741  11.928  16.625  0.00  0.00    +0.000 F 
ATOM     28  C   UNL     1      -3.720  11.009  15.821  0.00  0.00    +0.000 A 
ATOM     29  C   UNL     1      -2.429  10.527  16.082  0.00  0.00    +0.000 A 
ENDBRANCH  21  23
ENDBRANCH  18  21
ENDBRANCH   4  18
TORSDOF 4
ENDMDL
MODEL 6
REMARK VINA RESULT:      -5.7      2.976      5.242
REMARK  Name = 
REMARK  7 active torsions:
REMARK  status: ('A' for Active; 'I' for Inactive)
REMARK    1  A    between atoms: C_1  and  C_2
REMARK    2  A    between atoms: C_3  and  C_4
REMARK    3  A    between atoms: C_13  and  S_14
REMARK    4  A    between atoms: S_14  and  N_17
REMARK    5  A    between atoms: N_17  and  C_18
REMARK    6  A    between atoms: C_25  and  C_26
REMARK    7  A    between atoms: N_27  and  C_28
REMARK                            x       y       z     vdW  Elec       q    Type
REMARK                         _______ _______ _______ _____ _____    ______ ____
ROOT
ATOM      1  C   UNL     1      -1.695  10.315  17.173  0.00  0.00    +0.000 C 
ATOM      2  C   UNL     1      -2.557  11.200  18.012  0.00  0.00    +0.000 A 
ATOM      3  C   UNL     1      -2.322  11.918  19.196  0.00  0.00    +0.000 A 
ATOM      4  C   UNL     1      -3.661  12.301  19.670  0.00  0.00    +0.000 A 
ATOM      5  C   UNL     1      -4.594  11.930  18.700  0.00  0.00    +0.000 A 
ATOM      6  C   UNL     1      -6.080  12.030  18.616  0.00  0.00    +0.000 C 
ATOM      7  N   UNL     1      -3.887  11.347  17.672  0.00  0.00    +0.000 N 
ATOM      8  C   UNL     1      -4.454  10.859  16.425  0.00  0.00    +0.000 C 
ENDROOT
BRANCH   3   9
ATOM      9  C   UNL     1      -1.044  12.080  19.944  0.00  0.00    +0.000 C 
ATOM     10  O   UNL     1      -0.796  11.302  20.866  0.00  0.00    +0.000 OA
ATOM     11  N   UNL     1      -0.088  13.079  19.609  0.00  0.00    +0.000 N 
ATOM     12  C   UNL     1       1.257  12.937  20.181  0.00  0.00    +0.000 C 
ATOM     13  C   UNL     1       1.479  13.812  21.416  0.00  0.00    +0.000 C 
ATOM     14  C   UNL     1       1.820  15.270  21.113  0.00  0.00    +0.000 C 
ATOM     15  C   UNL     1       0.762  16.018  20.312  0.00  0.00    +0.000 C 
ATOM     16  C   UNL     1       0.598  15.460  18.910  0.00  0.00    +0.000 C 
ATOM     17  C   UNL     1      -0.362  14.272  18.813  0.00  0.00    +0.000 C 
ENDBRANCH   3   9
BRANCH   4  18
ATOM     18  S   UNL     1      -4.015  13.055  21.230  0.00  0.00    +0.000 S 
ATOM     19  O   UNL     1      -3.921  14.475  20.989  0.00  0.00    +0.000 OA
ATOM     20  O   UNL     1      -5.207  12.367  21.682  0.00  0.00    +0.000 OA
BRANCH  18  21
ATOM     21  N   UNL     1      -2.802  12.604  22.341  0.00  0.00    +0.000 N 
ATOM     22  H   UNL     1      -3.032  11.659  22.655  0.00  0.00    +0.000 HD
BRANCH  21  23
ATOM     23  C   UNL     1      -2.472  13.472  23.433  0.00  0.00    +0.000 A 
ATOM     24  C   UNL     1      -1.247  14.145  23.450  0.00  0.00    +0.000 A 
ATOM     25  C   UNL     1      -1.001  15.132  24.415  0.00  0.00    +0.000 A 
ATOM     26  C   UNL     1      -1.976  15.428  25.364  0.00  0.00    +0.000 A 
ATOM     27  F   UNL     1      -1.756  16.403  26.258  0.00  0.00    +0.000 F 
ATOM     28  C   UNL     1      -3.183  14.737  25.383  0.00  0.00    +0.000 A 
ATOM     29  C   UNL     1      -3.429  13.747  24.421  0.00  0.00    +0.000 A 
ENDBRANCH  21  23
ENDBRANCH  18  21
ENDBRANCH   4  18
TORSDOF 4
ENDMDL
MODEL 7
REMARK VINA RESULT:      -5.7      7.762      9.402
REMARK  Name = 
REMARK  7 active torsions:
REMARK  status: ('A' for Active; 'I' for Inactive)
REMARK    1  A    between atoms: C_1  and  C_2
REMARK    2  A    between atoms: C_3  and  C_4
REMARK    3  A    between atoms: C_13  and  S_14
REMARK    4  A    between atoms: S_14  and  N_17
REMARK    5  A    between atoms: N_17  and  C_18
REMARK    6  A    between atoms: C_25  and  C_26
REMARK    7  A    between atoms: N_27  and  C_28
REMARK                            x       y       z     vdW  Elec       q    Type
REMARK                         _______ _______ _______ _____ _____    ______ ____
ROOT
ATOM      1  C   UNL     1       3.731  15.283  20.591  0.00  0.00    +0.000 C 
ATOM      2  C   UNL     1       5.200  15.175  20.349  0.00  0.00    +0.000 A 
ATOM      3  C   UNL     1       6.312  15.175  21.207  0.00  0.00    +0.000 A 
ATOM      4  C   UNL     1       7.467  15.376  20.320  0.00  0.00    +0.000 A 
ATOM      5  C   UNL     1       7.017  15.341  18.998  0.00  0.00    +0.000 A 
ATOM      6  C   UNL     1       7.696  15.505  17.680  0.00  0.00    +0.000 C 
ATOM      7  N   UNL     1       5.658  15.130  19.048  0.00  0.00    +0.000 N 
ATOM      8  C   UNL     1       4.783  14.972  17.896  0.00  0.00    +0.000 C 
ENDROOT
BRANCH   3   9
ATOM      9  C   UNL     1       6.334  15.194  22.697  0.00  0.00    +0.000 C 
ATOM     10  O   UNL     1       6.293  16.281  23.275  0.00  0.00    +0.000 OA
ATOM     11  N   UNL     1       6.367  14.002  23.473  0.00  0.00    +0.000 N 
ATOM     12  C   UNL     1       6.050  14.124  24.901  0.00  0.00    +0.000 C 
ATOM     13  C   UNL     1       7.296  14.172  25.789  0.00  0.00    +0.000 C 
ATOM     14  C   UNL     1       7.913  12.809  26.097  0.00  0.00    +0.000 C 
ATOM     15  C   UNL     1       8.359  12.020  24.872  0.00  0.00    +0.000 C 
ATOM     16  C   UNL     1       7.191  11.618  23.989  0.00  0.00    +0.000 C 
ATOM     17  C   UNL     1       6.768  12.688  22.979  0.00  0.00    +0.000 C 
ENDBRANCH   3   9
BRANCH   4  18
ATOM     18  S   UNL     1       9.129  15.664  20.854  0.00  0.00    +0.000 S 
ATOM     19  O   UNL     1       9.428  17.012  20.435  0.00  0.00    +0.000 OA
ATOM     20  O   UNL     1       9.134  15.200  22.226  0.00  0.00    +0.000 OA
BRANCH  18  21
ATOM     21  N   UNL     1      10.161  14.589  20.025  0.00  0.00    +0.000 N 
ATOM     22  H   UNL     1      10.420  15.050  19.150  0.00  0.00    +0.000 HD
BRANCH  21  23
ATOM     23  C   UNL     1       9.763  13.226  19.821  0.00  0.00    +0.000 A 
ATOM     24  C   UNL     1       9.625  12.720  18.525  0.00  0.00    +0.000 A 
ATOM     25  C   UNL     1       9.419  11.348  18.326  0.00  0.00    +0.000 A 
ATOM     26  C   UNL     1       9.339  10.495  19.423  0.00  0.00    +0.000 A 
ATOM     27  F   UNL     1       9.188   9.177  19.228  0.00  0.00    +0.000 F 
ATOM     28  C   UNL     1       9.434  10.991  20.719  0.00  0.00    +0.000 A 
ATOM     29  C   UNL     1       9.636  12.364  20.921  0.00  0.00    +0.000 A 
ENDBRANCH  21  23
ENDBRANCH  18  21
ENDBRANCH   4  18
TORSDOF 4
ENDMDL
MODEL 8
REMARK VINA RESULT:      -5.7      3.207      5.573
REMARK  Name = 
REMARK  7 active torsions:
REMARK  status: ('A' for Active; 'I' for Inactive)
REMARK    1  A    between atoms: C_1  and  C_2
REMARK    2  A    between atoms: C_3  and  C_4
REMARK    3  A    between atoms: C_13  and  S_14
REMARK    4  A    between atoms: S_14  and  N_17
REMARK    5  A    between atoms: N_17  and  C_18
REMARK    6  A    between atoms: C_25  and  C_26
REMARK    7  A    between atoms: N_27  and  C_28
REMARK                            x       y       z     vdW  Elec       q    Type
REMARK                         _______ _______ _______ _____ _____    ______ ____
ROOT
ATOM      1  C   UNL     1       2.135  11.095  18.020  0.00  0.00    +0.000 C 
ATOM      2  C   UNL     1       1.178  10.937  19.155  0.00  0.00    +0.000 A 
ATOM      3  C   UNL     1       0.349  11.841  19.838  0.00  0.00    +0.000 A 
ATOM      4  C   UNL     1      -0.072  11.119  21.048  0.00  0.00    +0.000 A 
ATOM      5  C   UNL     1       0.393   9.806  20.960  0.00  0.00    +0.000 A 
ATOM      6  C   UNL     1       0.309   8.625  21.868  0.00  0.00    +0.000 C 
ATOM      7  N   UNL     1       1.069   9.704  19.765  0.00  0.00    +0.000 N 
ATOM      8  C   UNL     1       1.676   8.492  19.236  0.00  0.00    +0.000 C 
ENDROOT
BRANCH   3   9
ATOM      9  C   UNL     1       0.111  13.283  19.547  0.00  0.00    +0.000 C 
ATOM     10  O   UNL     1      -0.943  13.609  19.000  0.00  0.00    +0.000 OA
ATOM     11  N   UNL     1       1.042  14.297  19.909  0.00  0.00    +0.000 N 
ATOM     12  C   UNL     1       0.565  15.685  19.880  0.00  0.00    +0.000 C 
ATOM     13  C   UNL     1       0.970  16.431  18.608  0.00  0.00    +0.000 C 
ATOM     14  C   UNL     1       2.396  16.978  18.614  0.00  0.00    +0.000 C 
ATOM     15  C   UNL     1       3.482  15.923  18.788  0.00  0.00    +0.000 C 
ATOM     16  C   UNL     1       3.421  15.252  20.148  0.00  0.00    +0.000 C 
ATOM     17  C   UNL     1       2.450  14.072  20.225  0.00  0.00    +0.000 C 
ENDBRANCH   3   9
BRANCH   4  18
ATOM     18  S   UNL     1      -0.970  11.824  22.399  0.00  0.00    +0.000 S 
ATOM     19  O   UNL     1      -1.418  10.695  23.179  0.00  0.00    +0.000 OA
ATOM     20  O   UNL     1      -0.097  12.873  22.882  0.00  0.00    +0.000 OA
BRANCH  18  21
ATOM     21  N   UNL     1      -2.334  12.640  21.779  0.00  0.00    +0.000 N 
ATOM     22  H   UNL     1      -2.034  13.597  21.579  0.00  0.00    +0.000 HD
BRANCH  21  23
ATOM     23  C   UNL     1      -3.578  12.600  22.492  0.00  0.00    +0.000 A 
ATOM     24  C   UNL     1      -3.586  12.484  23.885  0.00  0.00    +0.000 A 
ATOM     25  C   UNL     1      -4.787  12.632  24.594  0.00  0.00    +0.000 A 
ATOM     26  C   UNL     1      -5.971  12.880  23.904  0.00  0.00    +0.000 A 
ATOM     27  F   UNL     1      -7.109  13.066  24.588  0.00  0.00    +0.000 F 
ATOM     28  C   UNL     1      -5.982  12.957  22.515  0.00  0.00    +0.000 A 
ATOM     29  C   UNL     1      -4.783  12.806  21.804  0.00  0.00    +0.000 A 
ENDBRANCH  21  23
ENDBRANCH  18  21
ENDBRANCH   4  18
TORSDOF 4
ENDMDL
MODEL 9
REMARK VINA RESULT:      -5.6      2.679      4.824
REMARK  Name = 
REMARK  7 active torsions:
REMARK  status: ('A' for Active; 'I' for Inactive)
REMARK    1  A    between atoms: C_1  and  C_2
REMARK    2  A    between atoms: C_3  and  C_4
REMARK    3  A    between atoms: C_13  and  S_14
REMARK    4  A    between atoms: S_14  and  N_17
REMARK    5  A    between atoms: N_17  and  C_18
REMARK    6  A    between atoms: C_25  and  C_26
REMARK    7  A    between atoms: N_27  and  C_28
REMARK                            x       y       z     vdW  Elec       q    Type
REMARK                         _______ _______ _______ _____ _____    ______ ____
ROOT
ATOM      1  C   UNL     1       0.491   9.958  18.266  0.00  0.00    +0.000 C 
ATOM      2  C   UNL     1      -0.610  10.907  18.610  0.00  0.00    +0.000 A 
ATOM      3  C   UNL     1      -0.715  11.949  19.545  0.00  0.00    +0.000 A 
ATOM      4  C   UNL     1      -2.153  12.252  19.605  0.00  0.00    +0.000 A 
ATOM      5  C   UNL     1      -2.801  11.499  18.624  0.00  0.00    +0.000 A 
ATOM      6  C   UNL     1      -4.230  11.357  18.218  0.00  0.00    +0.000 C 
ATOM      7  N   UNL     1      -1.831  10.763  17.982  0.00  0.00    +0.000 N 
ATOM      8  C   UNL     1      -2.050   9.875  16.852  0.00  0.00    +0.000 C 
ENDROOT
BRANCH   3   9
ATOM      9  C   UNL     1       0.336  12.492  20.451  0.00  0.00    +0.000 C 
ATOM     10  O   UNL     1       0.444  12.019  21.582  0.00  0.00    +0.000 OA
ATOM     11  N   UNL     1       1.239  13.514  20.042  0.00  0.00    +0.000 N 
ATOM     12  C   UNL     1       2.425  13.733  20.878  0.00  0.00    +0.000 C 
ATOM     13  C   UNL     1       2.271  14.912  21.841  0.00  0.00    +0.000 C 
ATOM     14  C   UNL     1       2.525  16.283  21.216  0.00  0.00    +0.000 C 
ATOM     15  C   UNL     1       1.608  16.631  20.050  0.00  0.00    +0.000 C 
ATOM     16  C   UNL     1       1.825  15.721  18.854  0.00  0.00    +0.000 C 
ATOM     17  C   UNL     1       1.036  14.411  18.909  0.00  0.00    +0.000 C 
ENDBRANCH   3   9
BRANCH   4  18
ATOM     18  S   UNL     1      -2.920  13.347  20.762  0.00  0.00    +0.000 S 
ATOM     19  O   UNL     1      -2.318  14.635  20.513  0.00  0.00    +0.000 OA
ATOM     20  O   UNL     1      -4.332  13.052  20.632  0.00  0.00    +0.000 OA
BRANCH  18  21
ATOM     21  N   UNL     1      -2.511  12.845  22.340  0.00  0.00    +0.000 N 
ATOM     22  H   UNL     1      -3.145  12.079  22.575  0.00  0.00    +0.000 HD
BRANCH  21  23
ATOM     23  C   UNL     1      -2.413  13.810  23.396  0.00  0.00    +0.000 A 
ATOM     24  C   UNL     1      -1.168  14.330  23.760  0.00  0.00    +0.000 A 
ATOM     25  C   UNL     1      -1.090  15.404  24.658  0.00  0.00    +0.000 A 
ATOM     26  C   UNL     1      -2.257  15.940  25.196  0.00  0.00    +0.000 A 
ATOM     27  F   UNL     1      -2.183  16.995  26.020  0.00  0.00    +0.000 F 
ATOM     28  C   UNL     1      -3.500  15.405  24.874  0.00  0.00    +0.000 A 
ATOM     29  C   UNL     1      -3.580  14.328  23.979  0.00  0.00    +0.000 A 
ENDBRANCH  21  23
ENDBRANCH  18  21
ENDBRANCH   4  18
TORSDOF 4
ENDMDL
