MODEL 1
REMARK VINA RESULT:      -7.8      0.000      0.000
REMARK  Name = 
REMARK  11 active torsions:
REMARK  status: ('A' for Active; 'I' for Inactive)
REMARK    1  A    between atoms: C_1  and  C_2
REMARK    2  A    between atoms: C_5  and  C_6
REMARK    3  A    between atoms: C_7  and  N_8
REMARK    4  A    between atoms: N_8  and  C_9
REMARK    5  A    between atoms: C_9  and  C_10
REMARK    6  A    between atoms: N_12  and  C_13
REMARK    7  A    between atoms: C_13  and  C_14
REMARK    8  A    between atoms: C_19  and  C_21
REMARK    9  A    between atoms: C_21  and  N_22
REMARK   10  A    between atoms: N_22  and  S_23
REMARK   11  A    between atoms: S_23  and  C_26
REMARK                            x       y       z     vdW  Elec       q    Type
REMARK                         _______ _______ _______ _____ _____    ______ ____
ROOT
ATOM      1  N   UNL     1       1.080   9.467  19.263  0.00  0.00    +0.000 N 
ATOM      2  C   UNL     1       1.910   8.939  18.233  0.00  0.00    +0.000 C 
ATOM      3  O   UNL     1       2.071   9.501  17.146  0.00  0.00    +0.000 OA
ENDROOT
BRANCH   1  10
ATOM      4  C   UNL     1       1.781  14.435  19.775  0.00  0.00    +0.000 C 
ATOM      5  C   UNL     1       0.927  13.267  19.369  0.00  0.00    +0.000 A 
ATOM      6  C   UNL     1      -0.337  13.502  18.839  0.00  0.00    +0.000 A 
ATOM      7  C   UNL     1      -1.146  12.432  18.456  0.00  0.00    +0.000 A 
ATOM      8  C   UNL     1      -0.711  11.096  18.596  0.00  0.00    +0.000 A 
ATOM      9  C   UNL     1      -1.694  10.026  18.213  0.00  0.00    +0.000 C 
ATOM     10  C   UNL     1       0.578  10.830  19.103  0.00  0.00    +0.000 A 
ATOM     11  C   UNL     1       1.375  11.937  19.497  0.00  0.00    +0.000 A 
ENDBRANCH   1  10
BRANCH   1  12
ATOM     12  C   UNL     1       1.240   9.000  20.653  0.00  0.00    +0.000 C 
BRANCH  12  13
ATOM     13  C   UNL     1       0.065   9.174  21.636  0.00  0.00    +0.000 C 
ATOM     14  O   UNL     1      -0.782   8.284  21.739  0.00  0.00    +0.000 OA
ATOM     15  N   UNL     1      -0.030  10.343  22.362  0.00  0.00    +0.000 N 
ATOM     16  H   UNL     1       0.806  10.885  22.553  0.00  0.00    +0.000 HD
BRANCH  15  17
ATOM     17  C   UNL     1      -1.163  10.498  23.258  0.00  0.00    +0.000 C 
BRANCH  17  18
ATOM     18  C   UNL     1      -1.974  11.713  22.985  0.00  0.00    +0.000 A 
ATOM     19  C   UNL     1      -1.743  12.807  22.169  0.00  0.00    +0.000 A 
ATOM     20  C   UNL     1      -2.911  13.603  22.213  0.00  0.00    +0.000 A 
ATOM     21  C   UNL     1      -3.779  12.952  23.058  0.00  0.00    +0.000 A 
ATOM     22  O   UNL     1      -3.221  11.806  23.535  0.00  0.00    +0.000 OA
ENDBRANCH  17  18
ENDBRANCH  15  17
ENDBRANCH  12  13
ENDBRANCH   1  12
BRANCH   2  23
ATOM     23  C   UNL     1       2.629   7.593  18.507  0.00  0.00    +0.000 C 
BRANCH  23  24
ATOM     24  N   UNL     1       3.732   7.294  17.576  0.00  0.00    +0.000 NA
ATOM     25  H   UNL     1       4.404   8.044  17.401  0.00  0.00    +0.000 HD
BRANCH  24  26
ATOM     26  S   UNL     1       4.459   5.780  17.688  0.00  0.00    +0.000 S 
ATOM     27  O   UNL     1       4.584   5.279  16.338  0.00  0.00    +0.000 OA
ATOM     28  O   UNL     1       5.607   5.901  18.561  0.00  0.00    +0.000 OA
BRANCH  26  29
ATOM     29  C   UNL     1       3.239   4.776  18.506  0.00  0.00    +0.000 A 
ATOM     30  C   UNL     1       2.208   4.202  17.752  0.00  0.00    +0.000 A 
ATOM     31  C   UNL     1       1.285   3.361  18.380  0.00  0.00    +0.000 A 
ATOM     32  C   UNL     1       1.406   3.097  19.741  0.00  0.00    +0.000 A 
ATOM     33  F   UNL     1       0.523   2.284  20.337  0.00  0.00    +0.000 F 
ATOM     34  C   UNL     1       2.437   3.653  20.491  0.00  0.00    +0.000 A 
ATOM     35  C   UNL     1       3.364   4.497  19.873  0.00  0.00    +0.000 A 
ENDBRANCH  26  29
ENDBRANCH  24  26
ENDBRANCH  23  24
ENDBRANCH   2  23
TORSDOF 9
ENDMDL
MODEL 2
REMARK VINA RESULT:      -7.8      2.159      2.541
REMARK  Name = 
REMARK  11 active torsions:
REMARK  status: ('A' for Active; 'I' for Inactive)
REMARK    1  A    between atoms: C_1  and  C_2
REMARK    2  A    between atoms: C_5  and  C_6
REMARK    3  A    between atoms: C_7  and  N_8
REMARK    4  A    between atoms: N_8  and  C_9
REMARK    5  A    between atoms: C_9  and  C_10
REMARK    6  A    between atoms: N_12  and  C_13
REMARK    7  A    between atoms: C_13  and  C_14
REMARK    8  A    between atoms: C_19  and  C_21
REMARK    9  A    between atoms: C_21  and  N_22
REMARK   10  A    between atoms: N_22  and  S_23
REMARK   11  A    between atoms: S_23  and  C_26
REMARK                            x       y       z     vdW  Elec       q    Type
REMARK                         _______ _______ _______ _____ _____    ______ ____
ROOT
ATOM      1  N   UNL     1       1.072   9.340  19.229  0.00  0.00    +0.000 N 
ATOM      2  C   UNL     1       1.942   8.862  18.209  0.00  0.00    +0.000 C 
ATOM      3  O   UNL     1       2.114   9.455  17.140  0.00  0.00    +0.000 OA
ENDROOT
BRANCH   1  10
ATOM      4  C   UNL     1       1.650  14.317  19.806  0.00  0.00    +0.000 C 
ATOM      5  C   UNL     1       0.824  13.134  19.388  0.00  0.00    +0.000 A 
ATOM      6  C   UNL     1      -0.448  13.345  18.865  0.00  0.00    +0.000 A 
ATOM      7  C   UNL     1      -1.231  12.260  18.469  0.00  0.00    +0.000 A 
ATOM      8  C   UNL     1      -0.762  10.933  18.589  0.00  0.00    +0.000 A 
ATOM      9  C   UNL     1      -1.719   9.844  18.195  0.00  0.00    +0.000 C 
ATOM     10  C   UNL     1       0.535  10.692  19.089  0.00  0.00    +0.000 A 
ATOM     11  C   UNL     1       1.305  11.814  19.496  0.00  0.00    +0.000 A 
ENDBRANCH   1  10
BRANCH   1  12
ATOM     12  C   UNL     1       1.210   8.844  20.611  0.00  0.00    +0.000 C 
BRANCH  12  13
ATOM     13  C   UNL     1       0.044   9.055  21.598  0.00  0.00    +0.000 C 
ATOM     14  O   UNL     1      -0.871   8.231  21.646  0.00  0.00    +0.000 OA
ATOM     15  N   UNL     1       0.036  10.184  22.389  0.00  0.00    +0.000 N 
ATOM     16  H   UNL     1       0.911  10.646  22.615  0.00  0.00    +0.000 HD
BRANCH  15  17
ATOM     17  C   UNL     1      -1.088  10.378  23.288  0.00  0.00    +0.000 C 
BRANCH  17  18
ATOM     18  C   UNL     1      -1.814  11.656  23.065  0.00  0.00    +0.000 A 
ATOM     19  C   UNL     1      -1.434  12.829  22.437  0.00  0.00    +0.000 A 
ATOM     20  C   UNL     1      -2.571  13.670  22.422  0.00  0.00    +0.000 A 
ATOM     21  C   UNL     1      -3.571  12.964  23.049  0.00  0.00    +0.000 A 
ATOM     22  O   UNL     1      -3.123  11.741  23.446  0.00  0.00    +0.000 OA
ENDBRANCH  17  18
ENDBRANCH  15  17
ENDBRANCH  12  13
ENDBRANCH   1  12
BRANCH   2  23
ATOM     23  C   UNL     1       2.692   7.530  18.468  0.00  0.00    +0.000 C 
BRANCH  23  24
ATOM     24  N   UNL     1       1.906   6.321  18.163  0.00  0.00    +0.000 NA
ATOM     25  H   UNL     1       1.588   6.209  17.198  0.00  0.00    +0.000 HD
BRANCH  24  26
ATOM     26  S   UNL     1       2.403   4.871  18.859  0.00  0.00    +0.000 S 
ATOM     27  O   UNL     1       2.472   5.098  20.285  0.00  0.00    +0.000 OA
ATOM     28  O   UNL     1       1.596   3.809  18.299  0.00  0.00    +0.000 OA
BRANCH  26  29
ATOM     29  C   UNL     1       4.073   4.668  18.283  0.00  0.00    +0.000 A 
ATOM     30  C   UNL     1       4.298   4.245  16.967  0.00  0.00    +0.000 A 
ATOM     31  C   UNL     1       5.608   4.146  16.491  0.00  0.00    +0.000 A 
ATOM     32  C   UNL     1       6.672   4.477  17.325  0.00  0.00    +0.000 A 
ATOM     33  F   UNL     1       7.926   4.388  16.863  0.00  0.00    +0.000 F 
ATOM     34  C   UNL     1       6.454   4.912  18.629  0.00  0.00    +0.000 A 
ATOM     35  C   UNL     1       5.148   5.013  19.114  0.00  0.00    +0.000 A 
ENDBRANCH  26  29
ENDBRANCH  24  26
ENDBRANCH  23  24
ENDBRANCH   2  23
TORSDOF 9
ENDMDL
MODEL 3
REMARK VINA RESULT:      -7.7      2.377      2.853
REMARK  Name = 
REMARK  11 active torsions:
REMARK  status: ('A' for Active; 'I' for Inactive)
REMARK    1  A    between atoms: C_1  and  C_2
REMARK    2  A    between atoms: C_5  and  C_6
REMARK    3  A    between atoms: C_7  and  N_8
REMARK    4  A    between atoms: N_8  and  C_9
REMARK    5  A    between atoms: C_9  and  C_10
REMARK    6  A    between atoms: N_12  and  C_13
REMARK    7  A    between atoms: C_13  and  C_14
REMARK    8  A    between atoms: C_19  and  C_21
REMARK    9  A    between atoms: C_21  and  N_22
REMARK   10  A    between atoms: N_22  and  S_23
REMARK   11  A    between atoms: S_23  and  C_26
REMARK                            x       y       z     vdW  Elec       q    Type
REMARK                         _______ _______ _______ _____ _____    ______ ____
ROOT
ATOM      1  N   UNL     1       1.094   9.344  19.357  0.00  0.00    +0.000 N 
ATOM      2  C   UNL     1       1.902   8.655  18.410  0.00  0.00    +0.000 C 
ATOM      3  O   UNL     1       2.079   9.059  17.257  0.00  0.00    +0.000 OA
ENDROOT
BRANCH   1  10
ATOM      4  C   UNL     1       1.949  14.313  19.213  0.00  0.00    +0.000 C 
ATOM      5  C   UNL     1       1.060  13.128  18.958  0.00  0.00    +0.000 A 
ATOM      6  C   UNL     1      -0.193  13.330  18.389  0.00  0.00    +0.000 A 
ATOM      7  C   UNL     1      -1.033  12.243  18.144  0.00  0.00    +0.000 A 
ATOM      8  C   UNL     1      -0.642  10.925  18.463  0.00  0.00    +0.000 A 
ATOM      9  C   UNL     1      -1.656   9.844  18.216  0.00  0.00    +0.000 C 
ATOM     10  C   UNL     1       0.635  10.689  19.013  0.00  0.00    +0.000 A 
ATOM     11  C   UNL     1       1.465  11.813  19.265  0.00  0.00    +0.000 A 
ENDBRANCH   1  10
BRANCH   1  12
ATOM     12  C   UNL     1       1.242   9.065  20.799  0.00  0.00    +0.000 C 
BRANCH  12  13
ATOM     13  C   UNL     1       0.045   9.325  21.734  0.00  0.00    +0.000 C 
ATOM     14  O   UNL     1      -0.782   8.431  21.930  0.00  0.00    +0.000 OA
ATOM     15  N   UNL     1      -0.094  10.570  22.311  0.00  0.00    +0.000 N 
ATOM     16  H   UNL     1       0.724  11.154  22.449  0.00  0.00    +0.000 HD
BRANCH  15  17
ATOM     17  C   UNL     1      -1.247  10.802  23.163  0.00  0.00    +0.000 C 
BRANCH  17  18
ATOM     18  C   UNL     1      -2.139  11.885  22.674  0.00  0.00    +0.000 A 
ATOM     19  C   UNL     1      -1.979  12.822  21.669  0.00  0.00    +0.000 A 
ATOM     20  C   UNL     1      -3.200  13.528  21.571  0.00  0.00    +0.000 A 
ATOM     21  C   UNL     1      -4.028  12.985  22.526  0.00  0.00    +0.000 A 
ATOM     22  O   UNL     1      -3.394  11.989  23.204  0.00  0.00    +0.000 OA
ENDBRANCH  17  18
ENDBRANCH  15  17
ENDBRANCH  12  13
ENDBRANCH   1  12
BRANCH   2  23
ATOM     23  C   UNL     1       2.578   7.336  18.865  0.00  0.00    +0.000 C 
BRANCH  23  24
ATOM     24  N   UNL     1       2.157   6.145  18.105  0.00  0.00    +0.000 NA
ATOM     25  H   UNL     1       1.774   6.305  17.171  0.00  0.00    +0.000 HD
BRANCH  24  26
ATOM     26  S   UNL     1       3.143   4.782  18.180  0.00  0.00    +0.000 S 
ATOM     27  O   UNL     1       2.924   4.184  19.477  0.00  0.00    +0.000 OA
ATOM     28  O   UNL     1       2.958   4.031  16.957  0.00  0.00    +0.000 OA
BRANCH  26  29
ATOM     29  C   UNL     1       4.794   5.446  18.185  0.00  0.00    +0.000 A 
ATOM     30  C   UNL     1       5.156   6.390  17.215  0.00  0.00    +0.000 A 
ATOM     31  C   UNL     1       6.430   6.961  17.254  0.00  0.00    +0.000 A 
ATOM     32  C   UNL     1       7.320   6.593  18.260  0.00  0.00    +0.000 A 
ATOM     33  F   UNL     1       8.539   7.149  18.299  0.00  0.00    +0.000 F 
ATOM     34  C   UNL     1       6.961   5.667  19.234  0.00  0.00    +0.000 A 
ATOM     35  C   UNL     1       5.689   5.090  19.202  0.00  0.00    +0.000 A 
ENDBRANCH  26  29
ENDBRANCH  24  26
ENDBRANCH  23  24
ENDBRANCH   2  23
TORSDOF 9
ENDMDL
MODEL 4
REMARK VINA RESULT:      -7.6      3.486      9.529
REMARK  Name = 
REMARK  11 active torsions:
REMARK  status: ('A' for Active; 'I' for Inactive)
REMARK    1  A    between atoms: C_1  and  C_2
REMARK    2  A    between atoms: C_5  and  C_6
REMARK    3  A    between atoms: C_7  and  N_8
REMARK    4  A    between atoms: N_8  and  C_9
REMARK    5  A    between atoms: C_9  and  C_10
REMARK    6  A    between atoms: N_12  and  C_13
REMARK    7  A    between atoms: C_13  and  C_14
REMARK    8  A    between atoms: C_19  and  C_21
REMARK    9  A    between atoms: C_21  and  N_22
REMARK   10  A    between atoms: N_22  and  S_23
REMARK   11  A    between atoms: S_23  and  C_26
REMARK                            x       y       z     vdW  Elec       q    Type
REMARK                         _______ _______ _______ _____ _____    ______ ____
ROOT
ATOM      1  N   UNL     1       3.234   5.764  18.466  0.00  0.00    +0.000 N 
ATOM      2  C   UNL     1       2.303   6.784  18.123  0.00  0.00    +0.000 C 
ATOM      3  O   UNL     1       1.105   6.562  17.926  0.00  0.00    +0.000 OA
ENDROOT
BRANCH   1  10
ATOM      4  C   UNL     1       1.266   2.637  21.899  0.00  0.00    +0.000 C 
ATOM      5  C   UNL     1       1.751   2.913  20.505  0.00  0.00    +0.000 A 
ATOM      6  C   UNL     1       1.685   1.903  19.550  0.00  0.00    +0.000 A 
ATOM      7  C   UNL     1       2.129   2.140  18.249  0.00  0.00    +0.000 A 
ATOM      8  C   UNL     1       2.654   3.394  17.868  0.00  0.00    +0.000 A 
ATOM      9  C   UNL     1       3.164   3.510  16.460  0.00  0.00    +0.000 C 
ATOM     10  C   UNL     1       2.706   4.445  18.808  0.00  0.00    +0.000 A 
ATOM     11  C   UNL     1       2.259   4.173  20.128  0.00  0.00    +0.000 A 
ENDBRANCH   1  10
BRANCH   1  12
ATOM     12  C   UNL     1       4.525   6.119  19.086  0.00  0.00    +0.000 C 
BRANCH  12  13
ATOM     13  C   UNL     1       5.829   5.656  18.405  0.00  0.00    +0.000 C 
ATOM     14  O   UNL     1       6.722   5.143  19.082  0.00  0.00    +0.000 OA
ATOM     15  N   UNL     1       5.981   5.856  17.049  0.00  0.00    +0.000 N 
ATOM     16  H   UNL     1       5.161   5.929  16.456  0.00  0.00    +0.000 HD
BRANCH  15  17
ATOM     17  C   UNL     1       7.230   5.442  16.435  0.00  0.00    +0.000 C 
BRANCH  17  18
ATOM     18  C   UNL     1       7.064   4.882  15.068  0.00  0.00    +0.000 A 
ATOM     19  C   UNL     1       6.221   3.902  14.574  0.00  0.00    +0.000 A 
ATOM     20  C   UNL     1       6.418   3.862  13.175  0.00  0.00    +0.000 A 
ATOM     21  C   UNL     1       7.373   4.812  12.901  0.00  0.00    +0.000 A 
ATOM     22  O   UNL     1       7.775   5.436  14.042  0.00  0.00    +0.000 OA
ENDBRANCH  17  18
ENDBRANCH  15  17
ENDBRANCH  12  13
ENDBRANCH   1  12
BRANCH   2  23
ATOM     23  C   UNL     1       2.839   8.233  17.990  0.00  0.00    +0.000 C 
BRANCH  23  24
ATOM     24  N   UNL     1       1.819   9.224  17.600  0.00  0.00    +0.000 NA
ATOM     25  H   UNL     1       1.091   8.907  16.957  0.00  0.00    +0.000 HD
BRANCH  24  26
ATOM     26  S   UNL     1       1.232  10.252  18.797  0.00  0.00    +0.000 S 
ATOM     27  O   UNL     1       1.229   9.495  20.028  0.00  0.00    +0.000 OA
ATOM     28  O   UNL     1       1.933  11.512  18.683  0.00  0.00    +0.000 OA
BRANCH  26  29
ATOM     29  C   UNL     1      -0.468  10.514  18.343  0.00  0.00    +0.000 A 
ATOM     30  C   UNL     1      -1.055   9.686  17.378  0.00  0.00    +0.000 A 
ATOM     31  C   UNL     1      -2.408   9.847  17.065  0.00  0.00    +0.000 A 
ATOM     32  C   UNL     1      -3.156  10.820  17.722  0.00  0.00    +0.000 A 
ATOM     33  F   UNL     1      -4.454  10.966  17.425  0.00  0.00    +0.000 F 
ATOM     34  C   UNL     1      -2.582  11.635  18.692  0.00  0.00    +0.000 A 
ATOM     35  C   UNL     1      -1.230  11.482  19.010  0.00  0.00    +0.000 A 
ENDBRANCH  26  29
ENDBRANCH  24  26
ENDBRANCH  23  24
ENDBRANCH   2  23
TORSDOF 9
ENDMDL
MODEL 5
REMARK VINA RESULT:      -7.5      0.973      1.060
REMARK  Name = 
REMARK  11 active torsions:
REMARK  status: ('A' for Active; 'I' for Inactive)
REMARK    1  A    between atoms: C_1  and  C_2
REMARK    2  A    between atoms: C_5  and  C_6
REMARK    3  A    between atoms: C_7  and  N_8
REMARK    4  A    between atoms: N_8  and  C_9
REMARK    5  A    between atoms: C_9  and  C_10
REMARK    6  A    between atoms: N_12  and  C_13
REMARK    7  A    between atoms: C_13  and  C_14
REMARK    8  A    between atoms: C_19  and  C_21
REMARK    9  A    between atoms: C_21  and  N_22
REMARK   10  A    between atoms: N_22  and  S_23
REMARK   11  A    between atoms: S_23  and  C_26
REMARK                            x       y       z     vdW  Elec       q    Type
REMARK                         _______ _______ _______ _____ _____    ______ ____
ROOT
ATOM      1  N   UNL     1       1.155   9.221  19.256  0.00  0.00    +0.000 N 
ATOM      2  C   UNL     1       2.054   8.854  18.215  0.00  0.00    +0.000 C 
ATOM      3  O   UNL     1       2.275   9.571  17.235  0.00  0.00    +0.000 OA
ENDROOT
BRANCH   1  10
ATOM      4  C   UNL     1       1.770  14.070  20.500  0.00  0.00    +0.000 C 
ATOM      5  C   UNL     1       0.951  12.967  19.892  0.00  0.00    +0.000 A 
ATOM      6  C   UNL     1      -0.289  13.269  19.338  0.00  0.00    +0.000 A 
ATOM      7  C   UNL     1      -1.065  12.260  18.768  0.00  0.00    +0.000 A 
ATOM      8  C   UNL     1      -0.622  10.920  18.738  0.00  0.00    +0.000 A 
ATOM      9  C   UNL     1      -1.572   9.909  18.160  0.00  0.00    +0.000 C 
ATOM     10  C   UNL     1       0.644  10.590  19.266  0.00  0.00    +0.000 A 
ATOM     11  C   UNL     1       1.408  11.634  19.852  0.00  0.00    +0.000 A 
ENDBRANCH   1  10
BRANCH   1  12
ATOM     12  C   UNL     1       1.234   8.555  20.570  0.00  0.00    +0.000 C 
BRANCH  12  13
ATOM     13  C   UNL     1       0.803   9.337  21.827  0.00  0.00    +0.000 C 
ATOM     14  O   UNL     1       1.652   9.688  22.649  0.00  0.00    +0.000 OA
ATOM     15  N   UNL     1      -0.537   9.601  22.022  0.00  0.00    +0.000 N 
ATOM     16  H   UNL     1      -1.162   9.645  21.224  0.00  0.00    +0.000 HD
BRANCH  15  17
ATOM     17  C   UNL     1      -0.923  10.311  23.229  0.00  0.00    +0.000 C 
BRANCH  17  18
ATOM     18  C   UNL     1      -1.335  11.718  22.985  0.00  0.00    +0.000 A 
ATOM     19  C   UNL     1      -2.538  12.263  22.574  0.00  0.00    +0.000 A 
ATOM     20  C   UNL     1      -2.387  13.668  22.625  0.00  0.00    +0.000 A 
ATOM     21  C   UNL     1      -1.101  13.895  23.055  0.00  0.00    +0.000 A 
ATOM     22  O   UNL     1      -0.451  12.719  23.274  0.00  0.00    +0.000 OA
ENDBRANCH  17  18
ENDBRANCH  15  17
ENDBRANCH  12  13
ENDBRANCH   1  12
BRANCH   2  23
ATOM     23  C   UNL     1       2.774   7.486  18.334  0.00  0.00    +0.000 C 
BRANCH  23  24
ATOM     24  N   UNL     1       3.700   7.190  17.226  0.00  0.00    +0.000 NA
ATOM     25  H   UNL     1       4.169   7.987  16.791  0.00  0.00    +0.000 HD
BRANCH  24  26
ATOM     26  S   UNL     1       4.707   5.850  17.389  0.00  0.00    +0.000 S 
ATOM     27  O   UNL     1       4.992   5.381  16.052  0.00  0.00    +0.000 OA
ATOM     28  O   UNL     1       5.765   6.197  18.312  0.00  0.00    +0.000 OA
BRANCH  26  29
ATOM     29  C   UNL     1       3.672   4.625  18.159  0.00  0.00    +0.000 A 
ATOM     30  C   UNL     1       2.707   3.962  17.391  0.00  0.00    +0.000 A 
ATOM     31  C   UNL     1       1.936   2.954  17.977  0.00  0.00    +0.000 A 
ATOM     32  C   UNL     1       2.142   2.615  19.311  0.00  0.00    +0.000 A 
ATOM     33  F   UNL     1       1.406   1.643  19.867  0.00  0.00    +0.000 F 
ATOM     34  C   UNL     1       3.109   3.261  20.075  0.00  0.00    +0.000 A 
ATOM     35  C   UNL     1       3.884   4.271  19.498  0.00  0.00    +0.000 A 
ENDBRANCH  26  29
ENDBRANCH  24  26
ENDBRANCH  23  24
ENDBRANCH   2  23
TORSDOF 9
ENDMDL
MODEL 6
REMARK VINA RESULT:      -7.4      2.464      3.000
REMARK  Name = 
REMARK  11 active torsions:
REMARK  status: ('A' for Active; 'I' for Inactive)
REMARK    1  A    between atoms: C_1  and  C_2
REMARK    2  A    between atoms: C_5  and  C_6
REMARK    3  A    between atoms: C_7  and  N_8
REMARK    4  A    between atoms: N_8  and  C_9
REMARK    5  A    between atoms: C_9  and  C_10
REMARK    6  A    between atoms: N_12  and  C_13
REMARK    7  A    between atoms: C_13  and  C_14
REMARK    8  A    between atoms: C_19  and  C_21
REMARK    9  A    between atoms: C_21  and  N_22
REMARK   10  A    between atoms: N_22  and  S_23
REMARK   11  A    between atoms: S_23  and  C_26
REMARK                            x       y       z     vdW  Elec       q    Type
REMARK                         _______ _______ _______ _____ _____    ______ ____
ROOT
ATOM      1  N   UNL     1       0.854   9.727  19.768  0.00  0.00    +0.000 N 
ATOM      2  C   UNL     1       1.554   8.836  18.906  0.00  0.00    +0.000 C 
ATOM      3  O   UNL     1       1.719   9.056  17.703  0.00  0.00    +0.000 OA
ENDROOT
BRANCH   1  10
ATOM      4  C   UNL     1       2.098  14.562  19.053  0.00  0.00    +0.000 C 
ATOM      5  C   UNL     1       1.126  13.425  18.913  0.00  0.00    +0.000 A 
ATOM      6  C   UNL     1      -0.094  13.648  18.283  0.00  0.00    +0.000 A 
ATOM      7  C   UNL     1      -1.010  12.605  18.142  0.00  0.00    +0.000 A 
ATOM      8  C   UNL     1      -0.730  11.310  18.632  0.00  0.00    +0.000 A 
ATOM      9  C   UNL     1      -1.819  10.286  18.484  0.00  0.00    +0.000 C 
ATOM     10  C   UNL     1       0.511  11.049  19.249  0.00  0.00    +0.000 A 
ATOM     11  C   UNL     1       1.419  12.131  19.391  0.00  0.00    +0.000 A 
ENDBRANCH   1  10
BRANCH   1  12
ATOM     12  C   UNL     1       1.036   9.638  21.229  0.00  0.00    +0.000 C 
BRANCH  12  13
ATOM     13  C   UNL     1      -0.171   9.915  22.148  0.00  0.00    +0.000 C 
ATOM     14  O   UNL     1      -0.813   8.970  22.612  0.00  0.00    +0.000 OA
ATOM     15  N   UNL     1      -0.527  11.222  22.407  0.00  0.00    +0.000 N 
ATOM     16  H   UNL     1       0.172  11.955  22.342  0.00  0.00    +0.000 HD
BRANCH  15  17
ATOM     17  C   UNL     1      -1.686  11.458  23.249  0.00  0.00    +0.000 C 
BRANCH  17  18
ATOM     18  C   UNL     1      -2.762  12.231  22.575  0.00  0.00    +0.000 A 
ATOM     19  C   UNL     1      -2.781  12.925  21.378  0.00  0.00    +0.000 A 
ATOM     20  C   UNL     1      -4.109  13.370  21.186  0.00  0.00    +0.000 A 
ATOM     21  C   UNL     1      -4.817  12.930  22.280  0.00  0.00    +0.000 A 
ATOM     22  O   UNL     1      -4.009  12.240  23.131  0.00  0.00    +0.000 OA
ENDBRANCH  17  18
ENDBRANCH  15  17
ENDBRANCH  12  13
ENDBRANCH   1  12
BRANCH   2  23
ATOM     23  C   UNL     1       2.121   7.532  19.525  0.00  0.00    +0.000 C 
BRANCH  23  24
ATOM     24  N   UNL     1       3.309   6.999  18.834  0.00  0.00    +0.000 NA
ATOM     25  H   UNL     1       4.217   7.356  19.135  0.00  0.00    +0.000 HD
BRANCH  24  26
ATOM     26  S   UNL     1       3.337   5.351  18.491  0.00  0.00    +0.000 S 
ATOM     27  O   UNL     1       3.804   4.686  19.687  0.00  0.00    +0.000 OA
ATOM     28  O   UNL     1       2.075   5.003  17.874  0.00  0.00    +0.000 OA
BRANCH  26  29
ATOM     29  C   UNL     1       4.620   5.187  17.270  0.00  0.00    +0.000 A 
ATOM     30  C   UNL     1       5.672   6.111  17.253  0.00  0.00    +0.000 A 
ATOM     31  C   UNL     1       6.715   5.949  16.337  0.00  0.00    +0.000 A 
ATOM     32  C   UNL     1       6.701   4.868  15.460  0.00  0.00    +0.000 A 
ATOM     33  F   UNL     1       7.707   4.712  14.589  0.00  0.00    +0.000 F 
ATOM     34  C   UNL     1       5.666   3.938  15.483  0.00  0.00    +0.000 A 
ATOM     35  C   UNL     1       4.618   4.093  16.394  0.00  0.00    +0.000 A 
ENDBRANCH  26  29
ENDBRANCH  24  26
ENDBRANCH  23  24
ENDBRANCH   2  23
TORSDOF 9
ENDMDL
MODEL 7
REMARK VINA RESULT:      -7.4      0.644      1.712
REMARK  Name = 
REMARK  11 active torsions:
REMARK  status: ('A' for Active; 'I' for Inactive)
REMARK    1  A    between atoms: C_1  and  C_2
REMARK    2  A    between atoms: C_5  and  C_6
REMARK    3  A    between atoms: C_7  and  N_8
REMARK    4  A    between atoms: N_8  and  C_9
REMARK    5  A    between atoms: C_9  and  C_10
REMARK    6  A    between atoms: N_12  and  C_13
REMARK    7  A    between atoms: C_13  and  C_14
REMARK    8  A    between atoms: C_19  and  C_21
REMARK    9  A    between atoms: C_21  and  N_22
REMARK   10  A    between atoms: N_22  and  S_23
REMARK   11  A    between atoms: S_23  and  C_26
REMARK                            x       y       z     vdW  Elec       q    Type
REMARK                         _______ _______ _______ _____ _____    ______ ____
ROOT
ATOM      1  N   UNL     1       0.939   9.197  19.216  0.00  0.00    +0.000 N 
ATOM      2  C   UNL     1       1.869   8.749  18.236  0.00  0.00    +0.000 C 
ATOM      3  O   UNL     1       1.868   9.157  17.071  0.00  0.00    +0.000 OA
ENDROOT
BRANCH   1  10
ATOM      4  C   UNL     1      -3.547  11.006  17.788  0.00  0.00    +0.000 C 
ATOM      5  C   UNL     1      -2.110  11.219  18.168  0.00  0.00    +0.000 A 
ATOM      6  C   UNL     1      -1.601  12.514  18.202  0.00  0.00    +0.000 A 
ATOM      7  C   UNL     1      -0.269  12.733  18.553  0.00  0.00    +0.000 A 
ATOM      8  C   UNL     1       0.592  11.662  18.878  0.00  0.00    +0.000 A 
ATOM      9  C   UNL     1       2.022  12.014  19.174  0.00  0.00    +0.000 C 
ATOM     10  C   UNL     1       0.094  10.342  18.881  0.00  0.00    +0.000 A 
ATOM     11  C   UNL     1      -1.261  10.146  18.507  0.00  0.00    +0.000 A 
ENDBRANCH   1  10
BRANCH   1  12
ATOM     12  C   UNL     1       1.228   9.009  20.650  0.00  0.00    +0.000 C 
BRANCH  12  13
ATOM     13  C   UNL     1       0.089   9.208  21.671  0.00  0.00    +0.000 C 
ATOM     14  O   UNL     1      -0.733   8.307  21.850  0.00  0.00    +0.000 OA
ATOM     15  N   UNL     1      -0.003  10.409  22.343  0.00  0.00    +0.000 N 
ATOM     16  H   UNL     1       0.828  10.976  22.474  0.00  0.00    +0.000 HD
BRANCH  15  17
ATOM     17  C   UNL     1      -1.102  10.585  23.276  0.00  0.00    +0.000 C 
BRANCH  17  18
ATOM     18  C   UNL     1      -2.066  11.638  22.866  0.00  0.00    +0.000 A 
ATOM     19  C   UNL     1      -2.096  12.477  21.766  0.00  0.00    +0.000 A 
ATOM     20  C   UNL     1      -3.311  13.197  21.835  0.00  0.00    +0.000 A 
ATOM     21  C   UNL     1      -3.944  12.762  22.975  0.00  0.00    +0.000 A 
ATOM     22  O   UNL     1      -3.197  11.817  23.611  0.00  0.00    +0.000 OA
ENDBRANCH  17  18
ENDBRANCH  15  17
ENDBRANCH  12  13
ENDBRANCH   1  12
BRANCH   2  23
ATOM     23  C   UNL     1       2.919   7.694  18.670  0.00  0.00    +0.000 C 
BRANCH  23  24
ATOM     24  N   UNL     1       3.854   7.293  17.603  0.00  0.00    +0.000 NA
ATOM     25  H   UNL     1       4.516   8.002  17.280  0.00  0.00    +0.000 HD
BRANCH  24  26
ATOM     26  S   UNL     1       4.537   5.757  17.699  0.00  0.00    +0.000 S 
ATOM     27  O   UNL     1       4.669   5.277  16.343  0.00  0.00    +0.000 OA
ATOM     28  O   UNL     1       5.673   5.831  18.591  0.00  0.00    +0.000 OA
BRANCH  26  29
ATOM     29  C   UNL     1       3.276   4.775  18.479  0.00  0.00    +0.000 A 
ATOM     30  C   UNL     1       2.249   4.231  17.698  0.00  0.00    +0.000 A 
ATOM     31  C   UNL     1       1.293   3.406  18.296  0.00  0.00    +0.000 A 
ATOM     32  C   UNL     1       1.378   3.126  19.657  0.00  0.00    +0.000 A 
ATOM     33  F   UNL     1       0.464   2.328  20.226  0.00  0.00    +0.000 F 
ATOM     34  C   UNL     1       2.405   3.651  20.436  0.00  0.00    +0.000 A 
ATOM     35  C   UNL     1       3.365   4.479  19.847  0.00  0.00    +0.000 A 
ENDBRANCH  26  29
ENDBRANCH  24  26
ENDBRANCH  23  24
ENDBRANCH   2  23
TORSDOF 9
ENDMDL
MODEL 8
REMARK VINA RESULT:      -7.3      0.936      1.327
REMARK  Name = 
REMARK  11 active torsions:
REMARK  status: ('A' for Active; 'I' for Inactive)
REMARK    1  A    between atoms: C_1  and  C_2
REMARK    2  A    between atoms: C_5  and  C_6
REMARK    3  A    between atoms: C_7  and  N_8
REMARK    4  A    between atoms: N_8  and  C_9
REMARK    5  A    between atoms: C_9  and  C_10
REMARK    6  A    between atoms: N_12  and  C_13
REMARK    7  A    between atoms: C_13  and  C_14
REMARK    8  A    between atoms: C_19  and  C_21
REMARK    9  A    between atoms: C_21  and  N_22
REMARK   10  A    between atoms: N_22  and  S_23
REMARK   11  A    between atoms: S_23  and  C_26
REMARK                            x       y       z     vdW  Elec       q    Type
REMARK                         _______ _______ _______ _____ _____    ______ ____
ROOT
ATOM      1  N   UNL     1       1.095   9.357  19.260  0.00  0.00    +0.000 N 
ATOM      2  C   UNL     1       1.868   8.932  18.144  0.00  0.00    +0.000 C 
ATOM      3  O   UNL     1       2.100   9.657  17.171  0.00  0.00    +0.000 OA
ENDROOT
BRANCH   1  10
ATOM      4  C   UNL     1       2.344  14.049  20.626  0.00  0.00    +0.000 C 
ATOM      5  C   UNL     1       1.366  13.073  20.036  0.00  0.00    +0.000 A 
ATOM      6  C   UNL     1       0.138  13.536  19.576  0.00  0.00    +0.000 A 
ATOM      7  C   UNL     1      -0.784  12.646  19.024  0.00  0.00    +0.000 A 
ATOM      8  C   UNL     1      -0.501  11.267  18.919  0.00  0.00    +0.000 A 
ATOM      9  C   UNL     1      -1.596  10.396  18.371  0.00  0.00    +0.000 C 
ATOM     10  C   UNL     1       0.748  10.774  19.351  0.00  0.00    +0.000 A 
ATOM     11  C   UNL     1       1.662  11.699  19.920  0.00  0.00    +0.000 A 
ENDBRANCH   1  10
BRANCH   1  12
ATOM     12  C   UNL     1       1.191   8.636  20.544  0.00  0.00    +0.000 C 
BRANCH  12  13
ATOM     13  C   UNL     1       0.752   9.355  21.836  0.00  0.00    +0.000 C 
ATOM     14  O   UNL     1       1.592   9.631  22.695  0.00  0.00    +0.000 OA
ATOM     15  N   UNL     1      -0.583   9.648  22.016  0.00  0.00    +0.000 N 
ATOM     16  H   UNL     1      -1.187   9.758  21.208  0.00  0.00    +0.000 HD
BRANCH  15  17
ATOM     17  C   UNL     1      -0.977  10.296  23.255  0.00  0.00    +0.000 C 
BRANCH  17  18
ATOM     18  C   UNL     1      -1.362  11.721  23.083  0.00  0.00    +0.000 A 
ATOM     19  C   UNL     1      -2.593  12.322  22.886  0.00  0.00    +0.000 A 
ATOM     20  C   UNL     1      -2.374  13.718  22.907  0.00  0.00    +0.000 A 
ATOM     21  C   UNL     1      -1.024  13.886  23.105  0.00  0.00    +0.000 A 
ATOM     22  O   UNL     1      -0.399  12.681  23.211  0.00  0.00    +0.000 OA
ENDBRANCH  17  18
ENDBRANCH  15  17
ENDBRANCH  12  13
ENDBRANCH   1  12
BRANCH   2  23
ATOM     23  C   UNL     1       2.431   7.488  18.166  0.00  0.00    +0.000 C 
BRANCH  23  24
ATOM     24  N   UNL     1       3.883   7.399  17.925  0.00  0.00    +0.000 NA
ATOM     25  H   UNL     1       4.478   8.048  18.444  0.00  0.00    +0.000 HD
BRANCH  24  26
ATOM     26  S   UNL     1       4.559   5.862  17.788  0.00  0.00    +0.000 S 
ATOM     27  O   UNL     1       4.492   5.504  16.390  0.00  0.00    +0.000 OA
ATOM     28  O   UNL     1       5.811   5.861  18.512  0.00  0.00    +0.000 OA
BRANCH  26  29
ATOM     29  C   UNL     1       3.412   4.810  18.650  0.00  0.00    +0.000 A 
ATOM     30  C   UNL     1       3.320   4.896  20.045  0.00  0.00    +0.000 A 
ATOM     31  C   UNL     1       2.375   4.117  20.720  0.00  0.00    +0.000 A 
ATOM     32  C   UNL     1       1.533   3.275  19.999  0.00  0.00    +0.000 A 
ATOM     33  F   UNL     1       0.624   2.537  20.649  0.00  0.00    +0.000 F 
ATOM     34  C   UNL     1       1.611   3.198  18.612  0.00  0.00    +0.000 A 
ATOM     35  C   UNL     1       2.553   3.971  17.928  0.00  0.00    +0.000 A 
ENDBRANCH  26  29
ENDBRANCH  24  26
ENDBRANCH  23  24
ENDBRANCH   2  23
TORSDOF 9
ENDMDL
MODEL 9
REMARK VINA RESULT:      -7.3      2.629      3.113
REMARK  Name = 
REMARK  11 active torsions:
REMARK  status: ('A' for Active; 'I' for Inactive)
REMARK    1  A    between atoms: C_1  and  C_2
REMARK    2  A    between atoms: C_5  and  C_6
REMARK    3  A    between atoms: C_7  and  N_8
REMARK    4  A    between atoms: N_8  and  C_9
REMARK    5  A    between atoms: C_9  and  C_10
REMARK    6  A    between atoms: N_12  and  C_13
REMARK    7  A    between atoms: C_13  and  C_14
REMARK    8  A    between atoms: C_19  and  C_21
REMARK    9  A    between atoms: C_21  and  N_22
REMARK   10  A    between atoms: N_22  and  S_23
REMARK   11  A    between atoms: S_23  and  C_26
REMARK                            x       y       z     vdW  Elec       q    Type
REMARK                         _______ _______ _______ _____ _____    ______ ____
ROOT
ATOM      1  N   UNL     1       1.082   9.321  19.361  0.00  0.00    +0.000 N 
ATOM      2  C   UNL     1       1.844   8.621  18.383  0.00  0.00    +0.000 C 
ATOM      3  O   UNL     1       2.029   9.051  17.241  0.00  0.00    +0.000 OA
ENDROOT
BRANCH   1  10
ATOM      4  C   UNL     1       2.211  14.236  19.305  0.00  0.00    +0.000 C 
ATOM      5  C   UNL     1       1.250  13.110  19.051  0.00  0.00    +0.000 A 
ATOM      6  C   UNL     1      -0.008  13.394  18.529  0.00  0.00    +0.000 A 
ATOM      7  C   UNL     1      -0.915  12.363  18.286  0.00  0.00    +0.000 A 
ATOM      8  C   UNL     1      -0.589  11.017  18.561  0.00  0.00    +0.000 A 
ATOM      9  C   UNL     1      -1.669  10.001  18.323  0.00  0.00    +0.000 C 
ATOM     10  C   UNL     1       0.690  10.697  19.064  0.00  0.00    +0.000 A 
ATOM     11  C   UNL     1       1.589  11.767  19.314  0.00  0.00    +0.000 A 
ENDBRANCH   1  10
BRANCH   1  12
ATOM     12  C   UNL     1       1.232   8.989  20.791  0.00  0.00    +0.000 C 
BRANCH  12  13
ATOM     13  C   UNL     1       0.039   9.228  21.738  0.00  0.00    +0.000 C 
ATOM     14  O   UNL     1      -0.798   8.338  21.902  0.00  0.00    +0.000 OA
ATOM     15  N   UNL     1      -0.083  10.452  22.363  0.00  0.00    +0.000 N 
ATOM     16  H   UNL     1       0.743  11.020  22.521  0.00  0.00    +0.000 HD
BRANCH  15  17
ATOM     17  C   UNL     1      -1.231  10.665  23.226  0.00  0.00    +0.000 C 
BRANCH  17  18
ATOM     18  C   UNL     1      -2.074  11.820  22.819  0.00  0.00    +0.000 A 
ATOM     19  C   UNL     1      -3.182  12.400  23.411  0.00  0.00    +0.000 A 
ATOM     20  C   UNL     1      -3.503  13.543  22.643  0.00  0.00    +0.000 A 
ATOM     21  C   UNL     1      -2.578  13.586  21.626  0.00  0.00    +0.000 A 
ATOM     22  O   UNL     1      -1.707  12.544  21.721  0.00  0.00    +0.000 OA
ENDBRANCH  17  18
ENDBRANCH  15  17
ENDBRANCH  12  13
ENDBRANCH   1  12
BRANCH   2  23
ATOM     23  C   UNL     1       2.456   7.256  18.789  0.00  0.00    +0.000 C 
BRANCH  23  24
ATOM     24  N   UNL     1       3.698   6.910  18.073  0.00  0.00    +0.000 NA
ATOM     25  H   UNL     1       4.429   7.624  18.047  0.00  0.00    +0.000 HD
BRANCH  24  26
ATOM     26  S   UNL     1       4.311   5.356  18.280  0.00  0.00    +0.000 S 
ATOM     27  O   UNL     1       5.224   5.416  19.398  0.00  0.00    +0.000 OA
ATOM     28  O   UNL     1       3.197   4.432  18.259  0.00  0.00    +0.000 OA
BRANCH  26  29
ATOM     29  C   UNL     1       5.291   5.082  16.821  0.00  0.00    +0.000 A 
ATOM     30  C   UNL     1       4.714   4.442  15.717  0.00  0.00    +0.000 A 
ATOM     31  C   UNL     1       5.461   4.284  14.547  0.00  0.00    +0.000 A 
ATOM     32  C   UNL     1       6.764   4.770  14.488  0.00  0.00    +0.000 A 
ATOM     33  F   UNL     1       7.474   4.623  13.362  0.00  0.00    +0.000 F 
ATOM     34  C   UNL     1       7.337   5.420  15.577  0.00  0.00    +0.000 A 
ATOM     35  C   UNL     1       6.599   5.582  16.752  0.00  0.00    +0.000 A 
ENDBRANCH  26  29
ENDBRANCH  24  26
ENDBRANCH  23  24
ENDBRANCH   2  23
TORSDOF 9
ENDMDL
