MODEL 1
REMARK VINA RESULT:      -7.2      0.000      0.000
REMARK  Name = 
REMARK  8 active torsions:
REMARK  status: ('A' for Active; 'I' for Inactive)
REMARK    1  A    between atoms: C_1  and  O_2
REMARK    2  A    between atoms: O_2  and  C_3
REMARK    3  A    between atoms: C_9  and  O_10
REMARK    4  A    between atoms: C_11  and  C_12
REMARK    5  A    between atoms: C_15  and  O_16
REMARK    6  A    between atoms: C_17  and  O_18
REMARK    7  A    between atoms: C_22  and  O_23
REMARK    8  A    between atoms: O_23  and  C_24
REMARK                            x       y       z     vdW  Elec       q    Type
REMARK                         _______ _______ _______ _____ _____    ______ ____
ROOT
ATOM      1  C   UNL     1       6.531   4.991  15.655  0.00  0.00    +0.000 A 
ATOM      2  C   UNL     1       6.050   3.678  15.605  0.00  0.00    +0.000 A 
ATOM      3  C   UNL     1       4.874   3.337  16.265  0.00  0.00    +0.000 A 
ATOM      4  C   UNL     1       4.173   4.312  16.976  0.00  0.00    +0.000 A 
ATOM      5  C   UNL     1       2.945   3.938  17.694  0.00  0.00    +0.000 A 
ATOM      6  O   UNL     1       2.491   2.798  17.699  0.00  0.00    +0.000 OA
ATOM      7  C   UNL     1       2.250   5.007  18.441  0.00  0.00    +0.000 A 
ATOM      8  C   UNL     1       2.771   6.241  18.402  0.00  0.00    +0.000 A 
ATOM      9  O   UNL     1       3.921   6.589  17.722  0.00  0.00    +0.000 OA
ATOM     10  C   UNL     1       4.624   5.635  17.028  0.00  0.00    +0.000 A 
ATOM     11  C   UNL     1       5.811   5.989  16.362  0.00  0.00    +0.000 A 
ENDROOT
BRANCH   8  12
ATOM     12  C   UNL     1       2.143   7.375  19.089  0.00  0.00    +0.000 A 
ATOM     13  C   UNL     1       1.894   7.319  20.470  0.00  0.00    +0.000 A 
ATOM     14  C   UNL     1       1.298   8.399  21.130  0.00  0.00    +0.000 A 
ATOM     15  C   UNL     1       0.959   9.532  20.401  0.00  0.00    +0.000 A 
ATOM     16  C   UNL     1       1.214   9.593  19.033  0.00  0.00    +0.000 A 
ATOM     17  C   UNL     1       1.803   8.526  18.369  0.00  0.00    +0.000 A 
BRANCH  15  18
ATOM     18  O   UNL     1       0.369  10.618  20.986  0.00  0.00    +0.000 OA
ATOM     19  H   UNL     1       0.870  11.411  20.727  0.00  0.00    +0.000 HD
ENDBRANCH  15  18
BRANCH  16  20
ATOM     20  O   UNL     1       0.881  10.715  18.327  0.00  0.00    +0.000 OA
ATOM     21  H   UNL     1       0.771  11.408  19.008  0.00  0.00    +0.000 HD
ENDBRANCH  16  20
ENDBRANCH   8  12
BRANCH   1  23
ATOM     22  C   UNL     1       7.775   5.270  13.630  0.00  0.00    +0.000 C 
ATOM     23  O   UNL     1       7.690   5.402  15.042  0.00  0.00    +0.000 OA
ENDBRANCH   1  23
BRANCH   7  24
ATOM     24  O   UNL     1       1.103   4.668  19.133  0.00  0.00    +0.000 OA
ATOM     25  H   UNL     1       1.391   4.570  20.065  0.00  0.00    +0.000 HD
ENDBRANCH   7  24
BRANCH  11  26
ATOM     26  O   UNL     1       6.393   7.234  16.316  0.00  0.00    +0.000 OA
ATOM     27  C   UNL     1       7.225   7.674  17.377  0.00  0.00    +0.000 C 
ENDBRANCH  11  26
TORSDOF 6
ENDMDL
MODEL 2
REMARK VINA RESULT:      -7.0      0.573      1.365
REMARK  Name = 
REMARK  8 active torsions:
REMARK  status: ('A' for Active; 'I' for Inactive)
REMARK    1  A    between atoms: C_1  and  O_2
REMARK    2  A    between atoms: O_2  and  C_3
REMARK    3  A    between atoms: C_9  and  O_10
REMARK    4  A    between atoms: C_11  and  C_12
REMARK    5  A    between atoms: C_15  and  O_16
REMARK    6  A    between atoms: C_17  and  O_18
REMARK    7  A    between atoms: C_22  and  O_23
REMARK    8  A    between atoms: O_23  and  C_24
REMARK                            x       y       z     vdW  Elec       q    Type
REMARK                         _______ _______ _______ _____ _____    ______ ____
ROOT
ATOM      1  C   UNL     1       6.605   4.938  15.546  0.00  0.00    +0.000 A 
ATOM      2  C   UNL     1       6.104   3.633  15.493  0.00  0.00    +0.000 A 
ATOM      3  C   UNL     1       4.910   3.314  16.134  0.00  0.00    +0.000 A 
ATOM      4  C   UNL     1       4.214   4.304  16.829  0.00  0.00    +0.000 A 
ATOM      5  C   UNL     1       2.968   3.954  17.527  0.00  0.00    +0.000 A 
ATOM      6  O   UNL     1       2.495   2.821  17.528  0.00  0.00    +0.000 OA
ATOM      7  C   UNL     1       2.278   5.037  18.258  0.00  0.00    +0.000 A 
ATOM      8  C   UNL     1       2.820   6.262  18.223  0.00  0.00    +0.000 A 
ATOM      9  O   UNL     1       3.988   6.588  17.562  0.00  0.00    +0.000 OA
ATOM     10  C   UNL     1       4.686   5.620  16.883  0.00  0.00    +0.000 A 
ATOM     11  C   UNL     1       5.890   5.951  16.237  0.00  0.00    +0.000 A 
ENDROOT
BRANCH   8  12
ATOM     12  C   UNL     1       2.200   7.409  18.895  0.00  0.00    +0.000 A 
ATOM     13  C   UNL     1       1.724   8.498  18.147  0.00  0.00    +0.000 A 
ATOM     14  C   UNL     1       1.129   9.593  18.783  0.00  0.00    +0.000 A 
ATOM     15  C   UNL     1       1.011   9.587  20.167  0.00  0.00    +0.000 A 
ATOM     16  C   UNL     1       1.474   8.503  20.910  0.00  0.00    +0.000 A 
ATOM     17  C   UNL     1       2.067   7.413  20.289  0.00  0.00    +0.000 A 
BRANCH  15  18
ATOM     18  O   UNL     1       0.445  10.628  20.849  0.00  0.00    +0.000 OA
ATOM     19  H   UNL     1       1.148  11.262  21.072  0.00  0.00    +0.000 HD
ENDBRANCH  15  18
BRANCH  16  20
ATOM     20  O   UNL     1       1.348   8.506  22.271  0.00  0.00    +0.000 OA
ATOM     21  H   UNL     1       2.189   8.127  22.594  0.00  0.00    +0.000 HD
ENDBRANCH  16  20
ENDBRANCH   8  12
BRANCH   1  23
ATOM     22  C   UNL     1       7.859   5.264  13.534  0.00  0.00    +0.000 C 
ATOM     23  O   UNL     1       7.782   5.327  14.952  0.00  0.00    +0.000 OA
ENDBRANCH   1  23
BRANCH   7  24
ATOM     24  O   UNL     1       1.114   4.720  18.932  0.00  0.00    +0.000 OA
ATOM     25  H   UNL     1       0.917   5.508  19.479  0.00  0.00    +0.000 HD
ENDBRANCH   7  24
BRANCH  11  26
ATOM     26  O   UNL     1       6.494   7.186  16.197  0.00  0.00    +0.000 OA
ATOM     27  C   UNL     1       7.190   7.678  17.330  0.00  0.00    +0.000 C 
ENDBRANCH  11  26
TORSDOF 6
ENDMDL
MODEL 3
REMARK VINA RESULT:      -6.9      2.399      4.520
REMARK  Name = 
REMARK  8 active torsions:
REMARK  status: ('A' for Active; 'I' for Inactive)
REMARK    1  A    between atoms: C_1  and  O_2
REMARK    2  A    between atoms: O_2  and  C_3
REMARK    3  A    between atoms: C_9  and  O_10
REMARK    4  A    between atoms: C_11  and  C_12
REMARK    5  A    between atoms: C_15  and  O_16
REMARK    6  A    between atoms: C_17  and  O_18
REMARK    7  A    between atoms: C_22  and  O_23
REMARK    8  A    between atoms: O_23  and  C_24
REMARK                            x       y       z     vdW  Elec       q    Type
REMARK                         _______ _______ _______ _____ _____    ______ ____
ROOT
ATOM      1  C   UNL     1       3.779   3.741  19.057  0.00  0.00    +0.000 A 
ATOM      2  C   UNL     1       4.355   4.159  17.852  0.00  0.00    +0.000 A 
ATOM      3  C   UNL     1       4.152   5.456  17.392  0.00  0.00    +0.000 A 
ATOM      4  C   UNL     1       3.373   6.340  18.139  0.00  0.00    +0.000 A 
ATOM      5  C   UNL     1       3.141   7.701  17.634  0.00  0.00    +0.000 A 
ATOM      6  O   UNL     1       3.606   8.113  16.575  0.00  0.00    +0.000 OA
ATOM      7  C   UNL     1       2.298   8.591  18.458  0.00  0.00    +0.000 A 
ATOM      8  C   UNL     1       1.818   8.109  19.613  0.00  0.00    +0.000 A 
ATOM      9  O   UNL     1       2.044   6.832  20.087  0.00  0.00    +0.000 OA
ATOM     10  C   UNL     1       2.800   5.952  19.355  0.00  0.00    +0.000 A 
ATOM     11  C   UNL     1       3.001   4.643  19.828  0.00  0.00    +0.000 A 
ENDROOT
BRANCH   8  12
ATOM     12  C   UNL     1       0.993   8.921  20.514  0.00  0.00    +0.000 A 
ATOM     13  C   UNL     1       0.018   9.788  19.996  0.00  0.00    +0.000 A 
ATOM     14  C   UNL     1      -0.774  10.562  20.852  0.00  0.00    +0.000 A 
ATOM     15  C   UNL     1      -0.585  10.457  22.224  0.00  0.00    +0.000 A 
ATOM     16  C   UNL     1       0.375   9.591  22.740  0.00  0.00    +0.000 A 
ATOM     17  C   UNL     1       1.166   8.820  21.900  0.00  0.00    +0.000 A 
BRANCH  15  18
ATOM     18  O   UNL     1      -1.322  11.190  23.113  0.00  0.00    +0.000 OA
ATOM     19  H   UNL     1      -0.741  11.865  23.504  0.00  0.00    +0.000 HD
ENDBRANCH  15  18
BRANCH  16  20
ATOM     20  O   UNL     1       0.549   9.492  24.092  0.00  0.00    +0.000 OA
ATOM     21  H   UNL     1      -0.113  10.106  24.468  0.00  0.00    +0.000 HD
ENDBRANCH  16  20
ENDBRANCH   8  12
BRANCH   1  23
ATOM     22  C   UNL     1       3.608   1.377  18.721  0.00  0.00    +0.000 C 
ATOM     23  O   UNL     1       3.922   2.473  19.570  0.00  0.00    +0.000 OA
ENDBRANCH   1  23
BRANCH   7  24
ATOM     24  O   UNL     1       2.058   9.868  17.988  0.00  0.00    +0.000 OA
ATOM     25  H   UNL     1       2.703   9.996  17.261  0.00  0.00    +0.000 HD
ENDBRANCH   7  24
BRANCH  11  26
ATOM     26  O   UNL     1       2.509   4.100  20.992  0.00  0.00    +0.000 OA
ATOM     27  C   UNL     1       1.259   3.429  20.994  0.00  0.00    +0.000 C 
ENDBRANCH  11  26
TORSDOF 6
ENDMDL
MODEL 4
REMARK VINA RESULT:      -6.7      2.429      4.355
REMARK  Name = 
REMARK  8 active torsions:
REMARK  status: ('A' for Active; 'I' for Inactive)
REMARK    1  A    between atoms: C_1  and  O_2
REMARK    2  A    between atoms: O_2  and  C_3
REMARK    3  A    between atoms: C_9  and  O_10
REMARK    4  A    between atoms: C_11  and  C_12
REMARK    5  A    between atoms: C_15  and  O_16
REMARK    6  A    between atoms: C_17  and  O_18
REMARK    7  A    between atoms: C_22  and  O_23
REMARK    8  A    between atoms: O_23  and  C_24
REMARK                            x       y       z     vdW  Elec       q    Type
REMARK                         _______ _______ _______ _____ _____    ______ ____
ROOT
ATOM      1  C   UNL     1       3.681   3.752  19.037  0.00  0.00    +0.000 A 
ATOM      2  C   UNL     1       4.188   4.181  17.806  0.00  0.00    +0.000 A 
ATOM      3  C   UNL     1       3.962   5.483  17.370  0.00  0.00    +0.000 A 
ATOM      4  C   UNL     1       3.229   6.361  18.170  0.00  0.00    +0.000 A 
ATOM      5  C   UNL     1       2.972   7.728  17.692  0.00  0.00    +0.000 A 
ATOM      6  O   UNL     1       3.376   8.148  16.612  0.00  0.00    +0.000 OA
ATOM      7  C   UNL     1       2.180   8.611  18.572  0.00  0.00    +0.000 A 
ATOM      8  C   UNL     1       1.767   8.119  19.748  0.00  0.00    +0.000 A 
ATOM      9  O   UNL     1       2.016   6.837  20.196  0.00  0.00    +0.000 OA
ATOM     10  C   UNL     1       2.727   5.962  19.413  0.00  0.00    +0.000 A 
ATOM     11  C   UNL     1       2.951   4.648  19.861  0.00  0.00    +0.000 A 
ENDROOT
BRANCH   8  12
ATOM     12  C   UNL     1       0.997   8.923  20.703  0.00  0.00    +0.000 A 
ATOM     13  C   UNL     1       1.154   8.727  22.085  0.00  0.00    +0.000 A 
ATOM     14  C   UNL     1       0.424   9.494  23.000  0.00  0.00    +0.000 A 
ATOM     15  C   UNL     1      -0.457  10.457  22.523  0.00  0.00    +0.000 A 
ATOM     16  C   UNL     1      -0.606  10.659  21.154  0.00  0.00    +0.000 A 
ATOM     17  C   UNL     1       0.112   9.903  20.238  0.00  0.00    +0.000 A 
BRANCH  15  18
ATOM     18  O   UNL     1      -1.203  11.234  23.365  0.00  0.00    +0.000 OA
ATOM     19  H   UNL     1      -1.170  12.150  23.040  0.00  0.00    +0.000 HD
ENDBRANCH  15  18
BRANCH  16  20
ATOM     20  O   UNL     1      -1.472  11.613  20.695  0.00  0.00    +0.000 OA
ATOM     21  H   UNL     1      -2.320  11.403  21.134  0.00  0.00    +0.000 HD
ENDBRANCH  16  20
ENDBRANCH   8  12
BRANCH   1  23
ATOM     22  C   UNL     1       3.607   1.392  18.647  0.00  0.00    +0.000 C 
ATOM     23  O   UNL     1       3.850   2.479  19.529  0.00  0.00    +0.000 OA
ENDBRANCH   1  23
BRANCH   7  24
ATOM     24  O   UNL     1       1.916   9.893  18.129  0.00  0.00    +0.000 OA
ATOM     25  H   UNL     1       2.219  10.479  18.855  0.00  0.00    +0.000 HD
ENDBRANCH   7  24
BRANCH  11  26
ATOM     26  O   UNL     1       2.525   4.094  21.046  0.00  0.00    +0.000 OA
ATOM     27  C   UNL     1       1.274   3.430  21.115  0.00  0.00    +0.000 C 
ENDBRANCH  11  26
TORSDOF 6
ENDMDL
MODEL 5
REMARK VINA RESULT:      -6.6      1.733      6.759
REMARK  Name = 
REMARK  8 active torsions:
REMARK  status: ('A' for Active; 'I' for Inactive)
REMARK    1  A    between atoms: C_1  and  O_2
REMARK    2  A    between atoms: O_2  and  C_3
REMARK    3  A    between atoms: C_9  and  O_10
REMARK    4  A    between atoms: C_11  and  C_12
REMARK    5  A    between atoms: C_15  and  O_16
REMARK    6  A    between atoms: C_17  and  O_18
REMARK    7  A    between atoms: C_22  and  O_23
REMARK    8  A    between atoms: O_23  and  C_24
REMARK                            x       y       z     vdW  Elec       q    Type
REMARK                         _______ _______ _______ _____ _____    ______ ____
ROOT
ATOM      1  C   UNL     1       1.689   7.223  20.241  0.00  0.00    +0.000 A 
ATOM      2  C   UNL     1       1.330   6.078  20.960  0.00  0.00    +0.000 A 
ATOM      3  C   UNL     1       1.803   4.829  20.570  0.00  0.00    +0.000 A 
ATOM      4  C   UNL     1       2.642   4.724  19.460  0.00  0.00    +0.000 A 
ATOM      5  C   UNL     1       3.117   3.398  19.038  0.00  0.00    +0.000 A 
ATOM      6  O   UNL     1       2.816   2.360  19.621  0.00  0.00    +0.000 OA
ATOM      7  C   UNL     1       3.991   3.343  17.848  0.00  0.00    +0.000 A 
ATOM      8  C   UNL     1       4.305   4.498  17.246  0.00  0.00    +0.000 A 
ATOM      9  O   UNL     1       3.862   5.742  17.649  0.00  0.00    +0.000 OA
ATOM     10  C   UNL     1       3.029   5.856  18.734  0.00  0.00    +0.000 A 
ATOM     11  C   UNL     1       2.556   7.122  19.122  0.00  0.00    +0.000 A 
ENDROOT
BRANCH   8  12
ATOM     12  C   UNL     1       5.186   4.552  16.074  0.00  0.00    +0.000 A 
ATOM     13  C   UNL     1       6.479   5.090  16.182  0.00  0.00    +0.000 A 
ATOM     14  C   UNL     1       7.323   5.141  15.067  0.00  0.00    +0.000 A 
ATOM     15  C   UNL     1       6.867   4.649  13.851  0.00  0.00    +0.000 A 
ATOM     16  C   UNL     1       5.588   4.107  13.745  0.00  0.00    +0.000 A 
ATOM     17  C   UNL     1       4.742   4.053  14.844  0.00  0.00    +0.000 A 
BRANCH  15  18
ATOM     18  O   UNL     1       7.640   4.676  12.724  0.00  0.00    +0.000 OA
ATOM     19  H   UNL     1       8.516   4.316  12.949  0.00  0.00    +0.000 HD
ENDBRANCH  15  18
BRANCH  16  20
ATOM     20  O   UNL     1       5.151   3.621  12.544  0.00  0.00    +0.000 OA
ATOM     21  H   UNL     1       5.456   4.280  11.889  0.00  0.00    +0.000 HD
ENDBRANCH  16  20
ENDBRANCH   8  12
BRANCH   1  23
ATOM     22  C   UNL     1       1.293   8.883  21.919  0.00  0.00    +0.000 C 
ATOM     23  O   UNL     1       1.252   8.489  20.555  0.00  0.00    +0.000 OA
ENDBRANCH   1  23
BRANCH   7  24
ATOM     24  O   UNL     1       4.432   2.102  17.430  0.00  0.00    +0.000 OA
ATOM     25  H   UNL     1       4.359   1.528  18.221  0.00  0.00    +0.000 HD
ENDBRANCH   7  24
BRANCH  11  26
ATOM     26  O   UNL     1       2.833   8.327  18.520  0.00  0.00    +0.000 OA
ATOM     27  C   UNL     1       1.939   8.869  17.562  0.00  0.00    +0.000 C 
ENDBRANCH  11  26
TORSDOF 6
ENDMDL
MODEL 6
REMARK VINA RESULT:      -6.6      6.762      9.532
REMARK  Name = 
REMARK  8 active torsions:
REMARK  status: ('A' for Active; 'I' for Inactive)
REMARK    1  A    between atoms: C_1  and  O_2
REMARK    2  A    between atoms: O_2  and  C_3
REMARK    3  A    between atoms: C_9  and  O_10
REMARK    4  A    between atoms: C_11  and  C_12
REMARK    5  A    between atoms: C_15  and  O_16
REMARK    6  A    between atoms: C_17  and  O_18
REMARK    7  A    between atoms: C_22  and  O_23
REMARK    8  A    between atoms: O_23  and  C_24
REMARK                            x       y       z     vdW  Elec       q    Type
REMARK                         _______ _______ _______ _____ _____    ______ ____
ROOT
ATOM      1  C   UNL     1      -3.164  10.644  16.632  0.00  0.00    +0.000 A 
ATOM      2  C   UNL     1      -1.960   9.932  16.589  0.00  0.00    +0.000 A 
ATOM      3  C   UNL     1      -1.081   9.977  17.667  0.00  0.00    +0.000 A 
ATOM      4  C   UNL     1      -1.407  10.734  18.793  0.00  0.00    +0.000 A 
ATOM      5  C   UNL     1      -0.462  10.798  19.918  0.00  0.00    +0.000 A 
ATOM      6  O   UNL     1       0.615  10.208  19.924  0.00  0.00    +0.000 OA
ATOM      7  C   UNL     1      -0.851  11.624  21.079  0.00  0.00    +0.000 A 
ATOM      8  C   UNL     1      -2.039  12.242  21.039  0.00  0.00    +0.000 A 
ATOM      9  O   UNL     1      -2.927  12.175  19.984  0.00  0.00    +0.000 OA
ATOM     10  C   UNL     1      -2.612  11.441  18.867  0.00  0.00    +0.000 A 
ATOM     11  C   UNL     1      -3.506  11.400  17.783  0.00  0.00    +0.000 A 
ENDROOT
BRANCH   8  12
ATOM     12  C   UNL     1      -2.528  13.064  22.151  0.00  0.00    +0.000 A 
ATOM     13  C   UNL     1      -2.283  14.447  22.173  0.00  0.00    +0.000 A 
ATOM     14  C   UNL     1      -2.751  15.236  23.230  0.00  0.00    +0.000 A 
ATOM     15  C   UNL     1      -3.465  14.633  24.258  0.00  0.00    +0.000 A 
ATOM     16  C   UNL     1      -3.717  13.264  24.233  0.00  0.00    +0.000 A 
ATOM     17  C   UNL     1      -3.257  12.472  23.190  0.00  0.00    +0.000 A 
BRANCH  15  18
ATOM     18  O   UNL     1      -3.944  15.347  25.321  0.00  0.00    +0.000 OA
ATOM     19  H   UNL     1      -4.820  14.996  25.553  0.00  0.00    +0.000 HD
ENDBRANCH  15  18
BRANCH  16  20
ATOM     20  O   UNL     1      -4.426  12.682  25.247  0.00  0.00    +0.000 OA
ATOM     21  H   UNL     1      -5.103  13.347  25.484  0.00  0.00    +0.000 HD
ENDBRANCH  16  20
ENDBRANCH   8  12
BRANCH   1  23
ATOM     22  C   UNL     1      -3.671  10.125  14.351  0.00  0.00    +0.000 C 
ATOM     23  O   UNL     1      -4.075  10.661  15.603  0.00  0.00    +0.000 OA
ENDBRANCH   1  23
BRANCH   7  24
ATOM     24  O   UNL     1       0.034  11.707  22.137  0.00  0.00    +0.000 OA
ATOM     25  H   UNL     1      -0.225  12.519  22.620  0.00  0.00    +0.000 HD
ENDBRANCH   7  24
BRANCH  11  26
ATOM     26  O   UNL     1      -4.721  12.037  17.690  0.00  0.00    +0.000 OA
ATOM     27  C   UNL     1      -5.866  11.489  18.323  0.00  0.00    +0.000 C 
ENDBRANCH  11  26
TORSDOF 6
ENDMDL
MODEL 7
REMARK VINA RESULT:      -6.4      1.436      6.827
REMARK  Name = 
REMARK  8 active torsions:
REMARK  status: ('A' for Active; 'I' for Inactive)
REMARK    1  A    between atoms: C_1  and  O_2
REMARK    2  A    between atoms: O_2  and  C_3
REMARK    3  A    between atoms: C_9  and  O_10
REMARK    4  A    between atoms: C_11  and  C_12
REMARK    5  A    between atoms: C_15  and  O_16
REMARK    6  A    between atoms: C_17  and  O_18
REMARK    7  A    between atoms: C_22  and  O_23
REMARK    8  A    between atoms: O_23  and  C_24
REMARK                            x       y       z     vdW  Elec       q    Type
REMARK                         _______ _______ _______ _____ _____    ______ ____
ROOT
ATOM      1  C   UNL     1       0.435   9.727  19.743  0.00  0.00    +0.000 A 
ATOM      2  C   UNL     1       0.061   8.956  20.849  0.00  0.00    +0.000 A 
ATOM      3  C   UNL     1       0.668   7.726  21.084  0.00  0.00    +0.000 A 
ATOM      4  C   UNL     1       1.656   7.266  20.213  0.00  0.00    +0.000 A 
ATOM      5  C   UNL     1       2.275   5.954  20.453  0.00  0.00    +0.000 A 
ATOM      6  O   UNL     1       1.969   5.230  21.396  0.00  0.00    +0.000 OA
ATOM      7  C   UNL     1       3.305   5.509  19.492  0.00  0.00    +0.000 A 
ATOM      8  C   UNL     1       3.619   6.333  18.482  0.00  0.00    +0.000 A 
ATOM      9  O   UNL     1       3.040   7.567  18.264  0.00  0.00    +0.000 OA
ATOM     10  C   UNL     1       2.060   8.025  19.109  0.00  0.00    +0.000 A 
ATOM     11  C   UNL     1       1.452   9.269  18.864  0.00  0.00    +0.000 A 
ENDROOT
BRANCH   8  12
ATOM     12  C   UNL     1       4.645   5.995  17.490  0.00  0.00    +0.000 A 
ATOM     13  C   UNL     1       4.420   4.972  16.555  0.00  0.00    +0.000 A 
ATOM     14  C   UNL     1       5.396   4.649  15.605  0.00  0.00    +0.000 A 
ATOM     15  C   UNL     1       6.591   5.357  15.596  0.00  0.00    +0.000 A 
ATOM     16  C   UNL     1       6.812   6.378  16.517  0.00  0.00    +0.000 A 
ATOM     17  C   UNL     1       5.852   6.706  17.464  0.00  0.00    +0.000 A 
BRANCH  15  18
ATOM     18  O   UNL     1       7.585   5.086  14.698  0.00  0.00    +0.000 OA
ATOM     19  H   UNL     1       8.133   4.368  15.061  0.00  0.00    +0.000 HD
ENDBRANCH  15  18
BRANCH  16  20
ATOM     20  O   UNL     1       7.989   7.072  16.496  0.00  0.00    +0.000 OA
ATOM     21  H   UNL     1       7.870   7.733  15.786  0.00  0.00    +0.000 HD
ENDBRANCH  16  20
ENDBRANCH   8  12
BRANCH   1  23
ATOM     22  C   UNL     1      -0.554  11.765  20.513  0.00  0.00    +0.000 C 
ATOM     23  O   UNL     1      -0.127  10.943  19.436  0.00  0.00    +0.000 OA
ENDBRANCH   1  23
BRANCH   7  24
ATOM     24  O   UNL     1       3.884   4.271  19.695  0.00  0.00    +0.000 OA
ATOM     25  H   UNL     1       3.161   3.708  20.044  0.00  0.00    +0.000 HD
ENDBRANCH   7  24
BRANCH  11  26
ATOM     26  O   UNL     1       1.725  10.133  17.830  0.00  0.00    +0.000 OA
ATOM     27  C   UNL     1       2.542  11.272  18.046  0.00  0.00    +0.000 C 
ENDBRANCH  11  26
TORSDOF 6
ENDMDL
MODEL 8
REMARK VINA RESULT:      -6.4      2.410      7.263
REMARK  Name = 
REMARK  8 active torsions:
REMARK  status: ('A' for Active; 'I' for Inactive)
REMARK    1  A    between atoms: C_1  and  O_2
REMARK    2  A    between atoms: O_2  and  C_3
REMARK    3  A    between atoms: C_9  and  O_10
REMARK    4  A    between atoms: C_11  and  C_12
REMARK    5  A    between atoms: C_15  and  O_16
REMARK    6  A    between atoms: C_17  and  O_18
REMARK    7  A    between atoms: C_22  and  O_23
REMARK    8  A    between atoms: O_23  and  C_24
REMARK                            x       y       z     vdW  Elec       q    Type
REMARK                         _______ _______ _______ _____ _____    ______ ____
ROOT
ATOM      1  C   UNL     1       2.966   3.812  20.442  0.00  0.00    +0.000 A 
ATOM      2  C   UNL     1       2.476   5.098  20.696  0.00  0.00    +0.000 A 
ATOM      3  C   UNL     1       2.696   6.124  19.783  0.00  0.00    +0.000 A 
ATOM      4  C   UNL     1       3.406   5.864  18.610  0.00  0.00    +0.000 A 
ATOM      5  C   UNL     1       3.658   6.960  17.662  0.00  0.00    +0.000 A 
ATOM      6  O   UNL     1       3.268   8.109  17.845  0.00  0.00    +0.000 OA
ATOM      7  C   UNL     1       4.425   6.633  16.443  0.00  0.00    +0.000 A 
ATOM      8  C   UNL     1       4.824   5.364  16.273  0.00  0.00    +0.000 A 
ATOM      9  O   UNL     1       4.580   4.337  17.163  0.00  0.00    +0.000 OA
ATOM     10  C   UNL     1       3.891   4.584  18.325  0.00  0.00    +0.000 A 
ATOM     11  C   UNL     1       3.673   3.540  19.242  0.00  0.00    +0.000 A 
ENDROOT
BRANCH   8  12
ATOM     12  C   UNL     1       5.569   4.932  15.086  0.00  0.00    +0.000 A 
ATOM     13  C   UNL     1       5.040   3.949  14.234  0.00  0.00    +0.000 A 
ATOM     14  C   UNL     1       5.746   3.536  13.099  0.00  0.00    +0.000 A 
ATOM     15  C   UNL     1       6.978   4.116  12.822  0.00  0.00    +0.000 A 
ATOM     16  C   UNL     1       7.499   5.098  13.660  0.00  0.00    +0.000 A 
ATOM     17  C   UNL     1       6.808   5.513  14.790  0.00  0.00    +0.000 A 
BRANCH  15  18
ATOM     18  O   UNL     1       7.719   3.752  11.732  0.00  0.00    +0.000 OA
ATOM     19  H   UNL     1       7.919   2.803  11.805  0.00  0.00    +0.000 HD
ENDBRANCH  15  18
BRANCH  16  20
ATOM     20  O   UNL     1       8.710   5.665  13.375  0.00  0.00    +0.000 OA
ATOM     21  H   UNL     1       8.559   6.626  13.477  0.00  0.00    +0.000 HD
ENDBRANCH  16  20
ENDBRANCH   8  12
BRANCH   1  23
ATOM     22  C   UNL     1       1.492   2.488  21.785  0.00  0.00    +0.000 C 
ATOM     23  O   UNL     1       2.802   2.751  21.301  0.00  0.00    +0.000 OA
ENDBRANCH   1  23
BRANCH   7  24
ATOM     24  O   UNL     1       4.684   7.655  15.550  0.00  0.00    +0.000 OA
ATOM     25  H   UNL     1       3.875   8.209  15.559  0.00  0.00    +0.000 HD
ENDBRANCH   7  24
BRANCH  11  26
ATOM     26  O   UNL     1       4.084   2.234  19.121  0.00  0.00    +0.000 OA
ATOM     27  C   UNL     1       3.412   1.352  18.235  0.00  0.00    +0.000 C 
ENDBRANCH  11  26
TORSDOF 6
ENDMDL
MODEL 9
REMARK VINA RESULT:      -6.4      1.719      6.865
REMARK  Name = 
REMARK  8 active torsions:
REMARK  status: ('A' for Active; 'I' for Inactive)
REMARK    1  A    between atoms: C_1  and  O_2
REMARK    2  A    between atoms: O_2  and  C_3
REMARK    3  A    between atoms: C_9  and  O_10
REMARK    4  A    between atoms: C_11  and  C_12
REMARK    5  A    between atoms: C_15  and  O_16
REMARK    6  A    between atoms: C_17  and  O_18
REMARK    7  A    between atoms: C_22  and  O_23
REMARK    8  A    between atoms: O_23  and  C_24
REMARK                            x       y       z     vdW  Elec       q    Type
REMARK                         _______ _______ _______ _____ _____    ______ ____
ROOT
ATOM      1  C   UNL     1       0.654   9.526  19.636  0.00  0.00    +0.000 A 
ATOM      2  C   UNL     1       0.291   8.778  20.761  0.00  0.00    +0.000 A 
ATOM      3  C   UNL     1       0.905   7.556  21.018  0.00  0.00    +0.000 A 
ATOM      4  C   UNL     1       1.887   7.080  20.148  0.00  0.00    +0.000 A 
ATOM      5  C   UNL     1       2.512   5.775  20.412  0.00  0.00    +0.000 A 
ATOM      6  O   UNL     1       2.217   5.071  21.373  0.00  0.00    +0.000 OA
ATOM      7  C   UNL     1       3.536   5.314  19.452  0.00  0.00    +0.000 A 
ATOM      8  C   UNL     1       3.839   6.116  18.422  0.00  0.00    +0.000 A 
ATOM      9  O   UNL     1       3.254   7.344  18.182  0.00  0.00    +0.000 OA
ATOM     10  C   UNL     1       2.279   7.816  19.026  0.00  0.00    +0.000 A 
ATOM     11  C   UNL     1       1.665   9.053  18.759  0.00  0.00    +0.000 A 
ENDROOT
BRANCH   8  12
ATOM     12  C   UNL     1       4.859   5.761  17.430  0.00  0.00    +0.000 A 
ATOM     13  C   UNL     1       4.679   6.093  16.077  0.00  0.00    +0.000 A 
ATOM     14  C   UNL     1       5.651   5.759  15.127  0.00  0.00    +0.000 A 
ATOM     15  C   UNL     1       6.800   5.096  15.541  0.00  0.00    +0.000 A 
ATOM     16  C   UNL     1       6.983   4.774  16.883  0.00  0.00    +0.000 A 
ATOM     17  C   UNL     1       6.025   5.100  17.833  0.00  0.00    +0.000 A 
BRANCH  15  18
ATOM     18  O   UNL     1       7.783   4.736  14.661  0.00  0.00    +0.000 OA
ATOM     19  H   UNL     1       8.559   5.299  14.828  0.00  0.00    +0.000 HD
ENDBRANCH  15  18
BRANCH  16  20
ATOM     20  O   UNL     1       8.120   4.126  17.280  0.00  0.00    +0.000 OA
ATOM     21  H   UNL     1       8.691   4.834  17.639  0.00  0.00    +0.000 HD
ENDBRANCH  16  20
ENDBRANCH   8  12
BRANCH   1  23
ATOM     22  C   UNL     1      -1.258  10.726  18.842  0.00  0.00    +0.000 C 
ATOM     23  O   UNL     1       0.085  10.733  19.307  0.00  0.00    +0.000 OA
ENDBRANCH   1  23
BRANCH   7  24
ATOM     24  O   UNL     1       4.121   4.082  19.677  0.00  0.00    +0.000 OA
ATOM     25  H   UNL     1       4.760   3.968  18.942  0.00  0.00    +0.000 HD
ENDBRANCH   7  24
BRANCH  11  26
ATOM     26  O   UNL     1       1.926   9.895  17.704  0.00  0.00    +0.000 OA
ATOM     27  C   UNL     1       2.562  11.143  17.926  0.00  0.00    +0.000 C 
ENDBRANCH  11  26
TORSDOF 6
ENDMDL
