MODEL 1
REMARK VINA RESULT:      -6.8      0.000      0.000
REMARK  Name = 
REMARK  4 active torsions:
REMARK  status: ('A' for Active; 'I' for Inactive)
REMARK    1  A    between atoms: C_1  and  O_2
REMARK    2  A    between atoms: O_2  and  C_3
REMARK    3  A    between atoms: C_8  and  C_9
REMARK    4  A    between atoms: C_18  and  N_19
REMARK                            x       y       z     vdW  Elec       q    Type
REMARK                         _______ _______ _______ _____ _____    ______ ____
ROOT
ATOM      1  C   UNL     1       0.798  11.551  18.842  0.00  0.00    +0.000 C 
ATOM      2  N   UNL     1       1.580  12.369  19.764  0.00  0.00    +0.000 N 
ATOM      3  C   UNL     1       1.096  13.440  20.430  0.00  0.00    +0.000 C 
ATOM      4  S   UNL     1       2.122  14.482  21.217  0.00  0.00    +0.000 S 
ATOM      5  N   UNL     1      -0.243  13.597  20.457  0.00  0.00    +0.000 N 
ATOM      6  C   UNL     1      -1.145  12.747  19.830  0.00  0.00    +0.000 A 
ATOM      7  N   UNL     1      -2.441  13.016  20.071  0.00  0.00    +0.000 NA
ATOM      8  C   UNL     1      -3.355  12.270  19.421  0.00  0.00    +0.000 A 
ATOM      9  C   UNL     1      -3.026  11.289  18.486  0.00  0.00    +0.000 A 
ATOM     10  C   UNL     1      -1.661  11.005  18.275  0.00  0.00    +0.000 A 
ATOM     11  C   UNL     1      -0.692  11.736  18.989  0.00  0.00    +0.000 A 
ATOM     12  C   UNL     1      -4.107  10.547  17.738  0.00  0.00    +0.000 C 
ATOM     13  C   UNL     1      -5.545  11.058  17.887  0.00  0.00    +0.000 C 
ATOM     14  C   UNL     1      -5.667  12.436  18.524  0.00  0.00    +0.000 C 
ATOM     15  C   UNL     1      -4.796  12.534  19.764  0.00  0.00    +0.000 C 
ATOM     16  H   UNL     1       2.585  12.254  19.765  0.00  0.00    +0.000 HD
ATOM     17  H   UNL     1      -0.643  14.358  20.988  0.00  0.00    +0.000 HD
ENDROOT
BRANCH   1  23
ATOM     18  C   UNL     1       1.164   9.304  20.136  0.00  0.00    +0.000 A 
ATOM     19  C   UNL     1       1.655   7.982  20.105  0.00  0.00    +0.000 A 
ATOM     20  C   UNL     1       2.270   7.451  18.974  0.00  0.00    +0.000 A 
ATOM     21  C   UNL     1       2.431   8.246  17.854  0.00  0.00    +0.000 A 
ATOM     22  C   UNL     1       1.944   9.553  17.862  0.00  0.00    +0.000 A 
ATOM     23  C   UNL     1       1.283  10.112  18.991  0.00  0.00    +0.000 A 
BRANCH  18  25
ATOM     24  C   UNL     1      -0.289   8.933  22.047  0.00  0.00    +0.000 C 
ATOM     25  O   UNL     1       0.757   9.633  21.399  0.00  0.00    +0.000 OA
ENDBRANCH  18  25
ENDBRANCH   1  23
BRANCH  10  26
ATOM     26  N   UNL     1      -1.303  10.192  17.176  0.00  0.00    +0.000 N 
ATOM     27  H   UNL     1      -1.522   9.207  17.290  0.00  0.00    +0.000 HD
ATOM     28  H   UNL     1      -0.356  10.287  16.827  0.00  0.00    +0.000 HD
ENDBRANCH  10  26
TORSDOF 3
ENDMDL
MODEL 2
REMARK VINA RESULT:      -6.6      8.535     10.372
REMARK  Name = 
REMARK  4 active torsions:
REMARK  status: ('A' for Active; 'I' for Inactive)
REMARK    1  A    between atoms: C_1  and  O_2
REMARK    2  A    between atoms: O_2  and  C_3
REMARK    3  A    between atoms: C_8  and  C_9
REMARK    4  A    between atoms: C_18  and  N_19
REMARK                            x       y       z     vdW  Elec       q    Type
REMARK                         _______ _______ _______ _____ _____    ______ ____
ROOT
ATOM      1  C   UNL     1      10.117  15.159  17.678  0.00  0.00    +0.000 C 
ATOM      2  N   UNL     1      11.105  16.186  17.990  0.00  0.00    +0.000 N 
ATOM      3  C   UNL     1      10.811  17.489  18.195  0.00  0.00    +0.000 C 
ATOM      4  S   UNL     1      12.017  18.630  18.247  0.00  0.00    +0.000 S 
ATOM      5  N   UNL     1       9.516  17.805  18.393  0.00  0.00    +0.000 N 
ATOM      6  C   UNL     1       8.472  16.888  18.375  0.00  0.00    +0.000 A 
ATOM      7  N   UNL     1       7.270  17.392  18.704  0.00  0.00    +0.000 NA
ATOM      8  C   UNL     1       6.212  16.560  18.624  0.00  0.00    +0.000 A 
ATOM      9  C   UNL     1       6.300  15.244  18.170  0.00  0.00    +0.000 A 
ATOM     10  C   UNL     1       7.577  14.732  17.862  0.00  0.00    +0.000 A 
ATOM     11  C   UNL     1       8.700  15.570  17.996  0.00  0.00    +0.000 A 
ATOM     12  C   UNL     1       5.059  14.395  18.032  0.00  0.00    +0.000 C 
ATOM     13  C   UNL     1       3.705  15.094  18.199  0.00  0.00    +0.000 C 
ATOM     14  C   UNL     1       3.768  16.615  18.179  0.00  0.00    +0.000 C 
ATOM     15  C   UNL     1       4.889  17.118  19.071  0.00  0.00    +0.000 C 
ATOM     16  H   UNL     1      12.083  15.959  17.860  0.00  0.00    +0.000 HD
ATOM     17  H   UNL     1       9.265  18.763  18.599  0.00  0.00    +0.000 HD
ENDROOT
BRANCH   1  23
ATOM     18  C   UNL     1      10.759  13.665  19.731  0.00  0.00    +0.000 A 
ATOM     19  C   UNL     1      11.177  12.400  20.195  0.00  0.00    +0.000 A 
ATOM     20  C   UNL     1      11.429  11.343  19.325  0.00  0.00    +0.000 A 
ATOM     21  C   UNL     1      11.293  11.539  17.962  0.00  0.00    +0.000 A 
ATOM     22  C   UNL     1      10.871  12.779  17.485  0.00  0.00    +0.000 A 
ATOM     23  C   UNL     1      10.576  13.869  18.351  0.00  0.00    +0.000 A 
BRANCH  18  25
ATOM     24  C   UNL     1       9.553  14.835  21.485  0.00  0.00    +0.000 C 
ATOM     25  O   UNL     1      10.737  14.568  20.758  0.00  0.00    +0.000 OA
ENDBRANCH  18  25
ENDBRANCH   1  23
BRANCH  10  26
ATOM     26  N   UNL     1       7.662  13.494  17.186  0.00  0.00    +0.000 N 
ATOM     27  H   UNL     1       6.771  13.116  16.880  0.00  0.00    +0.000 HD
ATOM     28  H   UNL     1       8.199  12.763  17.638  0.00  0.00    +0.000 HD
ENDBRANCH  10  26
TORSDOF 3
ENDMDL
MODEL 3
REMARK VINA RESULT:      -6.4      2.927      5.740
REMARK  Name = 
REMARK  4 active torsions:
REMARK  status: ('A' for Active; 'I' for Inactive)
REMARK    1  A    between atoms: C_1  and  O_2
REMARK    2  A    between atoms: O_2  and  C_3
REMARK    3  A    between atoms: C_8  and  C_9
REMARK    4  A    between atoms: C_18  and  N_19
REMARK                            x       y       z     vdW  Elec       q    Type
REMARK                         _______ _______ _______ _____ _____    ______ ____
ROOT
ATOM      1  C   UNL     1      -0.356  11.696  19.208  0.00  0.00    +0.000 C 
ATOM      2  N   UNL     1       0.260  10.382  19.062  0.00  0.00    +0.000 N 
ATOM      3  C   UNL     1       1.401  10.147  18.378  0.00  0.00    +0.000 C 
ATOM      4  S   UNL     1       1.865   8.594  18.012  0.00  0.00    +0.000 S 
ATOM      5  N   UNL     1       2.153  11.216  18.046  0.00  0.00    +0.000 N 
ATOM      6  C   UNL     1       1.820  12.532  18.341  0.00  0.00    +0.000 A 
ATOM      7  N   UNL     1       2.758  13.440  18.020  0.00  0.00    +0.000 NA
ATOM      8  C   UNL     1       2.449  14.737  18.213  0.00  0.00    +0.000 A 
ATOM      9  C   UNL     1       1.204  15.174  18.667  0.00  0.00    +0.000 A 
ATOM     10  C   UNL     1       0.250  14.200  19.025  0.00  0.00    +0.000 A 
ATOM     11  C   UNL     1       0.577  12.838  18.885  0.00  0.00    +0.000 A 
ATOM     12  C   UNL     1       0.903  16.648  18.783  0.00  0.00    +0.000 C 
ATOM     13  C   UNL     1       1.923  17.625  18.187  0.00  0.00    +0.000 C 
ATOM     14  C   UNL     1       2.963  16.983  17.280  0.00  0.00    +0.000 C 
ATOM     15  C   UNL     1       3.539  15.733  17.923  0.00  0.00    +0.000 C 
ATOM     16  H   UNL     1      -0.286   9.570  19.320  0.00  0.00    +0.000 HD
ATOM     17  H   UNL     1       3.038  11.074  17.578  0.00  0.00    +0.000 HD
ENDROOT
BRANCH   1  23
ATOM     18  C   UNL     1      -0.383  11.327  21.801  0.00  0.00    +0.000 A 
ATOM     19  C   UNL     1      -1.093  11.463  23.012  0.00  0.00    +0.000 A 
ATOM     20  C   UNL     1      -2.380  11.993  23.057  0.00  0.00    +0.000 A 
ATOM     21  C   UNL     1      -2.995  12.378  21.879  0.00  0.00    +0.000 A 
ATOM     22  C   UNL     1      -2.306  12.262  20.673  0.00  0.00    +0.000 A 
ATOM     23  C   UNL     1      -0.979  11.752  20.600  0.00  0.00    +0.000 A 
BRANCH  18  25
ATOM     24  C   UNL     1       0.779   9.309  22.491  0.00  0.00    +0.000 C 
ATOM     25  O   UNL     1       0.780  10.637  22.003  0.00  0.00    +0.000 OA
ENDBRANCH  18  25
ENDBRANCH   1  23
BRANCH  10  26
ATOM     26  N   UNL     1      -1.081  14.613  19.261  0.00  0.00    +0.000 N 
ATOM     27  H   UNL     1      -1.409  15.353  18.648  0.00  0.00    +0.000 HD
ATOM     28  H   UNL     1      -1.327  14.837  20.218  0.00  0.00    +0.000 HD
ENDBRANCH  10  26
TORSDOF 3
ENDMDL
MODEL 4
REMARK VINA RESULT:      -6.2      2.484      4.651
REMARK  Name = 
REMARK  4 active torsions:
REMARK  status: ('A' for Active; 'I' for Inactive)
REMARK    1  A    between atoms: C_1  and  O_2
REMARK    2  A    between atoms: O_2  and  C_3
REMARK    3  A    between atoms: C_8  and  C_9
REMARK    4  A    between atoms: C_18  and  N_19
REMARK                            x       y       z     vdW  Elec       q    Type
REMARK                         _______ _______ _______ _____ _____    ______ ____
ROOT
ATOM      1  C   UNL     1      -0.499  10.611  19.193  0.00  0.00    +0.000 C 
ATOM      2  N   UNL     1      -1.424  10.339  18.098  0.00  0.00    +0.000 N 
ATOM      3  C   UNL     1      -2.046  11.293  17.371  0.00  0.00    +0.000 C 
ATOM      4  S   UNL     1      -3.299  10.900  16.354  0.00  0.00    +0.000 S 
ATOM      5  N   UNL     1      -1.580  12.554  17.480  0.00  0.00    +0.000 N 
ATOM      6  C   UNL     1      -0.527  12.933  18.303  0.00  0.00    +0.000 A 
ATOM      7  N   UNL     1      -0.147  14.217  18.182  0.00  0.00    +0.000 NA
ATOM      8  C   UNL     1       0.818  14.653  19.016  0.00  0.00    +0.000 A 
ATOM      9  C   UNL     1       1.387  13.865  20.016  0.00  0.00    +0.000 A 
ATOM     10  C   UNL     1       0.993  12.514  20.100  0.00  0.00    +0.000 A 
ATOM     11  C   UNL     1       0.028  12.025  19.199  0.00  0.00    +0.000 A 
ATOM     12  C   UNL     1       2.407  14.446  20.965  0.00  0.00    +0.000 C 
ATOM     13  C   UNL     1       2.624  15.963  20.924  0.00  0.00    +0.000 C 
ATOM     14  C   UNL     1       1.565  16.735  20.149  0.00  0.00    +0.000 C 
ATOM     15  C   UNL     1       1.284  16.069  18.813  0.00  0.00    +0.000 C 
ATOM     16  H   UNL     1      -1.773   9.395  17.995  0.00  0.00    +0.000 HD
ATOM     17  H   UNL     1      -1.989  13.284  16.913  0.00  0.00    +0.000 HD
ENDROOT
BRANCH   1  23
ATOM     18  C   UNL     1       1.020   8.757  20.249  0.00  0.00    +0.000 A 
ATOM     19  C   UNL     1       2.017   7.780  20.045  0.00  0.00    +0.000 A 
ATOM     20  C   UNL     1       2.588   7.561  18.795  0.00  0.00    +0.000 A 
ATOM     21  C   UNL     1       2.190   8.338  17.721  0.00  0.00    +0.000 A 
ATOM     22  C   UNL     1       1.198   9.302  17.901  0.00  0.00    +0.000 A 
ATOM     23  C   UNL     1       0.574   9.527  19.160  0.00  0.00    +0.000 A 
BRANCH  18  25
ATOM     24  C   UNL     1      -0.527   8.555  22.111  0.00  0.00    +0.000 C 
ATOM     25  O   UNL     1       0.743   8.887  21.582  0.00  0.00    +0.000 OA
ENDBRANCH  18  25
ENDBRANCH   1  23
BRANCH  10  26
ATOM     26  N   UNL     1       1.376  11.769  21.238  0.00  0.00    +0.000 N 
ATOM     27  H   UNL     1       1.658  10.813  21.043  0.00  0.00    +0.000 HD
ATOM     28  H   UNL     1       0.737  11.775  22.025  0.00  0.00    +0.000 HD
ENDBRANCH  10  26
TORSDOF 3
ENDMDL
MODEL 5
REMARK VINA RESULT:      -6.2      2.642      3.986
REMARK  Name = 
REMARK  4 active torsions:
REMARK  status: ('A' for Active; 'I' for Inactive)
REMARK    1  A    between atoms: C_1  and  O_2
REMARK    2  A    between atoms: O_2  and  C_3
REMARK    3  A    between atoms: C_8  and  C_9
REMARK    4  A    between atoms: C_18  and  N_19
REMARK                            x       y       z     vdW  Elec       q    Type
REMARK                         _______ _______ _______ _____ _____    ______ ____
ROOT
ATOM      1  C   UNL     1      -1.760  13.236  21.988  0.00  0.00    +0.000 C 
ATOM      2  N   UNL     1      -1.741  13.759  23.350  0.00  0.00    +0.000 N 
ATOM      3  C   UNL     1      -2.790  14.366  23.947  0.00  0.00    +0.000 C 
ATOM      4  S   UNL     1      -2.590  15.191  25.375  0.00  0.00    +0.000 S 
ATOM      5  N   UNL     1      -3.996  14.238  23.357  0.00  0.00    +0.000 N 
ATOM      6  C   UNL     1      -4.220  13.547  22.173  0.00  0.00    +0.000 A 
ATOM      7  N   UNL     1      -5.512  13.444  21.813  0.00  0.00    +0.000 NA
ATOM      8  C   UNL     1      -5.774  12.852  20.631  0.00  0.00    +0.000 A 
ATOM      9  C   UNL     1      -4.785  12.403  19.757  0.00  0.00    +0.000 A 
ATOM     10  C   UNL     1      -3.441  12.493  20.173  0.00  0.00    +0.000 A 
ATOM     11  C   UNL     1      -3.151  13.056  21.431  0.00  0.00    +0.000 A 
ATOM     12  C   UNL     1      -5.153  11.821  18.413  0.00  0.00    +0.000 C 
ATOM     13  C   UNL     1      -6.615  11.945  17.968  0.00  0.00    +0.000 C 
ATOM     14  C   UNL     1      -7.452  12.909  18.798  0.00  0.00    +0.000 C 
ATOM     15  C   UNL     1      -7.227  12.677  20.281  0.00  0.00    +0.000 C 
ATOM     16  H   UNL     1      -0.845  13.849  23.811  0.00  0.00    +0.000 HD
ATOM     17  H   UNL     1      -4.811  14.636  23.803  0.00  0.00    +0.000 HD
ENDROOT
BRANCH   1  23
ATOM     18  C   UNL     1       0.155  11.694  21.085  0.00  0.00    +0.000 A 
ATOM     19  C   UNL     1       0.866  10.483  21.217  0.00  0.00    +0.000 A 
ATOM     20  C   UNL     1       0.550   9.546  22.197  0.00  0.00    +0.000 A 
ATOM     21  C   UNL     1      -0.509   9.791  23.052  0.00  0.00    +0.000 A 
ATOM     22  C   UNL     1      -1.218  10.987  22.944  0.00  0.00    +0.000 A 
ATOM     23  C   UNL     1      -0.898  11.977  21.974  0.00  0.00    +0.000 A 
BRANCH  18  25
ATOM     24  C   UNL     1       1.185  11.692  18.885  0.00  0.00    +0.000 C 
ATOM     25  O   UNL     1       0.550  12.361  19.959  0.00  0.00    +0.000 OA
ENDBRANCH  18  25
ENDBRANCH   1  23
BRANCH  10  26
ATOM     26  N   UNL     1      -2.422  12.264  19.221  0.00  0.00    +0.000 N 
ATOM     27  H   UNL     1      -2.717  12.358  18.254  0.00  0.00    +0.000 HD
ATOM     28  H   UNL     1      -1.883  11.413  19.326  0.00  0.00    +0.000 HD
ENDBRANCH  10  26
TORSDOF 3
ENDMDL
MODEL 6
REMARK VINA RESULT:      -6.1      6.882     10.508
REMARK  Name = 
REMARK  4 active torsions:
REMARK  status: ('A' for Active; 'I' for Inactive)
REMARK    1  A    between atoms: C_1  and  O_2
REMARK    2  A    between atoms: O_2  and  C_3
REMARK    3  A    between atoms: C_8  and  C_9
REMARK    4  A    between atoms: C_18  and  N_19
REMARK                            x       y       z     vdW  Elec       q    Type
REMARK                         _______ _______ _______ _____ _____    ______ ____
ROOT
ATOM      1  C   UNL     1       6.102   4.867  17.769  0.00  0.00    +0.000 C 
ATOM      2  N   UNL     1       6.644   6.079  18.374  0.00  0.00    +0.000 N 
ATOM      3  C   UNL     1       7.574   6.870  17.794  0.00  0.00    +0.000 C 
ATOM      4  S   UNL     1       8.346   8.050  18.672  0.00  0.00    +0.000 S 
ATOM      5  N   UNL     1       7.812   6.682  16.480  0.00  0.00    +0.000 N 
ATOM      6  C   UNL     1       7.183   5.721  15.699  0.00  0.00    +0.000 A 
ATOM      7  N   UNL     1       7.481   5.773  14.389  0.00  0.00    +0.000 NA
ATOM      8  C   UNL     1       6.959   4.811  13.601  0.00  0.00    +0.000 A 
ATOM      9  C   UNL     1       6.187   3.755  14.084  0.00  0.00    +0.000 A 
ATOM     10  C   UNL     1       5.863   3.743  15.456  0.00  0.00    +0.000 A 
ATOM     11  C   UNL     1       6.352   4.772  16.284  0.00  0.00    +0.000 A 
ATOM     12  C   UNL     1       5.702   2.670  13.153  0.00  0.00    +0.000 C 
ATOM     13  C   UNL     1       6.264   2.661  11.727  0.00  0.00    +0.000 C 
ATOM     14  C   UNL     1       7.475   3.561  11.516  0.00  0.00    +0.000 C 
ATOM     15  C   UNL     1       7.239   4.931  12.128  0.00  0.00    +0.000 C 
ATOM     16  H   UNL     1       6.463   6.241  19.356  0.00  0.00    +0.000 HD
ATOM     17  H   UNL     1       8.464   7.289  16.003  0.00  0.00    +0.000 HD
ENDROOT
BRANCH   1  23
ATOM     18  C   UNL     1       3.635   5.730  17.936  0.00  0.00    +0.000 A 
ATOM     19  C   UNL     1       2.317   5.481  18.372  0.00  0.00    +0.000 A 
ATOM     20  C   UNL     1       1.974   4.315  19.052  0.00  0.00    +0.000 A 
ATOM     21  C   UNL     1       2.955   3.382  19.335  0.00  0.00    +0.000 A 
ATOM     22  C   UNL     1       4.262   3.605  18.903  0.00  0.00    +0.000 A 
ATOM     23  C   UNL     1       4.636   4.771  18.179  0.00  0.00    +0.000 A 
BRANCH  18  25
ATOM     24  C   UNL     1       2.839   8.022  17.819  0.00  0.00    +0.000 C 
ATOM     25  O   UNL     1       3.744   7.001  17.444  0.00  0.00    +0.000 OA
ENDBRANCH  18  25
ENDBRANCH   1  23
BRANCH  10  26
ATOM     26  N   UNL     1       5.287   2.574  16.003  0.00  0.00    +0.000 N 
ATOM     27  H   UNL     1       4.913   1.925  15.317  0.00  0.00    +0.000 HD
ATOM     28  H   UNL     1       4.610   2.703  16.747  0.00  0.00    +0.000 HD
ENDBRANCH  10  26
TORSDOF 3
ENDMDL
MODEL 7
REMARK VINA RESULT:      -6.1      7.373     10.548
REMARK  Name = 
REMARK  4 active torsions:
REMARK  status: ('A' for Active; 'I' for Inactive)
REMARK    1  A    between atoms: C_1  and  O_2
REMARK    2  A    between atoms: O_2  and  C_3
REMARK    3  A    between atoms: C_8  and  C_9
REMARK    4  A    between atoms: C_18  and  N_19
REMARK                            x       y       z     vdW  Elec       q    Type
REMARK                         _______ _______ _______ _____ _____    ______ ____
ROOT
ATOM      1  C   UNL     1       6.003   5.018  17.776  0.00  0.00    +0.000 C 
ATOM      2  N   UNL     1       6.601   6.220  18.345  0.00  0.00    +0.000 N 
ATOM      3  C   UNL     1       7.584   6.935  17.755  0.00  0.00    +0.000 C 
ATOM      4  S   UNL     1       8.406   8.104  18.602  0.00  0.00    +0.000 S 
ATOM      5  N   UNL     1       7.833   6.684  16.454  0.00  0.00    +0.000 N 
ATOM      6  C   UNL     1       7.165   5.730  15.696  0.00  0.00    +0.000 A 
ATOM      7  N   UNL     1       7.488   5.715  14.391  0.00  0.00    +0.000 NA
ATOM      8  C   UNL     1       6.926   4.755  13.631  0.00  0.00    +0.000 A 
ATOM      9  C   UNL     1       6.087   3.762  14.137  0.00  0.00    +0.000 A 
ATOM     10  C   UNL     1       5.740   3.821  15.502  0.00  0.00    +0.000 A 
ATOM     11  C   UNL     1       6.272   4.852  16.300  0.00  0.00    +0.000 A 
ATOM     12  C   UNL     1       5.558   2.671  13.238  0.00  0.00    +0.000 C 
ATOM     13  C   UNL     1       6.144   2.576  11.825  0.00  0.00    +0.000 C 
ATOM     14  C   UNL     1       7.407   3.398  11.604  0.00  0.00    +0.000 C 
ATOM     15  C   UNL     1       7.238   4.802  12.159  0.00  0.00    +0.000 C 
ATOM     16  H   UNL     1       6.412   6.429  19.317  0.00  0.00    +0.000 HD
ATOM     17  H   UNL     1       8.527   7.235  15.967  0.00  0.00    +0.000 HD
ENDROOT
BRANCH   1  23
ATOM     18  C   UNL     1       3.807   3.950  18.724  0.00  0.00    +0.000 A 
ATOM     19  C   UNL     1       2.442   4.121  19.036  0.00  0.00    +0.000 A 
ATOM     20  C   UNL     1       1.775   5.318  18.791  0.00  0.00    +0.000 A 
ATOM     21  C   UNL     1       2.458   6.366  18.200  0.00  0.00    +0.000 A 
ATOM     22  C   UNL     1       3.810   6.220  17.893  0.00  0.00    +0.000 A 
ATOM     23  C   UNL     1       4.526   5.020  18.161  0.00  0.00    +0.000 A 
BRANCH  18  25
ATOM     24  C   UNL     1       4.458   2.131  20.196  0.00  0.00    +0.000 C 
ATOM     25  O   UNL     1       4.180   2.647  18.908  0.00  0.00    +0.000 OA
ENDBRANCH  18  25
ENDBRANCH   1  23
BRANCH  10  26
ATOM     26  N   UNL     1       5.090   2.708  16.082  0.00  0.00    +0.000 N 
ATOM     27  H   UNL     1       4.699   2.878  17.003  0.00  0.00    +0.000 HD
ATOM     28  H   UNL     1       5.603   1.833  16.091  0.00  0.00    +0.000 HD
ENDBRANCH  10  26
TORSDOF 3
ENDMDL
MODEL 8
REMARK VINA RESULT:      -6.1      2.884      4.687
REMARK  Name = 
REMARK  4 active torsions:
REMARK  status: ('A' for Active; 'I' for Inactive)
REMARK    1  A    between atoms: C_1  and  O_2
REMARK    2  A    between atoms: O_2  and  C_3
REMARK    3  A    between atoms: C_8  and  C_9
REMARK    4  A    between atoms: C_18  and  N_19
REMARK                            x       y       z     vdW  Elec       q    Type
REMARK                         _______ _______ _______ _____ _____    ______ ____
ROOT
ATOM      1  C   UNL     1      -1.208  11.530  18.811  0.00  0.00    +0.000 C 
ATOM      2  N   UNL     1      -1.725  11.412  17.451  0.00  0.00    +0.000 N 
ATOM      3  C   UNL     1      -3.038  11.383  17.135  0.00  0.00    +0.000 C 
ATOM      4  S   UNL     1      -3.532  10.947  15.610  0.00  0.00    +0.000 S 
ATOM      5  N   UNL     1      -3.912  11.757  18.092  0.00  0.00    +0.000 N 
ATOM      6  C   UNL     1      -3.550  12.145  19.376  0.00  0.00    +0.000 A 
ATOM      7  N   UNL     1      -4.564  12.586  20.141  0.00  0.00    +0.000 NA
ATOM      8  C   UNL     1      -4.277  12.897  21.421  0.00  0.00    +0.000 A 
ATOM      9  C   UNL     1      -3.015  12.732  21.991  0.00  0.00    +0.000 A 
ATOM     10  C   UNL     1      -1.963  12.298  21.158  0.00  0.00    +0.000 A 
ATOM     11  C   UNL     1      -2.232  12.023  19.803  0.00  0.00    +0.000 A 
ATOM     12  C   UNL     1      -2.788  13.027  23.453  0.00  0.00    +0.000 C 
ATOM     13  C   UNL     1      -4.024  13.302  24.318  0.00  0.00    +0.000 C 
ATOM     14  C   UNL     1      -5.350  12.939  23.663  0.00  0.00    +0.000 C 
ATOM     15  C   UNL     1      -5.407  13.463  22.239  0.00  0.00    +0.000 C 
ATOM     16  H   UNL     1      -1.079  11.144  16.720  0.00  0.00    +0.000 HD
ATOM     17  H   UNL     1      -4.898  11.796  17.875  0.00  0.00    +0.000 HD
ENDROOT
BRANCH   1  23
ATOM     18  C   UNL     1       1.387  11.875  18.721  0.00  0.00    +0.000 A 
ATOM     19  C   UNL     1       2.461  12.785  18.638  0.00  0.00    +0.000 A 
ATOM     20  C   UNL     1       2.259  14.162  18.588  0.00  0.00    +0.000 A 
ATOM     21  C   UNL     1       0.969  14.660  18.647  0.00  0.00    +0.000 A 
ATOM     22  C   UNL     1      -0.107  13.776  18.719  0.00  0.00    +0.000 A 
ATOM     23  C   UNL     1       0.068  12.364  18.739  0.00  0.00    +0.000 A 
BRANCH  18  25
ATOM     24  C   UNL     1       1.901   9.661  17.865  0.00  0.00    +0.000 C 
ATOM     25  O   UNL     1       1.850  10.604  18.919  0.00  0.00    +0.000 OA
ENDBRANCH  18  25
ENDBRANCH   1  23
BRANCH  10  26
ATOM     26  N   UNL     1      -0.747  11.903  21.758  0.00  0.00    +0.000 N 
ATOM     27  H   UNL     1      -0.042  11.569  21.107  0.00  0.00    +0.000 HD
ATOM     28  H   UNL     1      -0.810  11.262  22.541  0.00  0.00    +0.000 HD
ENDBRANCH  10  26
TORSDOF 3
ENDMDL
MODEL 9
REMARK VINA RESULT:      -6.1      7.139     10.294
REMARK  Name = 
REMARK  4 active torsions:
REMARK  status: ('A' for Active; 'I' for Inactive)
REMARK    1  A    between atoms: C_1  and  O_2
REMARK    2  A    between atoms: O_2  and  C_3
REMARK    3  A    between atoms: C_8  and  C_9
REMARK    4  A    between atoms: C_18  and  N_19
REMARK                            x       y       z     vdW  Elec       q    Type
REMARK                         _______ _______ _______ _____ _____    ______ ____
ROOT
ATOM      1  C   UNL     1       5.345   4.335  18.453  0.00  0.00    +0.000 C 
ATOM      2  N   UNL     1       6.303   4.903  19.396  0.00  0.00    +0.000 N 
ATOM      3  C   UNL     1       7.600   5.150  19.108  0.00  0.00    +0.000 C 
ATOM      4  S   UNL     1       8.680   5.512  20.317  0.00  0.00    +0.000 S 
ATOM      5  N   UNL     1       7.959   5.128  17.809  0.00  0.00    +0.000 N 
ATOM      6  C   UNL     1       7.093   4.848  16.760  0.00  0.00    +0.000 A 
ATOM      7  N   UNL     1       7.625   4.986  15.533  0.00  0.00    +0.000 NA
ATOM      8  C   UNL     1       6.848   4.648  14.485  0.00  0.00    +0.000 A 
ATOM      9  C   UNL     1       5.565   4.117  14.615  0.00  0.00    +0.000 A 
ATOM     10  C   UNL     1       5.020   4.012  15.911  0.00  0.00    +0.000 A 
ATOM     11  C   UNL     1       5.796   4.416  17.015  0.00  0.00    +0.000 A 
ATOM     12  C   UNL     1       4.784   3.687  13.398  0.00  0.00    +0.000 C 
ATOM     13  C   UNL     1       5.529   3.654  12.058  0.00  0.00    +0.000 C 
ATOM     14  C   UNL     1       7.043   3.764  12.170  0.00  0.00    +0.000 C 
ATOM     15  C   UNL     1       7.433   4.884  13.118  0.00  0.00    +0.000 C 
ATOM     16  H   UNL     1       6.043   4.938  20.373  0.00  0.00    +0.000 HD
ATOM     17  H   UNL     1       8.910   5.358  17.554  0.00  0.00    +0.000 HD
ENDROOT
BRANCH   1  23
ATOM     18  C   UNL     1       2.907   4.387  19.408  0.00  0.00    +0.000 A 
ATOM     19  C   UNL     1       1.724   5.129  19.602  0.00  0.00    +0.000 A 
ATOM     20  C   UNL     1       1.588   6.434  19.137  0.00  0.00    +0.000 A 
ATOM     21  C   UNL     1       2.631   7.017  18.439  0.00  0.00    +0.000 A 
ATOM     22  C   UNL     1       3.813   6.303  18.246  0.00  0.00    +0.000 A 
ATOM     23  C   UNL     1       3.992   4.980  18.737  0.00  0.00    +0.000 A 
BRANCH  18  25
ATOM     24  C   UNL     1       1.942   2.184  19.065  0.00  0.00    +0.000 C 
ATOM     25  O   UNL     1       2.731   3.092  19.810  0.00  0.00    +0.000 OA
ENDBRANCH  18  25
ENDBRANCH   1  23
BRANCH  10  26
ATOM     26  N   UNL     1       3.830   3.270  16.085  0.00  0.00    +0.000 N 
ATOM     27  H   UNL     1       3.650   2.977  17.040  0.00  0.00    +0.000 HD
ATOM     28  H   UNL     1       3.687   2.485  15.460  0.00  0.00    +0.000 HD
ENDBRANCH  10  26
TORSDOF 3
ENDMDL
