MODEL 1
REMARK VINA RESULT:      -4.9      0.000      0.000
REMARK  Name = 
REMARK  2 active torsions:
REMARK  status: ('A' for Active; 'I' for Inactive)
REMARK    1  A    between atoms: N_2  and  C_3
REMARK    2  A    between atoms: C_6  and  O_7
REMARK                            x       y       z     vdW  Elec       q    Type
REMARK                         _______ _______ _______ _____ _____    ______ ____
ROOT
ATOM      1  C   UNL     1       6.148   6.404  17.034  0.00  0.00    +0.000 A 
ATOM      2  C   UNL     1       5.623   5.404  17.872  0.00  0.00    +0.000 A 
ATOM      3  C   UNL     1       6.258   5.068  19.072  0.00  0.00    +0.000 A 
ATOM      4  C   UNL     1       7.428   5.727  19.432  0.00  0.00    +0.000 A 
ATOM      5  C   UNL     1       7.975   6.706  18.611  0.00  0.00    +0.000 A 
ATOM      6  C   UNL     1       7.338   7.040  17.414  0.00  0.00    +0.000 A 
ENDROOT
BRANCH   1   8
ATOM      7  O   UNL     1       5.734   5.941  14.930  0.00  0.00    +0.000 OA
ATOM      8  N   UNL     1       5.561   6.763  15.837  0.00  0.00    +0.000 NA
ENDBRANCH   1   8
BRANCH   4   9
ATOM      9  O   UNL     1       8.075   5.441  20.597  0.00  0.00    +0.000 OA
ATOM     10  H   UNL     1       7.748   6.033  21.293  0.00  0.00    +0.000 HD
ENDBRANCH   4   9
TORSDOF 2
ENDMDL
MODEL 2
REMARK VINA RESULT:      -4.9      0.120      1.614
REMARK  Name = 
REMARK  2 active torsions:
REMARK  status: ('A' for Active; 'I' for Inactive)
REMARK    1  A    between atoms: N_2  and  C_3
REMARK    2  A    between atoms: C_6  and  O_7
REMARK                            x       y       z     vdW  Elec       q    Type
REMARK                         _______ _______ _______ _____ _____    ______ ____
ROOT
ATOM      1  C   UNL     1       6.174   6.414  17.106  0.00  0.00    +0.000 A 
ATOM      2  C   UNL     1       7.389   7.032  17.448  0.00  0.00    +0.000 A 
ATOM      3  C   UNL     1       8.061   6.690  18.626  0.00  0.00    +0.000 A 
ATOM      4  C   UNL     1       7.511   5.732  19.471  0.00  0.00    +0.000 A 
ATOM      5  C   UNL     1       6.302   5.121  19.163  0.00  0.00    +0.000 A 
ATOM      6  C   UNL     1       5.633   5.465  17.984  0.00  0.00    +0.000 A 
ENDROOT
BRANCH   1   8
ATOM      7  O   UNL     1       5.845   6.104  14.959  0.00  0.00    +0.000 OA
ATOM      8  N   UNL     1       5.471   6.727  15.959  0.00  0.00    +0.000 NA
ENDBRANCH   1   8
BRANCH   4   9
ATOM      9  O   UNL     1       8.135   5.359  20.624  0.00  0.00    +0.000 OA
ATOM     10  H   UNL     1       7.772   4.507  20.917  0.00  0.00    +0.000 HD
ENDBRANCH   4   9
TORSDOF 2
ENDMDL
MODEL 3
REMARK VINA RESULT:      -4.8      2.328      4.014
REMARK  Name = 
REMARK  2 active torsions:
REMARK  status: ('A' for Active; 'I' for Inactive)
REMARK    1  A    between atoms: N_2  and  C_3
REMARK    2  A    between atoms: C_6  and  O_7
REMARK                            x       y       z     vdW  Elec       q    Type
REMARK                         _______ _______ _______ _____ _____    ______ ____
ROOT
ATOM      1  C   UNL     1       6.181   4.734  18.345  0.00  0.00    +0.000 A 
ATOM      2  C   UNL     1       4.988   4.316  17.731  0.00  0.00    +0.000 A 
ATOM      3  C   UNL     1       4.972   3.919  16.390  0.00  0.00    +0.000 A 
ATOM      4  C   UNL     1       6.153   3.946  15.657  0.00  0.00    +0.000 A 
ATOM      5  C   UNL     1       7.341   4.373  16.238  0.00  0.00    +0.000 A 
ATOM      6  C   UNL     1       7.354   4.769  17.578  0.00  0.00    +0.000 A 
ENDROOT
BRANCH   1   8
ATOM      7  O   UNL     1       7.384   5.421  20.047  0.00  0.00    +0.000 OA
ATOM      8  N   UNL     1       6.243   5.144  19.663  0.00  0.00    +0.000 NA
ENDBRANCH   1   8
BRANCH   4   9
ATOM      9  O   UNL     1       6.189   3.558  14.351  0.00  0.00    +0.000 OA
ATOM     10  H   UNL     1       5.340   3.780  13.933  0.00  0.00    +0.000 HD
ENDBRANCH   4   9
TORSDOF 2
ENDMDL
MODEL 4
REMARK VINA RESULT:      -4.7      5.858      6.877
REMARK  Name = 
REMARK  2 active torsions:
REMARK  status: ('A' for Active; 'I' for Inactive)
REMARK    1  A    between atoms: N_2  and  C_3
REMARK    2  A    between atoms: C_6  and  O_7
REMARK                            x       y       z     vdW  Elec       q    Type
REMARK                         _______ _______ _______ _____ _____    ______ ____
ROOT
ATOM      1  C   UNL     1       3.775   2.200  20.247  0.00  0.00    +0.000 A 
ATOM      2  C   UNL     1       2.949   2.639  21.297  0.00  0.00    +0.000 A 
ATOM      3  C   UNL     1       1.594   2.907  21.080  0.00  0.00    +0.000 A 
ATOM      4  C   UNL     1       1.063   2.743  19.805  0.00  0.00    +0.000 A 
ATOM      5  C   UNL     1       1.863   2.328  18.748  0.00  0.00    +0.000 A 
ATOM      6  C   UNL     1       3.217   2.060  18.969  0.00  0.00    +0.000 A 
ENDROOT
BRANCH   1   8
ATOM      7  O   UNL     1       5.396   1.418  21.503  0.00  0.00    +0.000 OA
ATOM      8  N   UNL     1       5.120   1.933  20.413  0.00  0.00    +0.000 NA
ENDBRANCH   1   8
BRANCH   4   9
ATOM      9  O   UNL     1      -0.254   2.982  19.548  0.00  0.00    +0.000 OA
ATOM     10  H   UNL     1      -0.649   3.428  20.315  0.00  0.00    +0.000 HD
ENDBRANCH   4   9
TORSDOF 2
ENDMDL
MODEL 5
REMARK VINA RESULT:      -4.6      2.248      4.291
REMARK  Name = 
REMARK  2 active torsions:
REMARK  status: ('A' for Active; 'I' for Inactive)
REMARK    1  A    between atoms: N_2  and  C_3
REMARK    2  A    between atoms: C_6  and  O_7
REMARK                            x       y       z     vdW  Elec       q    Type
REMARK                         _______ _______ _______ _____ _____    ______ ____
ROOT
ATOM      1  C   UNL     1       6.214   4.785  18.306  0.00  0.00    +0.000 A 
ATOM      2  C   UNL     1       7.337   4.791  17.460  0.00  0.00    +0.000 A 
ATOM      3  C   UNL     1       7.209   4.508  16.097  0.00  0.00    +0.000 A 
ATOM      4  C   UNL     1       5.954   4.211  15.577  0.00  0.00    +0.000 A 
ATOM      5  C   UNL     1       4.833   4.182  16.397  0.00  0.00    +0.000 A 
ATOM      6  C   UNL     1       4.964   4.465  17.759  0.00  0.00    +0.000 A 
ENDROOT
BRANCH   1   8
ATOM      7  O   UNL     1       7.418   5.400  20.035  0.00  0.00    +0.000 OA
ATOM      8  N   UNL     1       6.294   5.048  19.660  0.00  0.00    +0.000 NA
ENDBRANCH   1   8
BRANCH   4   9
ATOM      9  O   UNL     1       5.779   3.941  14.252  0.00  0.00    +0.000 OA
ATOM     10  H   UNL     1       6.638   3.708  13.863  0.00  0.00    +0.000 HD
ENDBRANCH   4   9
TORSDOF 2
ENDMDL
MODEL 6
REMARK VINA RESULT:      -4.6      5.642      6.799
REMARK  Name = 
REMARK  2 active torsions:
REMARK  status: ('A' for Active; 'I' for Inactive)
REMARK    1  A    between atoms: N_2  and  C_3
REMARK    2  A    between atoms: C_6  and  O_7
REMARK                            x       y       z     vdW  Elec       q    Type
REMARK                         _______ _______ _______ _____ _____    ______ ____
ROOT
ATOM      1  C   UNL     1       3.903   2.256  19.884  0.00  0.00    +0.000 A 
ATOM      2  C   UNL     1       3.618   1.944  18.543  0.00  0.00    +0.000 A 
ATOM      3  C   UNL     1       2.309   2.009  18.054  0.00  0.00    +0.000 A 
ATOM      4  C   UNL     1       1.279   2.381  18.911  0.00  0.00    +0.000 A 
ATOM      5  C   UNL     1       1.535   2.677  20.245  0.00  0.00    +0.000 A 
ATOM      6  C   UNL     1       2.844   2.611  20.730  0.00  0.00    +0.000 A 
ENDROOT
BRANCH   1   8
ATOM      7  O   UNL     1       5.274   1.461  21.402  0.00  0.00    +0.000 OA
ATOM      8  N   UNL     1       5.178   2.196  20.412  0.00  0.00    +0.000 NA
ENDBRANCH   1   8
BRANCH   4   9
ATOM      9  O   UNL     1      -0.010   2.470  18.477  0.00  0.00    +0.000 OA
ATOM     10  H   UNL     1      -0.114   3.288  17.965  0.00  0.00    +0.000 HD
ENDBRANCH   4   9
TORSDOF 2
ENDMDL
MODEL 7
REMARK VINA RESULT:      -4.6      2.173      2.669
REMARK  Name = 
REMARK  2 active torsions:
REMARK  status: ('A' for Active; 'I' for Inactive)
REMARK    1  A    between atoms: N_2  and  C_3
REMARK    2  A    between atoms: C_6  and  O_7
REMARK                            x       y       z     vdW  Elec       q    Type
REMARK                         _______ _______ _______ _____ _____    ______ ____
ROOT
ATOM      1  C   UNL     1       6.767   4.982  16.844  0.00  0.00    +0.000 A 
ATOM      2  C   UNL     1       7.176   5.071  18.186  0.00  0.00    +0.000 A 
ATOM      3  C   UNL     1       6.247   5.297  19.206  0.00  0.00    +0.000 A 
ATOM      4  C   UNL     1       4.902   5.442  18.883  0.00  0.00    +0.000 A 
ATOM      5  C   UNL     1       4.476   5.376  17.562  0.00  0.00    +0.000 A 
ATOM      6  C   UNL     1       5.408   5.150  16.544  0.00  0.00    +0.000 A 
ENDROOT
BRANCH   1   8
ATOM      7  O   UNL     1       7.449   5.495  14.822  0.00  0.00    +0.000 OA
ATOM      8  N   UNL     1       7.650   4.770  15.803  0.00  0.00    +0.000 NA
ENDBRANCH   1   8
BRANCH   4   9
ATOM      9  O   UNL     1       3.959   5.652  19.844  0.00  0.00    +0.000 OA
ATOM     10  H   UNL     1       4.390   6.016  20.634  0.00  0.00    +0.000 HD
ENDBRANCH   4   9
TORSDOF 2
ENDMDL
MODEL 8
REMARK VINA RESULT:      -4.5      2.935      3.322
REMARK  Name = 
REMARK  2 active torsions:
REMARK  status: ('A' for Active; 'I' for Inactive)
REMARK    1  A    between atoms: N_2  and  C_3
REMARK    2  A    between atoms: C_6  and  O_7
REMARK                            x       y       z     vdW  Elec       q    Type
REMARK                         _______ _______ _______ _____ _____    ______ ____
ROOT
ATOM      1  C   UNL     1       6.181   5.600  16.333  0.00  0.00    +0.000 A 
ATOM      2  C   UNL     1       5.608   4.316  16.310  0.00  0.00    +0.000 A 
ATOM      3  C   UNL     1       4.347   4.084  16.866  0.00  0.00    +0.000 A 
ATOM      4  C   UNL     1       3.657   5.138  17.455  0.00  0.00    +0.000 A 
ATOM      5  C   UNL     1       4.210   6.411  17.505  0.00  0.00    +0.000 A 
ATOM      6  C   UNL     1       5.472   6.640  16.948  0.00  0.00    +0.000 A 
ENDROOT
BRANCH   1   8
ATOM      7  O   UNL     1       7.626   5.358  14.699  0.00  0.00    +0.000 OA
ATOM      8  N   UNL     1       7.428   5.873  15.805  0.00  0.00    +0.000 NA
ENDBRANCH   1   8
BRANCH   4   9
ATOM      9  O   UNL     1       2.420   4.962  17.999  0.00  0.00    +0.000 OA
ATOM     10  H   UNL     1       1.963   5.819  18.027  0.00  0.00    +0.000 HD
ENDBRANCH   4   9
TORSDOF 2
ENDMDL
MODEL 9
REMARK VINA RESULT:      -4.5      2.238      2.556
REMARK  Name = 
REMARK  2 active torsions:
REMARK  status: ('A' for Active; 'I' for Inactive)
REMARK    1  A    between atoms: N_2  and  C_3
REMARK    2  A    between atoms: C_6  and  O_7
REMARK                            x       y       z     vdW  Elec       q    Type
REMARK                         _______ _______ _______ _____ _____    ______ ____
ROOT
ATOM      1  C   UNL     1       6.500   4.843  15.486  0.00  0.00    +0.000 A 
ATOM      2  C   UNL     1       5.208   4.365  15.768  0.00  0.00    +0.000 A 
ATOM      3  C   UNL     1       4.822   4.074  17.080  0.00  0.00    +0.000 A 
ATOM      4  C   UNL     1       5.734   4.254  18.115  0.00  0.00    +0.000 A 
ATOM      5  C   UNL     1       7.022   4.708  17.857  0.00  0.00    +0.000 A 
ATOM      6  C   UNL     1       7.404   4.998  16.545  0.00  0.00    +0.000 A 
ENDROOT
BRANCH   1   8
ATOM      7  O   UNL     1       8.058   5.631  14.157  0.00  0.00    +0.000 OA
ATOM      8  N   UNL     1       6.928   5.134  14.205  0.00  0.00    +0.000 NA
ENDBRANCH   1   8
BRANCH   4   9
ATOM      9  O   UNL     1       5.399   3.994  19.410  0.00  0.00    +0.000 OA
ATOM     10  H   UNL     1       6.035   4.439  19.995  0.00  0.00    +0.000 HD
ENDBRANCH   4   9
TORSDOF 2
ENDMDL
