MODEL 1
REMARK VINA RESULT:      -8.2      0.000      0.000
REMARK  Name = 
REMARK  5 active torsions:
REMARK  status: ('A' for Active; 'I' for Inactive)
REMARK    1  A    between atoms: C_1  and  C_2
REMARK    2  A    between atoms: C_5  and  N_6
REMARK    3  A    between atoms: C_7  and  C_9
REMARK    4  A    between atoms: N_13  and  S_14
REMARK    5  A    between atoms: S_14  and  C_17
REMARK                            x       y       z     vdW  Elec       q    Type
REMARK                         _______ _______ _______ _____ _____    ______ ____
ROOT
ATOM      1  C   UNL     1       1.447   9.902  21.513  0.00  0.00    +0.000 C 
ATOM      2  C   UNL     1       0.964   9.485  22.899  0.00  0.00    +0.000 C 
ATOM      3  C   UNL     1      -0.556   9.494  22.993  0.00  0.00    +0.000 C 
ATOM      4  C   UNL     1      -1.146  10.827  22.539  0.00  0.00    +0.000 C 
ATOM      5  N   UNL     1      -0.669  11.217  21.165  0.00  0.00    +0.000 NA
ATOM      6  C   UNL     1       0.834  11.226  21.077  0.00  0.00    +0.000 C 
ENDROOT
BRANCH   1   8
ATOM      7  N   UNL     1       1.903   7.565  20.864  0.00  0.00    +0.000 N 
ATOM      8  C   UNL     1       1.295   8.755  20.513  0.00  0.00    +0.000 C 
ATOM      9  O   UNL     1       0.716   8.975  19.449  0.00  0.00    +0.000 OA
ATOM     10  H   UNL     1       2.188   7.465  21.836  0.00  0.00    +0.000 HD
BRANCH   7  15
ATOM     11  C   UNL     1       2.293   2.853  17.612  0.00  0.00    +0.000 C 
ATOM     12  C   UNL     1       2.213   4.087  18.462  0.00  0.00    +0.000 A 
ATOM     13  C   UNL     1       2.782   5.285  18.029  0.00  0.00    +0.000 A 
ATOM     14  C   UNL     1       2.690   6.439  18.813  0.00  0.00    +0.000 A 
ATOM     15  C   UNL     1       2.030   6.422  20.043  0.00  0.00    +0.000 A 
ATOM     16  C   UNL     1       1.485   5.214  20.494  0.00  0.00    +0.000 A 
ATOM     17  C   UNL     1       1.565   4.059  19.703  0.00  0.00    +0.000 A 
ENDBRANCH   7  15
ENDBRANCH   1   8
BRANCH   5  18
ATOM     18  S   UNL     1      -1.318  12.775  20.660  0.00  0.00    +0.000 S 
ATOM     19  O   UNL     1      -1.632  13.512  21.871  0.00  0.00    +0.000 OA
ATOM     20  O   UNL     1      -0.404  13.357  19.701  0.00  0.00    +0.000 OA
BRANCH  18  21
ATOM     21  C   UNL     1      -2.864  12.371  19.877  0.00  0.00    +0.000 A 
ATOM     22  C   UNL     1      -4.017  13.026  20.351  0.00  0.00    +0.000 A 
ATOM     23  C   UNL     1      -5.223  12.895  19.674  0.00  0.00    +0.000 A 
ATOM     24  C   UNL     1      -5.272  12.140  18.509  0.00  0.00    +0.000 A 
ATOM     25  C   UNL     1      -4.119  11.505  18.021  0.00  0.00    +0.000 A 
ATOM     26  C   UNL     1      -4.171  10.802  16.808  0.00  0.00    +0.000 A 
ATOM     27  C   UNL     1      -3.029  10.202  16.301  0.00  0.00    +0.000 A 
ATOM     28  C   UNL     1      -1.878  10.291  17.049  0.00  0.00    +0.000 A 
ATOM     29  N   UNL     1      -1.805  10.937  18.235  0.00  0.00    +0.000 NA
ATOM     30  C   UNL     1      -2.887  11.588  18.716  0.00  0.00    +0.000 A 
ENDBRANCH  18  21
ENDBRANCH   5  18
TORSDOF 4
ENDMDL
MODEL 2
REMARK VINA RESULT:      -7.9      1.041      2.305
REMARK  Name = 
REMARK  5 active torsions:
REMARK  status: ('A' for Active; 'I' for Inactive)
REMARK    1  A    between atoms: C_1  and  C_2
REMARK    2  A    between atoms: C_5  and  N_6
REMARK    3  A    between atoms: C_7  and  C_9
REMARK    4  A    between atoms: N_13  and  S_14
REMARK    5  A    between atoms: S_14  and  C_17
REMARK                            x       y       z     vdW  Elec       q    Type
REMARK                         _______ _______ _______ _____ _____    ______ ____
ROOT
ATOM      1  C   UNL     1       1.261   9.473  21.848  0.00  0.00    +0.000 C 
ATOM      2  C   UNL     1       0.601   9.672  23.210  0.00  0.00    +0.000 C 
ATOM      3  C   UNL     1      -0.891   9.946  23.078  0.00  0.00    +0.000 C 
ATOM      4  C   UNL     1      -1.176  11.093  22.113  0.00  0.00    +0.000 C 
ATOM      5  N   UNL     1      -0.528  10.875  20.771  0.00  0.00    +0.000 NA
ATOM      6  C   UNL     1       0.951  10.622  20.898  0.00  0.00    +0.000 C 
ENDROOT
BRANCH   1   8
ATOM      7  N   UNL     1       2.060   7.375  20.822  0.00  0.00    +0.000 N 
ATOM      8  C   UNL     1       0.968   8.077  21.297  0.00  0.00    +0.000 C 
ATOM      9  O   UNL     1      -0.202   7.699  21.245  0.00  0.00    +0.000 OA
ATOM     10  H   UNL     1       2.979   7.723  21.087  0.00  0.00    +0.000 HD
BRANCH   7  15
ATOM     11  C   UNL     1       2.003   2.431  17.909  0.00  0.00    +0.000 C 
ATOM     12  C   UNL     1       1.997   3.722  18.675  0.00  0.00    +0.000 A 
ATOM     13  C   UNL     1       1.597   3.751  20.012  0.00  0.00    +0.000 A 
ATOM     14  C   UNL     1       1.610   4.950  20.731  0.00  0.00    +0.000 A 
ATOM     15  C   UNL     1       2.020   6.143  20.132  0.00  0.00    +0.000 A 
ATOM     16  C   UNL     1       2.391   6.121  18.783  0.00  0.00    +0.000 A 
ATOM     17  C   UNL     1       2.391   4.918  18.064  0.00  0.00    +0.000 A 
ENDBRANCH   7  15
ENDBRANCH   1   8
BRANCH   5  18
ATOM     18  S   UNL     1      -0.823  12.218  19.670  0.00  0.00    +0.000 S 
ATOM     19  O   UNL     1      -1.482  13.257  20.442  0.00  0.00    +0.000 OA
ATOM     20  O   UNL     1       0.417  12.529  18.991  0.00  0.00    +0.000 OA
BRANCH  18  21
ATOM     21  C   UNL     1      -2.020  11.583  18.517  0.00  0.00    +0.000 A 
ATOM     22  C   UNL     1      -1.537  10.792  17.457  0.00  0.00    +0.000 A 
ATOM     23  C   UNL     1      -2.426  10.119  16.627  0.00  0.00    +0.000 A 
ATOM     24  C   UNL     1      -3.789  10.209  16.873  0.00  0.00    +0.000 A 
ATOM     25  C   UNL     1      -4.273  10.979  17.942  0.00  0.00    +0.000 A 
ATOM     26  C   UNL     1      -5.648  11.005  18.217  0.00  0.00    +0.000 A 
ATOM     27  C   UNL     1      -6.130  11.734  19.293  0.00  0.00    +0.000 A 
ATOM     28  C   UNL     1      -5.219  12.449  20.037  0.00  0.00    +0.000 A 
ATOM     29  N   UNL     1      -3.892  12.465  19.778  0.00  0.00    +0.000 NA
ATOM     30  C   UNL     1      -3.391  11.708  18.778  0.00  0.00    +0.000 A 
ENDBRANCH  18  21
ENDBRANCH   5  18
TORSDOF 4
ENDMDL
MODEL 3
REMARK VINA RESULT:      -7.6      0.983      2.050
REMARK  Name = 
REMARK  5 active torsions:
REMARK  status: ('A' for Active; 'I' for Inactive)
REMARK    1  A    between atoms: C_1  and  C_2
REMARK    2  A    between atoms: C_5  and  N_6
REMARK    3  A    between atoms: C_7  and  C_9
REMARK    4  A    between atoms: N_13  and  S_14
REMARK    5  A    between atoms: S_14  and  C_17
REMARK                            x       y       z     vdW  Elec       q    Type
REMARK                         _______ _______ _______ _____ _____    ______ ____
ROOT
ATOM      1  C   UNL     1       1.517   9.708  21.487  0.00  0.00    +0.000 C 
ATOM      2  C   UNL     1       0.935   9.361  22.855  0.00  0.00    +0.000 C 
ATOM      3  C   UNL     1      -0.586   9.443  22.857  0.00  0.00    +0.000 C 
ATOM      4  C   UNL     1      -1.084  10.785  22.327  0.00  0.00    +0.000 C 
ATOM      5  N   UNL     1      -0.510  11.105  20.973  0.00  0.00    +0.000 NA
ATOM      6  C   UNL     1       0.995  11.043  20.974  0.00  0.00    +0.000 C 
ENDROOT
BRANCH   1   8
ATOM      7  N   UNL     1       1.883   7.327  20.948  0.00  0.00    +0.000 N 
ATOM      8  C   UNL     1       1.369   8.536  20.517  0.00  0.00    +0.000 C 
ATOM      9  O   UNL     1       0.878   8.748  19.409  0.00  0.00    +0.000 OA
ATOM     10  H   UNL     1       2.095   7.248  21.941  0.00  0.00    +0.000 HD
BRANCH   7  15
ATOM     11  C   UNL     1       2.224   2.490  17.880  0.00  0.00    +0.000 C 
ATOM     12  C   UNL     1       2.157   3.755  18.684  0.00  0.00    +0.000 A 
ATOM     13  C   UNL     1       2.862   4.890  18.282  0.00  0.00    +0.000 A 
ATOM     14  C   UNL     1       2.783   6.074  19.021  0.00  0.00    +0.000 A 
ATOM     15  C   UNL     1       2.002   6.150  20.175  0.00  0.00    +0.000 A 
ATOM     16  C   UNL     1       1.319   5.004  20.598  0.00  0.00    +0.000 A 
ATOM     17  C   UNL     1       1.386   3.819  19.852  0.00  0.00    +0.000 A 
ENDBRANCH   7  15
ENDBRANCH   1   8
BRANCH   5  18
ATOM     18  S   UNL     1      -1.053  12.673  20.381  0.00  0.00    +0.000 S 
ATOM     19  O   UNL     1      -1.721  13.332  21.489  0.00  0.00    +0.000 OA
ATOM     20  O   UNL     1       0.068  13.331  19.746  0.00  0.00    +0.000 OA
BRANCH  18  21
ATOM     21  C   UNL     1      -2.303  12.276  19.177  0.00  0.00    +0.000 A 
ATOM     22  C   UNL     1      -1.864  11.819  17.919  0.00  0.00    +0.000 A 
ATOM     23  C   UNL     1      -2.778  11.324  16.998  0.00  0.00    +0.000 A 
ATOM     24  C   UNL     1      -4.122  11.254  17.342  0.00  0.00    +0.000 A 
ATOM     25  C   UNL     1      -4.560  11.687  18.604  0.00  0.00    +0.000 A 
ATOM     26  C   UNL     1      -5.909  11.547  18.959  0.00  0.00    +0.000 A 
ATOM     27  C   UNL     1      -6.343  11.940  20.216  0.00  0.00    +0.000 A 
ATOM     28  C   UNL     1      -5.414  12.499  21.064  0.00  0.00    +0.000 A 
ATOM     29  N   UNL     1      -4.114  12.672  20.738  0.00  0.00    +0.000 NA
ATOM     30  C   UNL     1      -3.654  12.235  19.545  0.00  0.00    +0.000 A 
ENDBRANCH  18  21
ENDBRANCH   5  18
TORSDOF 4
ENDMDL
MODEL 4
REMARK VINA RESULT:      -7.5      5.348      8.426
REMARK  Name = 
REMARK  5 active torsions:
REMARK  status: ('A' for Active; 'I' for Inactive)
REMARK    1  A    between atoms: C_1  and  C_2
REMARK    2  A    between atoms: C_5  and  N_6
REMARK    3  A    between atoms: C_7  and  C_9
REMARK    4  A    between atoms: N_13  and  S_14
REMARK    5  A    between atoms: S_14  and  C_17
REMARK                            x       y       z     vdW  Elec       q    Type
REMARK                         _______ _______ _______ _____ _____    ______ ____
ROOT
ATOM      1  C   UNL     1       7.296   5.755  18.423  0.00  0.00    +0.000 C 
ATOM      2  C   UNL     1       7.469   4.682  17.351  0.00  0.00    +0.000 C 
ATOM      3  C   UNL     1       6.354   4.733  16.317  0.00  0.00    +0.000 C 
ATOM      4  C   UNL     1       4.973   4.698  16.967  0.00  0.00    +0.000 C 
ATOM      5  N   UNL     1       4.814   5.770  18.012  0.00  0.00    +0.000 NA
ATOM      6  C   UNL     1       5.907   5.709  19.046  0.00  0.00    +0.000 C 
ENDROOT
BRANCH   1   8
ATOM      7  N   UNL     1       8.303   7.971  18.831  0.00  0.00    +0.000 N 
ATOM      8  C   UNL     1       7.729   7.125  17.901  0.00  0.00    +0.000 C 
ATOM      9  O   UNL     1       7.483   7.412  16.730  0.00  0.00    +0.000 OA
ATOM     10  H   UNL     1       8.609   7.549  19.706  0.00  0.00    +0.000 HD
BRANCH   7  15
ATOM     11  C   UNL     1       9.819  13.452  18.064  0.00  0.00    +0.000 C 
ATOM     12  C   UNL     1       9.402  12.025  18.270  0.00  0.00    +0.000 A 
ATOM     13  C   UNL     1       8.341  11.484  17.542  0.00  0.00    +0.000 A 
ATOM     14  C   UNL     1       7.966  10.149  17.720  0.00  0.00    +0.000 A 
ATOM     15  C   UNL     1       8.639   9.328  18.626  0.00  0.00    +0.000 A 
ATOM     16  C   UNL     1       9.683   9.877  19.379  0.00  0.00    +0.000 A 
ATOM     17  C   UNL     1      10.069  11.211  19.193  0.00  0.00    +0.000 A 
ENDBRANCH   7  15
ENDBRANCH   1   8
BRANCH   5  18
ATOM     18  S   UNL     1       3.236   5.704  18.790  0.00  0.00    +0.000 S 
ATOM     19  O   UNL     1       2.367   4.938  17.914  0.00  0.00    +0.000 OA
ATOM     20  O   UNL     1       3.421   5.261  20.156  0.00  0.00    +0.000 OA
BRANCH  18  21
ATOM     21  C   UNL     1       2.660   7.388  18.757  0.00  0.00    +0.000 A 
ATOM     22  C   UNL     1       2.953   8.146  17.607  0.00  0.00    +0.000 A 
ATOM     23  C   UNL     1       2.385   9.402  17.436  0.00  0.00    +0.000 A 
ATOM     24  C   UNL     1       1.503   9.887  18.393  0.00  0.00    +0.000 A 
ATOM     25  C   UNL     1       1.191   9.124  19.529  0.00  0.00    +0.000 A 
ATOM     26  C   UNL     1       0.248   9.600  20.451  0.00  0.00    +0.000 A 
ATOM     27  C   UNL     1      -0.093   8.836  21.557  0.00  0.00    +0.000 A 
ATOM     28  C   UNL     1       0.557   7.635  21.725  0.00  0.00    +0.000 A 
ATOM     29  N   UNL     1       1.491   7.164  20.868  0.00  0.00    +0.000 NA
ATOM     30  C   UNL     1       1.789   7.858  19.748  0.00  0.00    +0.000 A 
ENDBRANCH  18  21
ENDBRANCH   5  18
TORSDOF 4
ENDMDL
MODEL 5
REMARK VINA RESULT:      -7.5      4.295      5.697
REMARK  Name = 
REMARK  5 active torsions:
REMARK  status: ('A' for Active; 'I' for Inactive)
REMARK    1  A    between atoms: C_1  and  C_2
REMARK    2  A    between atoms: C_5  and  N_6
REMARK    3  A    between atoms: C_7  and  C_9
REMARK    4  A    between atoms: N_13  and  S_14
REMARK    5  A    between atoms: S_14  and  C_17
REMARK                            x       y       z     vdW  Elec       q    Type
REMARK                         _______ _______ _______ _____ _____    ______ ____
ROOT
ATOM      1  C   UNL     1      -1.603  13.844  21.745  0.00  0.00    +0.000 C 
ATOM      2  C   UNL     1      -0.882  12.853  22.655  0.00  0.00    +0.000 C 
ATOM      3  C   UNL     1      -1.757  11.651  22.984  0.00  0.00    +0.000 C 
ATOM      4  C   UNL     1      -3.118  12.071  23.532  0.00  0.00    +0.000 C 
ATOM      5  N   UNL     1      -3.821  13.039  22.616  0.00  0.00    +0.000 NA
ATOM      6  C   UNL     1      -2.963  14.237  22.305  0.00  0.00    +0.000 C 
ENDROOT
BRANCH   1   8
ATOM      7  N   UNL     1      -2.630  12.474  19.968  0.00  0.00    +0.000 N 
ATOM      8  C   UNL     1      -1.613  13.350  20.298  0.00  0.00    +0.000 C 
ATOM      9  O   UNL     1      -0.698  13.697  19.552  0.00  0.00    +0.000 OA
ATOM     10  H   UNL     1      -3.412  12.414  20.617  0.00  0.00    +0.000 HD
BRANCH   7  15
ATOM     11  C   UNL     1      -3.041   9.507  15.073  0.00  0.00    +0.000 C 
ATOM     12  C   UNL     1      -2.935  10.302  16.341  0.00  0.00    +0.000 A 
ATOM     13  C   UNL     1      -3.946  11.192  16.707  0.00  0.00    +0.000 A 
ATOM     14  C   UNL     1      -3.857  11.917  17.899  0.00  0.00    +0.000 A 
ATOM     15  C   UNL     1      -2.759  11.771  18.749  0.00  0.00    +0.000 A 
ATOM     16  C   UNL     1      -1.729  10.903  18.369  0.00  0.00    +0.000 A 
ATOM     17  C   UNL     1      -1.822  10.165  17.180  0.00  0.00    +0.000 A 
ENDBRANCH   7  15
ENDBRANCH   1   8
BRANCH   5  18
ATOM     18  S   UNL     1      -5.373  13.555  23.269  0.00  0.00    +0.000 S 
ATOM     19  O   UNL     1      -5.991  12.382  23.862  0.00  0.00    +0.000 OA
ATOM     20  O   UNL     1      -5.154  14.724  24.092  0.00  0.00    +0.000 OA
BRANCH  18  21
ATOM     21  C   UNL     1      -6.332  13.980  21.830  0.00  0.00    +0.000 A 
ATOM     22  C   UNL     1      -6.583  15.347  21.604  0.00  0.00    +0.000 A 
ATOM     23  C   UNL     1      -7.167  15.762  20.414  0.00  0.00    +0.000 A 
ATOM     24  C   UNL     1      -7.470  14.820  19.439  0.00  0.00    +0.000 A 
ATOM     25  C   UNL     1      -7.200  13.459  19.652  0.00  0.00    +0.000 A 
ATOM     26  C   UNL     1      -7.451  12.531  18.631  0.00  0.00    +0.000 A 
ATOM     27  C   UNL     1      -7.153  11.190  18.821  0.00  0.00    +0.000 A 
ATOM     28  C   UNL     1      -6.651  10.816  20.046  0.00  0.00    +0.000 A 
ATOM     29  N   UNL     1      -6.427  11.684  21.058  0.00  0.00    +0.000 NA
ATOM     30  C   UNL     1      -6.644  13.005  20.873  0.00  0.00    +0.000 A 
ENDBRANCH  18  21
ENDBRANCH   5  18
TORSDOF 4
ENDMDL
MODEL 6
REMARK VINA RESULT:      -7.5      4.323      7.654
REMARK  Name = 
REMARK  5 active torsions:
REMARK  status: ('A' for Active; 'I' for Inactive)
REMARK    1  A    between atoms: C_1  and  C_2
REMARK    2  A    between atoms: C_5  and  N_6
REMARK    3  A    between atoms: C_7  and  C_9
REMARK    4  A    between atoms: N_13  and  S_14
REMARK    5  A    between atoms: S_14  and  C_17
REMARK                            x       y       z     vdW  Elec       q    Type
REMARK                         _______ _______ _______ _____ _____    ______ ____
ROOT
ATOM      1  C   UNL     1       4.578   3.278  18.221  0.00  0.00    +0.000 C 
ATOM      2  C   UNL     1       3.783   1.993  18.010  0.00  0.00    +0.000 C 
ATOM      3  C   UNL     1       2.306   2.276  17.773  0.00  0.00    +0.000 C 
ATOM      4  C   UNL     1       1.714   3.162  18.866  0.00  0.00    +0.000 C 
ATOM      5  N   UNL     1       2.503   4.431  19.053  0.00  0.00    +0.000 NA
ATOM      6  C   UNL     1       3.961   4.151  19.306  0.00  0.00    +0.000 C 
ENDROOT
BRANCH   1   8
ATOM      7  N   UNL     1       5.687   3.328  16.016  0.00  0.00    +0.000 N 
ATOM      8  C   UNL     1       4.841   3.984  16.891  0.00  0.00    +0.000 C 
ATOM      9  O   UNL     1       4.353   5.099  16.710  0.00  0.00    +0.000 OA
ATOM     10  H   UNL     1       5.872   2.346  16.209  0.00  0.00    +0.000 HD
BRANCH   7  15
ATOM     11  C   UNL     1       7.884   5.491  11.177  0.00  0.00    +0.000 C 
ATOM     12  C   UNL     1       7.289   4.931  12.435  0.00  0.00    +0.000 A 
ATOM     13  C   UNL     1       6.327   3.922  12.377  0.00  0.00    +0.000 A 
ATOM     14  C   UNL     1       5.788   3.386  13.551  0.00  0.00    +0.000 A 
ATOM     15  C   UNL     1       6.196   3.846  14.804  0.00  0.00    +0.000 A 
ATOM     16  C   UNL     1       7.137   4.880  14.864  0.00  0.00    +0.000 A 
ATOM     17  C   UNL     1       7.688   5.409  13.689  0.00  0.00    +0.000 A 
ENDBRANCH   7  15
ENDBRANCH   1   8
BRANCH   5  18
ATOM     18  S   UNL     1       1.843   5.433  20.343  0.00  0.00    +0.000 S 
ATOM     19  O   UNL     1       0.439   5.085  20.469  0.00  0.00    +0.000 OA
ATOM     20  O   UNL     1       2.704   5.308  21.500  0.00  0.00    +0.000 OA
BRANCH  18  21
ATOM     21  C   UNL     1       1.916   7.088  19.691  0.00  0.00    +0.000 A 
ATOM     22  C   UNL     1       2.345   7.237  18.358  0.00  0.00    +0.000 A 
ATOM     23  C   UNL     1       2.255   8.473  17.731  0.00  0.00    +0.000 A 
ATOM     24  C   UNL     1       1.710   9.549  18.419  0.00  0.00    +0.000 A 
ATOM     25  C   UNL     1       1.260   9.398  19.740  0.00  0.00    +0.000 A 
ATOM     26  C   UNL     1       0.651  10.477  20.396  0.00  0.00    +0.000 A 
ATOM     27  C   UNL     1       0.171  10.326  21.688  0.00  0.00    +0.000 A 
ATOM     28  C   UNL     1       0.355   9.105  22.296  0.00  0.00    +0.000 A 
ATOM     29  N   UNL     1       0.964   8.056  21.699  0.00  0.00    +0.000 NA
ATOM     30  C   UNL     1       1.378   8.159  20.417  0.00  0.00    +0.000 A 
ENDBRANCH  18  21
ENDBRANCH   5  18
TORSDOF 4
ENDMDL
MODEL 7
REMARK VINA RESULT:      -7.3      3.185      6.357
REMARK  Name = 
REMARK  5 active torsions:
REMARK  status: ('A' for Active; 'I' for Inactive)
REMARK    1  A    between atoms: C_1  and  C_2
REMARK    2  A    between atoms: C_5  and  N_6
REMARK    3  A    between atoms: C_7  and  C_9
REMARK    4  A    between atoms: N_13  and  S_14
REMARK    5  A    between atoms: S_14  and  C_17
REMARK                            x       y       z     vdW  Elec       q    Type
REMARK                         _______ _______ _______ _____ _____    ______ ____
ROOT
ATOM      1  C   UNL     1      -4.467  13.650  21.449  0.00  0.00    +0.000 C 
ATOM      2  C   UNL     1      -4.667  15.152  21.270  0.00  0.00    +0.000 C 
ATOM      3  C   UNL     1      -3.450  15.811  20.634  0.00  0.00    +0.000 C 
ATOM      4  C   UNL     1      -2.164  15.473  21.384  0.00  0.00    +0.000 C 
ATOM      5  N   UNL     1      -1.977  13.987  21.542  0.00  0.00    +0.000 NA
ATOM      6  C   UNL     1      -3.172  13.338  22.187  0.00  0.00    +0.000 C 
ENDROOT
BRANCH   1   8
ATOM      7  N   UNL     1      -3.522  12.318  19.598  0.00  0.00    +0.000 N 
ATOM      8  C   UNL     1      -4.655  12.911  20.124  0.00  0.00    +0.000 C 
ATOM      9  O   UNL     1      -5.759  12.947  19.581  0.00  0.00    +0.000 OA
ATOM     10  H   UNL     1      -2.729  12.209  20.227  0.00  0.00    +0.000 HD
BRANCH   7  15
ATOM     11  C   UNL     1      -2.949   9.786  14.481  0.00  0.00    +0.000 C 
ATOM     12  C   UNL     1      -3.104  10.468  15.809  0.00  0.00    +0.000 A 
ATOM     13  C   UNL     1      -4.297  11.109  16.142  0.00  0.00    +0.000 A 
ATOM     14  C   UNL     1      -4.448  11.726  17.388  0.00  0.00    +0.000 A 
ATOM     15  C   UNL     1      -3.412  11.717  18.324  0.00  0.00    +0.000 A 
ATOM     16  C   UNL     1      -2.203  11.102  17.980  0.00  0.00    +0.000 A 
ATOM     17  C   UNL     1      -2.055  10.471  16.736  0.00  0.00    +0.000 A 
ENDBRANCH   7  15
ENDBRANCH   1   8
BRANCH   5  18
ATOM     18  S   UNL     1      -0.514  13.600  22.443  0.00  0.00    +0.000 S 
ATOM     19  O   UNL     1       0.566  14.361  21.840  0.00  0.00    +0.000 OA
ATOM     20  O   UNL     1      -0.790  13.771  23.853  0.00  0.00    +0.000 OA
BRANCH  18  21
ATOM     21  C   UNL     1      -0.214  11.884  22.074  0.00  0.00    +0.000 A 
ATOM     22  C   UNL     1      -0.780  10.930  22.941  0.00  0.00    +0.000 A 
ATOM     23  C   UNL     1      -0.740   9.580  22.616  0.00  0.00    +0.000 A 
ATOM     24  C   UNL     1      -0.165   9.186  21.415  0.00  0.00    +0.000 A 
ATOM     25  C   UNL     1       0.380  10.136  20.537  0.00  0.00    +0.000 A 
ATOM     26  C   UNL     1       0.895   9.727  19.299  0.00  0.00    +0.000 A 
ATOM     27  C   UNL     1       1.402  10.663  18.411  0.00  0.00    +0.000 A 
ATOM     28  C   UNL     1       1.413  11.979  18.813  0.00  0.00    +0.000 A 
ATOM     29  N   UNL     1       0.950  12.399  20.011  0.00  0.00    +0.000 NA
ATOM     30  C   UNL     1       0.388  11.515  20.864  0.00  0.00    +0.000 A 
ENDBRANCH  18  21
ENDBRANCH   5  18
TORSDOF 4
ENDMDL
MODEL 8
REMARK VINA RESULT:      -7.3      4.211      6.802
REMARK  Name = 
REMARK  5 active torsions:
REMARK  status: ('A' for Active; 'I' for Inactive)
REMARK    1  A    between atoms: C_1  and  C_2
REMARK    2  A    between atoms: C_5  and  N_6
REMARK    3  A    between atoms: C_7  and  C_9
REMARK    4  A    between atoms: N_13  and  S_14
REMARK    5  A    between atoms: S_14  and  C_17
REMARK                            x       y       z     vdW  Elec       q    Type
REMARK                         _______ _______ _______ _____ _____    ______ ____
ROOT
ATOM      1  C   UNL     1      -2.469   9.682  17.499  0.00  0.00    +0.000 C 
ATOM      2  C   UNL     1      -2.617   9.803  15.984  0.00  0.00    +0.000 C 
ATOM      3  C   UNL     1      -3.097  11.188  15.574  0.00  0.00    +0.000 C 
ATOM      4  C   UNL     1      -4.362  11.597  16.323  0.00  0.00    +0.000 C 
ATOM      5  N   UNL     1      -4.195  11.484  17.816  0.00  0.00    +0.000 NA
ATOM      6  C   UNL     1      -3.738  10.109  18.225  0.00  0.00    +0.000 C 
ENDROOT
BRANCH   1   8
ATOM      7  N   UNL     1      -1.345  11.595  18.580  0.00  0.00    +0.000 N 
ATOM      8  C   UNL     1      -1.186  10.361  17.979  0.00  0.00    +0.000 C 
ATOM      9  O   UNL     1      -0.108   9.815  17.743  0.00  0.00    +0.000 OA
ATOM     10  H   UNL     1      -2.288  11.844  18.871  0.00  0.00    +0.000 HD
BRANCH   7  15
ATOM     11  C   UNL     1       2.771  15.295  20.096  0.00  0.00    +0.000 C 
ATOM     12  C   UNL     1       1.710  14.314  19.691  0.00  0.00    +0.000 A 
ATOM     13  C   UNL     1       1.758  12.993  20.138  0.00  0.00    +0.000 A 
ATOM     14  C   UNL     1       0.758  12.085  19.776  0.00  0.00    +0.000 A 
ATOM     15  C   UNL     1      -0.308  12.475  18.962  0.00  0.00    +0.000 A 
ATOM     16  C   UNL     1      -0.340  13.791  18.488  0.00  0.00    +0.000 A 
ATOM     17  C   UNL     1       0.654  14.707  18.859  0.00  0.00    +0.000 A 
ENDBRANCH   7  15
ENDBRANCH   1   8
BRANCH   5  18
ATOM     18  S   UNL     1      -5.668  11.917  18.679  0.00  0.00    +0.000 S 
ATOM     19  O   UNL     1      -6.227  13.074  18.002  0.00  0.00    +0.000 OA
ATOM     20  O   UNL     1      -6.479  10.727  18.818  0.00  0.00    +0.000 OA
BRANCH  18  21
ATOM     21  C   UNL     1      -5.096  12.469  20.271  0.00  0.00    +0.000 A 
ATOM     22  C   UNL     1      -3.879  13.176  20.309  0.00  0.00    +0.000 A 
ATOM     23  C   UNL     1      -3.463  13.788  21.485  0.00  0.00    +0.000 A 
ATOM     24  C   UNL     1      -4.274  13.723  22.611  0.00  0.00    +0.000 A 
ATOM     25  C   UNL     1      -5.499  13.038  22.570  0.00  0.00    +0.000 A 
ATOM     26  C   UNL     1      -6.336  13.038  23.695  0.00  0.00    +0.000 A 
ATOM     27  C   UNL     1      -7.563  12.394  23.651  0.00  0.00    +0.000 A 
ATOM     28  C   UNL     1      -7.894  11.735  22.490  0.00  0.00    +0.000 A 
ATOM     29  N   UNL     1      -7.095  11.693  21.400  0.00  0.00    +0.000 NA
ATOM     30  C   UNL     1      -5.926  12.370  21.396  0.00  0.00    +0.000 A 
ENDBRANCH  18  21
ENDBRANCH   5  18
TORSDOF 4
ENDMDL
MODEL 9
REMARK VINA RESULT:      -7.3      1.942      7.148
REMARK  Name = 
REMARK  5 active torsions:
REMARK  status: ('A' for Active; 'I' for Inactive)
REMARK    1  A    between atoms: C_1  and  C_2
REMARK    2  A    between atoms: C_5  and  N_6
REMARK    3  A    between atoms: C_7  and  C_9
REMARK    4  A    between atoms: N_13  and  S_14
REMARK    5  A    between atoms: S_14  and  C_17
REMARK                            x       y       z     vdW  Elec       q    Type
REMARK                         _______ _______ _______ _____ _____    ______ ____
ROOT
ATOM      1  C   UNL     1      -1.126  12.166  20.774  0.00  0.00    +0.000 C 
ATOM      2  C   UNL     1       0.020  13.161  20.937  0.00  0.00    +0.000 C 
ATOM      3  C   UNL     1       1.313  12.636  20.328  0.00  0.00    +0.000 C 
ATOM      4  C   UNL     1       1.663  11.245  20.849  0.00  0.00    +0.000 C 
ATOM      5  N   UNL     1       0.527  10.273  20.670  0.00  0.00    +0.000 NA
ATOM      6  C   UNL     1      -0.748  10.783  21.288  0.00  0.00    +0.000 C 
ENDROOT
BRANCH   1   8
ATOM      7  N   UNL     1      -2.246  11.024  18.895  0.00  0.00    +0.000 N 
ATOM      8  C   UNL     1      -1.683  12.201  19.351  0.00  0.00    +0.000 C 
ATOM      9  O   UNL     1      -1.538  13.227  18.688  0.00  0.00    +0.000 OA
ATOM     10  H   UNL     1      -2.463  10.318  19.596  0.00  0.00    +0.000 HD
BRANCH   7  15
ATOM     11  C   UNL     1      -4.118  10.121  13.546  0.00  0.00    +0.000 C 
ATOM     12  C   UNL     1      -3.630  10.335  14.949  0.00  0.00    +0.000 A 
ATOM     13  C   UNL     1      -2.476   9.696  15.403  0.00  0.00    +0.000 A 
ATOM     14  C   UNL     1      -2.010   9.912  16.704  0.00  0.00    +0.000 A 
ATOM     15  C   UNL     1      -2.685  10.767  17.577  0.00  0.00    +0.000 A 
ATOM     16  C   UNL     1      -3.860  11.385  17.133  0.00  0.00    +0.000 A 
ATOM     17  C   UNL     1      -4.322  11.180  15.825  0.00  0.00    +0.000 A 
ENDBRANCH   7  15
ENDBRANCH   1   8
BRANCH   5  18
ATOM     18  S   UNL     1       0.917   8.678  21.309  0.00  0.00    +0.000 S 
ATOM     19  O   UNL     1       1.947   8.869  22.315  0.00  0.00    +0.000 OA
ATOM     20  O   UNL     1      -0.319   8.025  21.684  0.00  0.00    +0.000 OA
BRANCH  18  21
ATOM     21  C   UNL     1       1.675   7.832  19.938  0.00  0.00    +0.000 A 
ATOM     22  C   UNL     1       2.060   8.613  18.832  0.00  0.00    +0.000 A 
ATOM     23  C   UNL     1       2.814   8.051  17.809  0.00  0.00    +0.000 A 
ATOM     24  C   UNL     1       3.210   6.724  17.905  0.00  0.00    +0.000 A 
ATOM     25  C   UNL     1       2.847   5.948  19.018  0.00  0.00    +0.000 A 
ATOM     26  C   UNL     1       3.312   4.630  19.131  0.00  0.00    +0.000 A 
ATOM     27  C   UNL     1       2.988   3.870  20.244  0.00  0.00    +0.000 A 
ATOM     28  C   UNL     1       2.172   4.444  21.191  0.00  0.00    +0.000 A 
ATOM     29  N   UNL     1       1.686   5.702  21.095  0.00  0.00    +0.000 NA
ATOM     30  C   UNL     1       2.044   6.485  20.054  0.00  0.00    +0.000 A 
ENDBRANCH  18  21
ENDBRANCH   5  18
TORSDOF 4
ENDMDL
