MODEL 1
REMARK VINA RESULT:      -8.2      0.000      0.000
REMARK  Name = 
REMARK  11 active torsions:
REMARK  status: ('A' for Active; 'I' for Inactive)
REMARK    1  A    between atoms: C_1  and  O_2
REMARK    2  A    between atoms: O_2  and  C_3
REMARK    3  A    between atoms: C_6  and  N_7
REMARK    4  A    between atoms: C_8  and  C_10
REMARK    5  A    between atoms: C_10  and  O_11
REMARK    6  A    between atoms: O_11  and  C_12
REMARK    7  A    between atoms: C_15  and  N_16
REMARK    8  A    between atoms: N_16  and  C_17
REMARK    9  A    between atoms: N_16  and  S_18
REMARK   10  A    between atoms: S_18  and  C_21
REMARK   11  A    between atoms: C_24  and  C_25
REMARK                            x       y       z     vdW  Elec       q    Type
REMARK                         _______ _______ _______ _____ _____    ______ ____
ROOT
ATOM      1  C   UNL     1       6.638   5.932  17.383  0.00  0.00    +0.000 A 
ATOM      2  C   UNL     1       6.079   5.126  16.394  0.00  0.00    +0.000 A 
ATOM      3  C   UNL     1       5.216   4.089  16.739  0.00  0.00    +0.000 A 
ATOM      4  C   UNL     1       4.925   3.843  18.079  0.00  0.00    +0.000 A 
ATOM      5  C   UNL     1       5.512   4.627  19.078  0.00  0.00    +0.000 A 
ATOM      6  C   UNL     1       6.374   5.672  18.728  0.00  0.00    +0.000 A 
ENDROOT
BRANCH   4   7
ATOM      7  N   UNL     1       3.979   2.832  18.443  0.00  0.00    +0.000 N 
ATOM      8  C   UNL     1       4.345   1.989  19.595  0.00  0.00    +0.000 C 
BRANCH   7   9
ATOM      9  S   UNL     1       2.320   3.159  18.203  0.00  0.00    +0.000 S 
ATOM     10  O   UNL     1       2.073   3.313  16.782  0.00  0.00    +0.000 OA
ATOM     11  O   UNL     1       1.569   2.186  18.975  0.00  0.00    +0.000 OA
BRANCH   9  12
ATOM     12  C   UNL     1       2.010   4.756  18.960  0.00  0.00    +0.000 A 
ATOM     13  C   UNL     1       1.679   4.835  20.318  0.00  0.00    +0.000 A 
ATOM     14  C   UNL     1       1.524   6.086  20.930  0.00  0.00    +0.000 A 
ATOM     15  C   UNL     1       1.727   7.268  20.204  0.00  0.00    +0.000 A 
ATOM     16  C   UNL     1       1.564   8.612  20.857  0.00  0.00    +0.000 C 
ATOM     17  C   UNL     1       2.125   7.178  18.864  0.00  0.00    +0.000 A 
ATOM     18  C   UNL     1       2.267   5.930  18.243  0.00  0.00    +0.000 A 
ENDBRANCH   9  12
ENDBRANCH   7   9
ENDBRANCH   4   7
BRANCH   1  19
ATOM     19  O   UNL     1       7.460   6.996  17.123  0.00  0.00    +0.000 OA
BRANCH  19  20
ATOM     20  C   UNL     1       8.182   7.456  18.265  0.00  0.00    +0.000 C 
BRANCH  20  22
ATOM     21  N   UNL     1       9.243   9.456  19.122  0.00  0.00    +0.000 N 
ATOM     22  C   UNL     1       8.279   8.970  18.256  0.00  0.00    +0.000 C 
ATOM     23  O   UNL     1       7.580   9.626  17.493  0.00  0.00    +0.000 OA
ATOM     24  H   UNL     1       9.852   8.770  19.553  0.00  0.00    +0.000 HD
BRANCH  21  28
ATOM     25  C   UNL     1       9.952  13.536  19.849  0.00  0.00    +0.000 A 
ATOM     26  C   UNL     1       9.629  12.691  20.904  0.00  0.00    +0.000 A 
ATOM     27  C   UNL     1       9.403  11.339  20.681  0.00  0.00    +0.000 A 
ATOM     28  C   UNL     1       9.484  10.815  19.392  0.00  0.00    +0.000 A 
ATOM     29  C   UNL     1       9.837  11.650  18.331  0.00  0.00    +0.000 A 
ATOM     30  C   UNL     1      10.053  13.015  18.556  0.00  0.00    +0.000 A 
BRANCH  25  32
ATOM     31  C   UNL     1      11.452  15.257  20.445  0.00  0.00    +0.000 C 
ATOM     32  O   UNL     1      10.116  14.848  20.191  0.00  0.00    +0.000 OA
ENDBRANCH  25  32
ENDBRANCH  21  28
ENDBRANCH  20  22
ENDBRANCH  19  20
ENDBRANCH   1  19
TORSDOF 8
ENDMDL
MODEL 2
REMARK VINA RESULT:      -8.1      0.450      1.302
REMARK  Name = 
REMARK  11 active torsions:
REMARK  status: ('A' for Active; 'I' for Inactive)
REMARK    1  A    between atoms: C_1  and  O_2
REMARK    2  A    between atoms: O_2  and  C_3
REMARK    3  A    between atoms: C_6  and  N_7
REMARK    4  A    between atoms: C_8  and  C_10
REMARK    5  A    between atoms: C_10  and  O_11
REMARK    6  A    between atoms: O_11  and  C_12
REMARK    7  A    between atoms: C_15  and  N_16
REMARK    8  A    between atoms: N_16  and  C_17
REMARK    9  A    between atoms: N_16  and  S_18
REMARK   10  A    between atoms: S_18  and  C_21
REMARK   11  A    between atoms: C_24  and  C_25
REMARK                            x       y       z     vdW  Elec       q    Type
REMARK                         _______ _______ _______ _____ _____    ______ ____
ROOT
ATOM      1  C   UNL     1       6.790   5.785  17.707  0.00  0.00    +0.000 A 
ATOM      2  C   UNL     1       6.413   5.427  19.000  0.00  0.00    +0.000 A 
ATOM      3  C   UNL     1       5.440   4.451  19.202  0.00  0.00    +0.000 A 
ATOM      4  C   UNL     1       4.828   3.843  18.108  0.00  0.00    +0.000 A 
ATOM      5  C   UNL     1       5.177   4.224  16.809  0.00  0.00    +0.000 A 
ATOM      6  C   UNL     1       6.159   5.200  16.608  0.00  0.00    +0.000 A 
ENDROOT
BRANCH   4   7
ATOM      7  N   UNL     1       3.885   2.783  18.301  0.00  0.00    +0.000 N 
ATOM      8  C   UNL     1       4.245   1.773  19.312  0.00  0.00    +0.000 C 
BRANCH   7   9
ATOM      9  S   UNL     1       2.225   3.135  18.100  0.00  0.00    +0.000 S 
ATOM     10  O   UNL     1       1.957   3.334  16.688  0.00  0.00    +0.000 OA
ATOM     11  O   UNL     1       1.477   2.149  18.856  0.00  0.00    +0.000 OA
BRANCH   9  12
ATOM     12  C   UNL     1       1.948   4.714  18.907  0.00  0.00    +0.000 A 
ATOM     13  C   UNL     1       1.624   4.756  20.268  0.00  0.00    +0.000 A 
ATOM     14  C   UNL     1       1.494   5.989  20.919  0.00  0.00    +0.000 A 
ATOM     15  C   UNL     1       1.715   7.190  20.230  0.00  0.00    +0.000 A 
ATOM     16  C   UNL     1       1.578   8.516  20.925  0.00  0.00    +0.000 C 
ATOM     17  C   UNL     1       2.106   7.135  18.886  0.00  0.00    +0.000 A 
ATOM     18  C   UNL     1       2.223   5.904  18.225  0.00  0.00    +0.000 A 
ENDBRANCH   9  12
ENDBRANCH   7   9
ENDBRANCH   4   7
BRANCH   1  19
ATOM     19  O   UNL     1       7.766   6.702  17.426  0.00  0.00    +0.000 OA
BRANCH  19  20
ATOM     20  C   UNL     1       8.306   7.340  18.583  0.00  0.00    +0.000 C 
BRANCH  20  22
ATOM     21  N   UNL     1       9.324   9.456  19.173  0.00  0.00    +0.000 N 
ATOM     22  C   UNL     1       8.373   8.842  18.376  0.00  0.00    +0.000 C 
ATOM     23  O   UNL     1       7.667   9.379  17.531  0.00  0.00    +0.000 OA
ATOM     24  H   UNL     1       9.944   8.844  19.693  0.00  0.00    +0.000 HD
BRANCH  21  28
ATOM     25  C   UNL     1       9.973  13.595  19.529  0.00  0.00    +0.000 A 
ATOM     26  C   UNL     1      10.142  12.971  18.299  0.00  0.00    +0.000 A 
ATOM     27  C   UNL     1       9.920  11.607  18.163  0.00  0.00    +0.000 A 
ATOM     28  C   UNL     1       9.538  10.843  19.264  0.00  0.00    +0.000 A 
ATOM     29  C   UNL     1       9.337  11.465  20.498  0.00  0.00    +0.000 A 
ATOM     30  C   UNL     1       9.572  12.839  20.635  0.00  0.00    +0.000 A 
BRANCH  25  32
ATOM     31  C   UNL     1      11.024  15.410  18.448  0.00  0.00    +0.000 C 
ATOM     32  O   UNL     1      10.254  14.931  19.541  0.00  0.00    +0.000 OA
ENDBRANCH  25  32
ENDBRANCH  21  28
ENDBRANCH  20  22
ENDBRANCH  19  20
ENDBRANCH   1  19
TORSDOF 8
ENDMDL
MODEL 3
REMARK VINA RESULT:      -8.0      0.845      1.245
REMARK  Name = 
REMARK  11 active torsions:
REMARK  status: ('A' for Active; 'I' for Inactive)
REMARK    1  A    between atoms: C_1  and  O_2
REMARK    2  A    between atoms: O_2  and  C_3
REMARK    3  A    between atoms: C_6  and  N_7
REMARK    4  A    between atoms: C_8  and  C_10
REMARK    5  A    between atoms: C_10  and  O_11
REMARK    6  A    between atoms: O_11  and  C_12
REMARK    7  A    between atoms: C_15  and  N_16
REMARK    8  A    between atoms: N_16  and  C_17
REMARK    9  A    between atoms: N_16  and  S_18
REMARK   10  A    between atoms: S_18  and  C_21
REMARK   11  A    between atoms: C_24  and  C_25
REMARK                            x       y       z     vdW  Elec       q    Type
REMARK                         _______ _______ _______ _____ _____    ______ ____
ROOT
ATOM      1  C   UNL     1       6.693   5.419  17.241  0.00  0.00    +0.000 A 
ATOM      2  C   UNL     1       5.891   4.815  16.275  0.00  0.00    +0.000 A 
ATOM      3  C   UNL     1       4.905   3.908  16.650  0.00  0.00    +0.000 A 
ATOM      4  C   UNL     1       4.730   3.587  17.995  0.00  0.00    +0.000 A 
ATOM      5  C   UNL     1       5.556   4.163  18.965  0.00  0.00    +0.000 A 
ATOM      6  C   UNL     1       6.543   5.079  18.586  0.00  0.00    +0.000 A 
ENDROOT
BRANCH   4   7
ATOM      7  N   UNL     1       3.669   2.716  18.401  0.00  0.00    +0.000 N 
ATOM      8  C   UNL     1       3.970   1.809  19.523  0.00  0.00    +0.000 C 
BRANCH   7   9
ATOM      9  S   UNL     1       2.063   3.283  18.259  0.00  0.00    +0.000 S 
ATOM     10  O   UNL     1       1.789   3.567  16.863  0.00  0.00    +0.000 OA
ATOM     11  O   UNL     1       1.213   2.372  19.001  0.00  0.00    +0.000 OA
BRANCH   9  12
ATOM     12  C   UNL     1       2.008   4.852  19.128  0.00  0.00    +0.000 A 
ATOM     13  C   UNL     1       2.331   6.037  18.455  0.00  0.00    +0.000 A 
ATOM     14  C   UNL     1       2.203   7.270  19.107  0.00  0.00    +0.000 A 
ATOM     15  C   UNL     1       1.724   7.337  20.423  0.00  0.00    +0.000 A 
ATOM     16  C   UNL     1       1.583   8.659  21.127  0.00  0.00    +0.000 C 
ATOM     17  C   UNL     1       1.339   6.152  21.064  0.00  0.00    +0.000 A 
ATOM     18  C   UNL     1       1.479   4.915  20.422  0.00  0.00    +0.000 A 
ENDBRANCH   9  12
ENDBRANCH   7   9
ENDBRANCH   4   7
BRANCH   1  19
ATOM     19  O   UNL     1       7.654   6.352  16.958  0.00  0.00    +0.000 OA
BRANCH  19  20
ATOM     20  C   UNL     1       7.212   7.700  17.121  0.00  0.00    +0.000 C 
BRANCH  20  22
ATOM     21  N   UNL     1       8.149   9.811  17.846  0.00  0.00    +0.000 N 
ATOM     22  C   UNL     1       8.128   8.446  18.073  0.00  0.00    +0.000 C 
ATOM     23  O   UNL     1       8.714   7.841  18.963  0.00  0.00    +0.000 OA
ATOM     24  H   UNL     1       7.473  10.171  17.182  0.00  0.00    +0.000 HD
BRANCH  21  28
ATOM     25  C   UNL     1      10.609  12.630  19.766  0.00  0.00    +0.000 A 
ATOM     26  C   UNL     1      10.133  11.532  20.472  0.00  0.00    +0.000 A 
ATOM     27  C   UNL     1       9.329  10.586  19.849  0.00  0.00    +0.000 A 
ATOM     28  C   UNL     1       8.977  10.734  18.508  0.00  0.00    +0.000 A 
ATOM     29  C   UNL     1       9.475  11.819  17.782  0.00  0.00    +0.000 A 
ATOM     30  C   UNL     1      10.276  12.776  18.415  0.00  0.00    +0.000 A 
BRANCH  25  32
ATOM     31  C   UNL     1      11.025  14.876  20.355  0.00  0.00    +0.000 C 
ATOM     32  O   UNL     1      11.360  13.503  20.497  0.00  0.00    +0.000 OA
ENDBRANCH  25  32
ENDBRANCH  21  28
ENDBRANCH  20  22
ENDBRANCH  19  20
ENDBRANCH   1  19
TORSDOF 8
ENDMDL
MODEL 4
REMARK VINA RESULT:      -8.0      4.702      8.630
REMARK  Name = 
REMARK  11 active torsions:
REMARK  status: ('A' for Active; 'I' for Inactive)
REMARK    1  A    between atoms: C_1  and  O_2
REMARK    2  A    between atoms: O_2  and  C_3
REMARK    3  A    between atoms: C_6  and  N_7
REMARK    4  A    between atoms: C_8  and  C_10
REMARK    5  A    between atoms: C_10  and  O_11
REMARK    6  A    between atoms: O_11  and  C_12
REMARK    7  A    between atoms: C_15  and  N_16
REMARK    8  A    between atoms: N_16  and  C_17
REMARK    9  A    between atoms: N_16  and  S_18
REMARK   10  A    between atoms: S_18  and  C_21
REMARK   11  A    between atoms: C_24  and  C_25
REMARK                            x       y       z     vdW  Elec       q    Type
REMARK                         _______ _______ _______ _____ _____    ______ ____
ROOT
ATOM      1  C   UNL     1       1.822   7.456  19.519  0.00  0.00    +0.000 A 
ATOM      2  C   UNL     1       2.017   6.871  18.269  0.00  0.00    +0.000 A 
ATOM      3  C   UNL     1       2.193   5.495  18.160  0.00  0.00    +0.000 A 
ATOM      4  C   UNL     1       2.193   4.700  19.304  0.00  0.00    +0.000 A 
ATOM      5  C   UNL     1       2.033   5.286  20.563  0.00  0.00    +0.000 A 
ATOM      6  C   UNL     1       1.850   6.669  20.671  0.00  0.00    +0.000 A 
ENDROOT
BRANCH   4   7
ATOM      7  N   UNL     1       2.293   3.276  19.198  0.00  0.00    +0.000 N 
ATOM      8  C   UNL     1       1.111   2.582  18.657  0.00  0.00    +0.000 C 
BRANCH   7   9
ATOM      9  S   UNL     1       3.825   2.600  18.859  0.00  0.00    +0.000 S 
ATOM     10  O   UNL     1       4.367   2.032  20.079  0.00  0.00    +0.000 OA
ATOM     11  O   UNL     1       3.685   1.781  17.669  0.00  0.00    +0.000 OA
BRANCH   9  12
ATOM     12  C   UNL     1       4.889   3.973  18.409  0.00  0.00    +0.000 A 
ATOM     13  C   UNL     1       5.580   4.678  19.401  0.00  0.00    +0.000 A 
ATOM     14  C   UNL     1       6.478   5.692  19.043  0.00  0.00    +0.000 A 
ATOM     15  C   UNL     1       6.719   5.992  17.695  0.00  0.00    +0.000 A 
ATOM     16  C   UNL     1       7.683   7.078  17.307  0.00  0.00    +0.000 C 
ATOM     17  C   UNL     1       6.074   5.235  16.709  0.00  0.00    +0.000 A 
ATOM     18  C   UNL     1       5.164   4.229  17.060  0.00  0.00    +0.000 A 
ENDBRANCH   9  12
ENDBRANCH   7   9
ENDBRANCH   4   7
BRANCH   1  19
ATOM     19  O   UNL     1       1.599   8.794  19.706  0.00  0.00    +0.000 OA
BRANCH  19  20
ATOM     20  C   UNL     1       1.687   9.564  18.508  0.00  0.00    +0.000 C 
BRANCH  20  22
ATOM     21  N   UNL     1      -0.661   9.789  17.963  0.00  0.00    +0.000 N 
ATOM     22  C   UNL     1       0.475  10.467  18.368  0.00  0.00    +0.000 C 
ATOM     23  O   UNL     1       0.557  11.655  18.657  0.00  0.00    +0.000 OA
ATOM     24  H   UNL     1      -0.599   8.777  17.934  0.00  0.00    +0.000 HD
BRANCH  21  28
ATOM     25  C   UNL     1      -4.354  11.613  17.120  0.00  0.00    +0.000 A 
ATOM     26  C   UNL     1      -3.682  10.919  16.122  0.00  0.00    +0.000 A 
ATOM     27  C   UNL     1      -2.467  10.302  16.388  0.00  0.00    +0.000 A 
ATOM     28  C   UNL     1      -1.899  10.382  17.658  0.00  0.00    +0.000 A 
ATOM     29  C   UNL     1      -2.581  11.053  18.675  0.00  0.00    +0.000 A 
ATOM     30  C   UNL     1      -3.801  11.684  18.402  0.00  0.00    +0.000 A 
BRANCH  25  32
ATOM     31  C   UNL     1      -6.580  12.170  17.669  0.00  0.00    +0.000 C 
ATOM     32  O   UNL     1      -5.520  12.204  16.725  0.00  0.00    +0.000 OA
ENDBRANCH  25  32
ENDBRANCH  21  28
ENDBRANCH  20  22
ENDBRANCH  19  20
ENDBRANCH   1  19
TORSDOF 8
ENDMDL
MODEL 5
REMARK VINA RESULT:      -7.8      4.543      7.342
REMARK  Name = 
REMARK  11 active torsions:
REMARK  status: ('A' for Active; 'I' for Inactive)
REMARK    1  A    between atoms: C_1  and  O_2
REMARK    2  A    between atoms: O_2  and  C_3
REMARK    3  A    between atoms: C_6  and  N_7
REMARK    4  A    between atoms: C_8  and  C_10
REMARK    5  A    between atoms: C_10  and  O_11
REMARK    6  A    between atoms: O_11  and  C_12
REMARK    7  A    between atoms: C_15  and  N_16
REMARK    8  A    between atoms: N_16  and  C_17
REMARK    9  A    between atoms: N_16  and  S_18
REMARK   10  A    between atoms: S_18  and  C_21
REMARK   11  A    between atoms: C_24  and  C_25
REMARK                            x       y       z     vdW  Elec       q    Type
REMARK                         _______ _______ _______ _____ _____    ______ ____
ROOT
ATOM      1  C   UNL     1       2.111   7.464  19.226  0.00  0.00    +0.000 A 
ATOM      2  C   UNL     1       2.046   6.788  20.442  0.00  0.00    +0.000 A 
ATOM      3  C   UNL     1       2.032   5.397  20.472  0.00  0.00    +0.000 A 
ATOM      4  C   UNL     1       2.065   4.675  19.280  0.00  0.00    +0.000 A 
ATOM      5  C   UNL     1       2.095   5.349  18.055  0.00  0.00    +0.000 A 
ATOM      6  C   UNL     1       2.115   6.747  18.028  0.00  0.00    +0.000 A 
ENDROOT
BRANCH   4   7
ATOM      7  N   UNL     1       2.132   3.246  19.299  0.00  0.00    +0.000 N 
ATOM      8  C   UNL     1       1.045   2.538  18.599  0.00  0.00    +0.000 C 
BRANCH   7   9
ATOM      9  S   UNL     1       3.674   2.511  19.301  0.00  0.00    +0.000 S 
ATOM     10  O   UNL     1       4.074   2.263  20.673  0.00  0.00    +0.000 OA
ATOM     11  O   UNL     1       3.639   1.424  18.340  0.00  0.00    +0.000 OA
BRANCH   9  12
ATOM     12  C   UNL     1       4.811   3.734  18.643  0.00  0.00    +0.000 A 
ATOM     13  C   UNL     1       4.987   3.853  17.259  0.00  0.00    +0.000 A 
ATOM     14  C   UNL     1       5.806   4.865  16.742  0.00  0.00    +0.000 A 
ATOM     15  C   UNL     1       6.431   5.786  17.594  0.00  0.00    +0.000 A 
ATOM     16  C   UNL     1       7.310   6.875  17.043  0.00  0.00    +0.000 C 
ATOM     17  C   UNL     1       6.193   5.701  18.972  0.00  0.00    +0.000 A 
ATOM     18  C   UNL     1       5.387   4.682  19.497  0.00  0.00    +0.000 A 
ENDBRANCH   9  12
ENDBRANCH   7   9
ENDBRANCH   4   7
BRANCH   1  19
ATOM     19  O   UNL     1       2.171   8.827  19.114  0.00  0.00    +0.000 OA
BRANCH  19  20
ATOM     20  C   UNL     1       1.191   9.375  18.233  0.00  0.00    +0.000 C 
BRANCH  20  22
ATOM     21  N   UNL     1       0.748  10.614  20.266  0.00  0.00    +0.000 N 
ATOM     22  C   UNL     1       0.379  10.443  18.943  0.00  0.00    +0.000 C 
ATOM     23  O   UNL     1      -0.463  11.086  18.328  0.00  0.00    +0.000 OA
ATOM     24  H   UNL     1       1.581  10.122  20.571  0.00  0.00    +0.000 HD
BRANCH  21  28
ATOM     25  C   UNL     1      -1.185  13.075  23.074  0.00  0.00    +0.000 A 
ATOM     26  C   UNL     1      -0.313  13.634  22.148  0.00  0.00    +0.000 A 
ATOM     27  C   UNL     1       0.324  12.836  21.207  0.00  0.00    +0.000 A 
ATOM     28  C   UNL     1       0.107  11.459  21.188  0.00  0.00    +0.000 A 
ATOM     29  C   UNL     1      -0.790  10.892  22.096  0.00  0.00    +0.000 A 
ATOM     30  C   UNL     1      -1.423  11.697  23.050  0.00  0.00    +0.000 A 
BRANCH  25  32
ATOM     31  C   UNL     1      -1.067  15.214  24.062  0.00  0.00    +0.000 C 
ATOM     32  O   UNL     1      -1.722  13.958  23.965  0.00  0.00    +0.000 OA
ENDBRANCH  25  32
ENDBRANCH  21  28
ENDBRANCH  20  22
ENDBRANCH  19  20
ENDBRANCH   1  19
TORSDOF 8
ENDMDL
MODEL 6
REMARK VINA RESULT:      -7.8      3.592     10.456
REMARK  Name = 
REMARK  11 active torsions:
REMARK  status: ('A' for Active; 'I' for Inactive)
REMARK    1  A    between atoms: C_1  and  O_2
REMARK    2  A    between atoms: O_2  and  C_3
REMARK    3  A    between atoms: C_6  and  N_7
REMARK    4  A    between atoms: C_8  and  C_10
REMARK    5  A    between atoms: C_10  and  O_11
REMARK    6  A    between atoms: O_11  and  C_12
REMARK    7  A    between atoms: C_15  and  N_16
REMARK    8  A    between atoms: N_16  and  C_17
REMARK    9  A    between atoms: N_16  and  S_18
REMARK   10  A    between atoms: S_18  and  C_21
REMARK   11  A    between atoms: C_24  and  C_25
REMARK                            x       y       z     vdW  Elec       q    Type
REMARK                         _______ _______ _______ _____ _____    ______ ____
ROOT
ATOM      1  C   UNL     1       9.438  10.319  19.101  0.00  0.00    +0.000 A 
ATOM      2  C   UNL     1       9.809  11.046  17.972  0.00  0.00    +0.000 A 
ATOM      3  C   UNL     1      10.420  12.289  18.107  0.00  0.00    +0.000 A 
ATOM      4  C   UNL     1      10.646  12.819  19.376  0.00  0.00    +0.000 A 
ATOM      5  C   UNL     1      10.243  12.109  20.512  0.00  0.00    +0.000 A 
ATOM      6  C   UNL     1       9.635  10.857  20.374  0.00  0.00    +0.000 A 
ENDROOT
BRANCH   4   7
ATOM      7  N   UNL     1      11.344  14.058  19.532  0.00  0.00    +0.000 N 
ATOM      8  C   UNL     1      12.333  14.379  18.487  0.00  0.00    +0.000 C 
BRANCH   7   9
ATOM      9  S   UNL     1      10.514  15.365  20.255  0.00  0.00    +0.000 S 
ATOM     10  O   UNL     1      10.399  15.115  21.679  0.00  0.00    +0.000 OA
ATOM     11  O   UNL     1      11.126  16.589  19.773  0.00  0.00    +0.000 OA
BRANCH   9  12
ATOM     12  C   UNL     1       8.849  15.331  19.586  0.00  0.00    +0.000 A 
ATOM     13  C   UNL     1       8.646  15.461  18.208  0.00  0.00    +0.000 A 
ATOM     14  C   UNL     1       7.355  15.347  17.676  0.00  0.00    +0.000 A 
ATOM     15  C   UNL     1       6.261  15.071  18.507  0.00  0.00    +0.000 A 
ATOM     16  C   UNL     1       4.873  14.946  17.940  0.00  0.00    +0.000 C 
ATOM     17  C   UNL     1       6.484  14.875  19.875  0.00  0.00    +0.000 A 
ATOM     18  C   UNL     1       7.771  15.003  20.415  0.00  0.00    +0.000 A 
ENDBRANCH   9  12
ENDBRANCH   7   9
ENDBRANCH   4   7
BRANCH   1  19
ATOM     19  O   UNL     1       8.873   9.073  19.053  0.00  0.00    +0.000 OA
BRANCH  19  20
ATOM     20  C   UNL     1       8.174   8.806  17.837  0.00  0.00    +0.000 C 
BRANCH  20  22
ATOM     21  N   UNL     1       6.351   7.384  17.119  0.00  0.00    +0.000 N 
ATOM     22  C   UNL     1       7.486   7.455  17.907  0.00  0.00    +0.000 C 
ATOM     23  O   UNL     1       7.977   6.550  18.571  0.00  0.00    +0.000 OA
ATOM     24  H   UNL     1       6.181   8.167  16.497  0.00  0.00    +0.000 HD
BRANCH  21  28
ATOM     25  C   UNL     1       3.639   4.174  16.986  0.00  0.00    +0.000 A 
ATOM     26  C   UNL     1       4.797   4.134  16.218  0.00  0.00    +0.000 A 
ATOM     27  C   UNL     1       5.707   5.181  16.261  0.00  0.00    +0.000 A 
ATOM     28  C   UNL     1       5.464   6.294  17.064  0.00  0.00    +0.000 A 
ATOM     29  C   UNL     1       4.318   6.330  17.860  0.00  0.00    +0.000 A 
ATOM     30  C   UNL     1       3.396   5.278  17.808  0.00  0.00    +0.000 A 
BRANCH  25  32
ATOM     31  C   UNL     1       2.305   2.532  18.031  0.00  0.00    +0.000 C 
ATOM     32  O   UNL     1       2.809   3.101  16.832  0.00  0.00    +0.000 OA
ENDBRANCH  25  32
ENDBRANCH  21  28
ENDBRANCH  20  22
ENDBRANCH  19  20
ENDBRANCH   1  19
TORSDOF 8
ENDMDL
MODEL 7
REMARK VINA RESULT:      -7.7      3.651     10.589
REMARK  Name = 
REMARK  11 active torsions:
REMARK  status: ('A' for Active; 'I' for Inactive)
REMARK    1  A    between atoms: C_1  and  O_2
REMARK    2  A    between atoms: O_2  and  C_3
REMARK    3  A    between atoms: C_6  and  N_7
REMARK    4  A    between atoms: C_8  and  C_10
REMARK    5  A    between atoms: C_10  and  O_11
REMARK    6  A    between atoms: O_11  and  C_12
REMARK    7  A    between atoms: C_15  and  N_16
REMARK    8  A    between atoms: N_16  and  C_17
REMARK    9  A    between atoms: N_16  and  S_18
REMARK   10  A    between atoms: S_18  and  C_21
REMARK   11  A    between atoms: C_24  and  C_25
REMARK                            x       y       z     vdW  Elec       q    Type
REMARK                         _______ _______ _______ _____ _____    ______ ____
ROOT
ATOM      1  C   UNL     1       9.623  10.629  19.039  0.00  0.00    +0.000 A 
ATOM      2  C   UNL     1      10.326  11.147  20.125  0.00  0.00    +0.000 A 
ATOM      3  C   UNL     1      11.017  12.349  20.004  0.00  0.00    +0.000 A 
ATOM      4  C   UNL     1      11.022  13.030  18.788  0.00  0.00    +0.000 A 
ATOM      5  C   UNL     1      10.347  12.496  17.685  0.00  0.00    +0.000 A 
ATOM      6  C   UNL     1       9.649  11.291  17.811  0.00  0.00    +0.000 A 
ENDROOT
BRANCH   4   7
ATOM      7  N   UNL     1      11.662  14.305  18.672  0.00  0.00    +0.000 N 
ATOM      8  C   UNL     1      12.333  14.577  17.389  0.00  0.00    +0.000 C 
BRANCH   7   9
ATOM      9  S   UNL     1      10.967  15.632  19.493  0.00  0.00    +0.000 S 
ATOM     10  O   UNL     1      11.201  15.477  20.916  0.00  0.00    +0.000 OA
ATOM     11  O   UNL     1      11.393  16.838  18.808  0.00  0.00    +0.000 OA
BRANCH   9  12
ATOM     12  C   UNL     1       9.195  15.503  19.241  0.00  0.00    +0.000 A 
ATOM     13  C   UNL     1       8.658  15.641  17.956  0.00  0.00    +0.000 A 
ATOM     14  C   UNL     1       7.287  15.453  17.745  0.00  0.00    +0.000 A 
ATOM     15  C   UNL     1       6.442  15.095  18.805  0.00  0.00    +0.000 A 
ATOM     16  C   UNL     1       4.969  14.890  18.583  0.00  0.00    +0.000 C 
ATOM     17  C   UNL     1       7.000  14.891  20.074  0.00  0.00    +0.000 A 
ATOM     18  C   UNL     1       8.369  15.093  20.294  0.00  0.00    +0.000 A 
ENDBRANCH   9  12
ENDBRANCH   7   9
ENDBRANCH   4   7
BRANCH   1  19
ATOM     19  O   UNL     1       8.885   9.478  19.090  0.00  0.00    +0.000 OA
BRANCH  19  20
ATOM     20  C   UNL     1       8.411   9.043  17.815  0.00  0.00    +0.000 C 
BRANCH  20  22
ATOM     21  N   UNL     1       6.655   7.548  17.078  0.00  0.00    +0.000 N 
ATOM     22  C   UNL     1       7.732   7.691  17.935  0.00  0.00    +0.000 C 
ATOM     23  O   UNL     1       8.181   6.843  18.697  0.00  0.00    +0.000 OA
ATOM     24  H   UNL     1       6.523   8.281  16.390  0.00  0.00    +0.000 HD
BRANCH  21  28
ATOM     25  C   UNL     1       3.993   4.294  17.012  0.00  0.00    +0.000 A 
ATOM     26  C   UNL     1       5.024   4.363  16.083  0.00  0.00    +0.000 A 
ATOM     27  C   UNL     1       5.919   5.426  16.100  0.00  0.00    +0.000 A 
ATOM     28  C   UNL     1       5.784   6.445  17.041  0.00  0.00    +0.000 A 
ATOM     29  C   UNL     1       4.768   6.370  17.996  0.00  0.00    +0.000 A 
ATOM     30  C   UNL     1       3.862   5.303  17.971  0.00  0.00    +0.000 A 
BRANCH  25  32
ATOM     31  C   UNL     1       2.862   2.510  18.064  0.00  0.00    +0.000 C 
ATOM     32  O   UNL     1       3.163   3.220  16.871  0.00  0.00    +0.000 OA
ENDBRANCH  25  32
ENDBRANCH  21  28
ENDBRANCH  20  22
ENDBRANCH  19  20
ENDBRANCH   1  19
TORSDOF 8
ENDMDL
MODEL 8
REMARK VINA RESULT:      -7.6      1.662      2.405
REMARK  Name = 
REMARK  11 active torsions:
REMARK  status: ('A' for Active; 'I' for Inactive)
REMARK    1  A    between atoms: C_1  and  O_2
REMARK    2  A    between atoms: O_2  and  C_3
REMARK    3  A    between atoms: C_6  and  N_7
REMARK    4  A    between atoms: C_8  and  C_10
REMARK    5  A    between atoms: C_10  and  O_11
REMARK    6  A    between atoms: O_11  and  C_12
REMARK    7  A    between atoms: C_15  and  N_16
REMARK    8  A    between atoms: N_16  and  C_17
REMARK    9  A    between atoms: N_16  and  S_18
REMARK   10  A    between atoms: S_18  and  C_21
REMARK   11  A    between atoms: C_24  and  C_25
REMARK                            x       y       z     vdW  Elec       q    Type
REMARK                         _______ _______ _______ _____ _____    ______ ____
ROOT
ATOM      1  C   UNL     1       7.665   7.206  18.233  0.00  0.00    +0.000 A 
ATOM      2  C   UNL     1       7.671   5.933  18.800  0.00  0.00    +0.000 A 
ATOM      3  C   UNL     1       6.777   4.964  18.356  0.00  0.00    +0.000 A 
ATOM      4  C   UNL     1       5.859   5.271  17.354  0.00  0.00    +0.000 A 
ATOM      5  C   UNL     1       5.825   6.558  16.807  0.00  0.00    +0.000 A 
ATOM      6  C   UNL     1       6.728   7.529  17.250  0.00  0.00    +0.000 A 
ENDROOT
BRANCH   4   7
ATOM      7  N   UNL     1       4.987   4.262  16.833  0.00  0.00    +0.000 N 
ATOM      8  C   UNL     1       5.566   3.372  15.811  0.00  0.00    +0.000 C 
BRANCH   7   9
ATOM      9  S   UNL     1       3.810   3.597  17.878  0.00  0.00    +0.000 S 
ATOM     10  O   UNL     1       2.791   2.944  17.079  0.00  0.00    +0.000 OA
ATOM     11  O   UNL     1       4.513   2.862  18.912  0.00  0.00    +0.000 OA
BRANCH   9  12
ATOM     12  C   UNL     1       3.021   4.988  18.690  0.00  0.00    +0.000 A 
ATOM     13  C   UNL     1       2.774   4.947  20.067  0.00  0.00    +0.000 A 
ATOM     14  C   UNL     1       2.239   6.066  20.717  0.00  0.00    +0.000 A 
ATOM     15  C   UNL     1       1.973   7.246  20.009  0.00  0.00    +0.000 A 
ATOM     16  C   UNL     1       1.400   8.451  20.703  0.00  0.00    +0.000 C 
ATOM     17  C   UNL     1       2.288   7.301  18.645  0.00  0.00    +0.000 A 
ATOM     18  C   UNL     1       2.809   6.179  17.986  0.00  0.00    +0.000 A 
ENDBRANCH   9  12
ENDBRANCH   7   9
ENDBRANCH   4   7
BRANCH   1  19
ATOM     19  O   UNL     1       8.539   8.200  18.584  0.00  0.00    +0.000 OA
BRANCH  19  20
ATOM     20  C   UNL     1       8.317   9.430  17.895  0.00  0.00    +0.000 C 
BRANCH  20  22
ATOM     21  N   UNL     1       9.104  11.717  17.784  0.00  0.00    +0.000 N 
ATOM     22  C   UNL     1       9.149  10.540  18.510  0.00  0.00    +0.000 C 
ATOM     23  O   UNL     1       9.731  10.355  19.573  0.00  0.00    +0.000 OA
ATOM     24  H   UNL     1       8.437  11.753  17.021  0.00  0.00    +0.000 HD
BRANCH  21  28
ATOM     25  C   UNL     1      11.307  15.181  18.691  0.00  0.00    +0.000 A 
ATOM     26  C   UNL     1      11.699  14.369  17.635  0.00  0.00    +0.000 A 
ATOM     27  C   UNL     1      10.975  13.228  17.315  0.00  0.00    +0.000 A 
ATOM     28  C   UNL     1       9.852  12.875  18.061  0.00  0.00    +0.000 A 
ATOM     29  C   UNL     1       9.433  13.700  19.106  0.00  0.00    +0.000 A 
ATOM     30  C   UNL     1      10.170  14.845  19.433  0.00  0.00    +0.000 A 
BRANCH  25  32
ATOM     31  C   UNL     1      12.333  17.119  17.820  0.00  0.00    +0.000 C 
ATOM     32  O   UNL     1      12.118  16.254  18.925  0.00  0.00    +0.000 OA
ENDBRANCH  25  32
ENDBRANCH  21  28
ENDBRANCH  20  22
ENDBRANCH  19  20
ENDBRANCH   1  19
TORSDOF 8
ENDMDL
MODEL 9
REMARK VINA RESULT:      -7.6      4.557      6.450
REMARK  Name = 
REMARK  11 active torsions:
REMARK  status: ('A' for Active; 'I' for Inactive)
REMARK    1  A    between atoms: C_1  and  O_2
REMARK    2  A    between atoms: O_2  and  C_3
REMARK    3  A    between atoms: C_6  and  N_7
REMARK    4  A    between atoms: C_8  and  C_10
REMARK    5  A    between atoms: C_10  and  O_11
REMARK    6  A    between atoms: O_11  and  C_12
REMARK    7  A    between atoms: C_15  and  N_16
REMARK    8  A    between atoms: N_16  and  C_17
REMARK    9  A    between atoms: N_16  and  S_18
REMARK   10  A    between atoms: S_18  and  C_21
REMARK   11  A    between atoms: C_24  and  C_25
REMARK                            x       y       z     vdW  Elec       q    Type
REMARK                         _______ _______ _______ _____ _____    ______ ____
ROOT
ATOM      1  C   UNL     1       2.083   7.558  19.108  0.00  0.00    +0.000 A 
ATOM      2  C   UNL     1       2.010   6.905  20.336  0.00  0.00    +0.000 A 
ATOM      3  C   UNL     1       2.037   5.514  20.393  0.00  0.00    +0.000 A 
ATOM      4  C   UNL     1       2.118   4.771  19.217  0.00  0.00    +0.000 A 
ATOM      5  C   UNL     1       2.156   5.422  17.980  0.00  0.00    +0.000 A 
ATOM      6  C   UNL     1       2.135   6.819  17.925  0.00  0.00    +0.000 A 
ENDROOT
BRANCH   4   7
ATOM      7  N   UNL     1       2.227   3.345  19.266  0.00  0.00    +0.000 N 
ATOM      8  C   UNL     1       1.023   2.591  18.873  0.00  0.00    +0.000 C 
BRANCH   7   9
ATOM      9  S   UNL     1       3.743   2.640  18.918  0.00  0.00    +0.000 S 
ATOM     10  O   UNL     1       4.292   2.083  20.140  0.00  0.00    +0.000 OA
ATOM     11  O   UNL     1       3.576   1.805  17.744  0.00  0.00    +0.000 OA
BRANCH   9  12
ATOM     12  C   UNL     1       4.822   3.990  18.433  0.00  0.00    +0.000 A 
ATOM     13  C   UNL     1       5.500   4.730  19.408  0.00  0.00    +0.000 A 
ATOM     14  C   UNL     1       6.409   5.725  19.027  0.00  0.00    +0.000 A 
ATOM     15  C   UNL     1       6.674   5.971  17.673  0.00  0.00    +0.000 A 
ATOM     16  C   UNL     1       7.651   7.036  17.258  0.00  0.00    +0.000 C 
ATOM     17  C   UNL     1       6.043   5.178  16.706  0.00  0.00    +0.000 A 
ATOM     18  C   UNL     1       5.121   4.192  17.081  0.00  0.00    +0.000 A 
ENDBRANCH   9  12
ENDBRANCH   7   9
ENDBRANCH   4   7
BRANCH   1  19
ATOM     19  O   UNL     1       2.105   8.920  18.970  0.00  0.00    +0.000 OA
BRANCH  19  20
ATOM     20  C   UNL     1       0.834   9.539  19.168  0.00  0.00    +0.000 C 
BRANCH  20  22
ATOM     21  N   UNL     1       0.968  11.846  18.448  0.00  0.00    +0.000 N 
ATOM     22  C   UNL     1       1.008  10.999  19.541  0.00  0.00    +0.000 C 
ATOM     23  O   UNL     1       1.112  11.325  20.718  0.00  0.00    +0.000 OA
ATOM     24  H   UNL     1       0.701  11.431  17.562  0.00  0.00    +0.000 HD
BRANCH  21  28
ATOM     25  C   UNL     1       1.726  15.981  18.506  0.00  0.00    +0.000 A 
ATOM     26  C   UNL     1       0.443  15.510  18.755  0.00  0.00    +0.000 A 
ATOM     27  C   UNL     1       0.180  14.146  18.751  0.00  0.00    +0.000 A 
ATOM     28  C   UNL     1       1.198  13.233  18.482  0.00  0.00    +0.000 A 
ATOM     29  C   UNL     1       2.496  13.696  18.259  0.00  0.00    +0.000 A 
ATOM     30  C   UNL     1       2.757  15.071  18.253  0.00  0.00    +0.000 A 
BRANCH  25  32
ATOM     31  C   UNL     1       1.114  18.028  17.503  0.00  0.00    +0.000 C 
ATOM     32  O   UNL     1       1.850  17.341  18.505  0.00  0.00    +0.000 OA
ENDBRANCH  25  32
ENDBRANCH  21  28
ENDBRANCH  20  22
ENDBRANCH  19  20
ENDBRANCH   1  19
TORSDOF 8
ENDMDL
