MODEL 1
REMARK VINA RESULT:      -7.5      0.000      0.000
REMARK  Name = 
REMARK  10 active torsions:
REMARK  status: ('A' for Active; 'I' for Inactive)
REMARK    1  A    between atoms: C_1  and  O_2
REMARK    2  A    between atoms: O_2  and  C_3
REMARK    3  A    between atoms: C_6  and  N_7
REMARK    4  A    between atoms: N_7  and  C_8
REMARK    5  A    between atoms: N_7  and  S_18
REMARK    6  A    between atoms: C_8  and  C_9
REMARK    7  A    between atoms: N_14  and  C_15
REMARK    8  A    between atoms: S_18  and  C_19
REMARK    9  A    between atoms: C_23  and  O_24
REMARK   10  A    between atoms: O_24  and  C_25
REMARK                            x       y       z     vdW  Elec       q    Type
REMARK                         _______ _______ _______ _____ _____    ______ ____
ROOT
ATOM      1  N   UNL     1       3.062   4.728  18.945  0.00  0.00    +0.000 N 
ENDROOT
BRANCH   1   5
ATOM      2  C   UNL     1       6.465   4.452  16.446  0.00  0.00    +0.000 A 
ATOM      3  C   UNL     1       5.185   4.180  15.950  0.00  0.00    +0.000 A 
ATOM      4  C   UNL     1       4.077   4.233  16.793  0.00  0.00    +0.000 A 
ATOM      5  C   UNL     1       4.240   4.560  18.136  0.00  0.00    +0.000 A 
ATOM      6  C   UNL     1       5.531   4.680  18.661  0.00  0.00    +0.000 A 
ATOM      7  C   UNL     1       6.657   4.595  17.825  0.00  0.00    +0.000 A 
BRANCH   2   9
ATOM      8  C   UNL     1       7.124   4.842  14.233  0.00  0.00    +0.000 C 
ATOM      9  O   UNL     1       7.523   4.589  15.585  0.00  0.00    +0.000 OA
ENDBRANCH   2   9
BRANCH   7  10
ATOM     10  O   UNL     1       7.850   4.727  18.488  0.00  0.00    +0.000 OA
ATOM     11  C   UNL     1       8.015   5.897  19.286  0.00  0.00    +0.000 C 
ENDBRANCH   7  10
ENDBRANCH   1   5
BRANCH   1  12
ATOM     12  S   UNL     1       2.359   3.330  19.593  0.00  0.00    +0.000 S 
ATOM     13  C   UNL     1       1.206   3.977  20.792  0.00  0.00    +0.000 C 
ATOM     14  O   UNL     1       1.586   2.703  18.539  0.00  0.00    +0.000 OA
ATOM     15  O   UNL     1       3.366   2.571  20.306  0.00  0.00    +0.000 OA
ENDBRANCH   1  12
BRANCH   1  16
ATOM     16  C   UNL     1       2.930   5.969  19.748  0.00  0.00    +0.000 C 
BRANCH  16  17
ATOM     17  C   UNL     1       2.522   7.205  18.947  0.00  0.00    +0.000 C 
ATOM     18  O   UNL     1       3.053   7.413  17.852  0.00  0.00    +0.000 OA
ATOM     19  N   UNL     1       1.578   8.092  19.478  0.00  0.00    +0.000 N 
ATOM     20  C   UNL     1       1.403   9.353  18.750  0.00  0.00    +0.000 C 
ATOM     21  C   UNL     1       0.145  10.145  19.146  0.00  0.00    +0.000 C 
ATOM     22  N   UNL     1      -0.046  10.315  20.599  0.00  0.00    +0.000 NA
ATOM     23  C   UNL     1       0.915  11.255  21.171  0.00  0.00    +0.000 C 
ATOM     24  C   UNL     1       0.005   8.990  21.244  0.00  0.00    +0.000 C 
ATOM     25  C   UNL     1       1.239   8.121  20.905  0.00  0.00    +0.000 C 
ENDBRANCH  16  17
ENDBRANCH   1  16
TORSDOF 6
ENDMDL
MODEL 2
REMARK VINA RESULT:      -7.2      1.179      1.197
REMARK  Name = 
REMARK  10 active torsions:
REMARK  status: ('A' for Active; 'I' for Inactive)
REMARK    1  A    between atoms: C_1  and  O_2
REMARK    2  A    between atoms: O_2  and  C_3
REMARK    3  A    between atoms: C_6  and  N_7
REMARK    4  A    between atoms: N_7  and  C_8
REMARK    5  A    between atoms: N_7  and  S_18
REMARK    6  A    between atoms: C_8  and  C_9
REMARK    7  A    between atoms: N_14  and  C_15
REMARK    8  A    between atoms: S_18  and  C_19
REMARK    9  A    between atoms: C_23  and  O_24
REMARK   10  A    between atoms: O_24  and  C_25
REMARK                            x       y       z     vdW  Elec       q    Type
REMARK                         _______ _______ _______ _____ _____    ______ ____
ROOT
ATOM      1  N   UNL     1       3.189   5.679  18.394  0.00  0.00    +0.000 N 
ENDROOT
BRANCH   1   5
ATOM      2  C   UNL     1       6.460   5.226  15.747  0.00  0.00    +0.000 A 
ATOM      3  C   UNL     1       5.423   4.286  15.776  0.00  0.00    +0.000 A 
ATOM      4  C   UNL     1       4.372   4.424  16.681  0.00  0.00    +0.000 A 
ATOM      5  C   UNL     1       4.350   5.501  17.562  0.00  0.00    +0.000 A 
ATOM      6  C   UNL     1       5.461   6.349  17.636  0.00  0.00    +0.000 A 
ATOM      7  C   UNL     1       6.540   6.199  16.751  0.00  0.00    +0.000 A 
BRANCH   2   9
ATOM      8  C   UNL     1       6.924   4.523  13.562  0.00  0.00    +0.000 C 
ATOM      9  O   UNL     1       7.386   5.199  14.737  0.00  0.00    +0.000 OA
ENDBRANCH   2   9
BRANCH   7  10
ATOM     10  O   UNL     1       7.552   7.102  16.952  0.00  0.00    +0.000 OA
ATOM     11  C   UNL     1       8.006   7.269  18.292  0.00  0.00    +0.000 C 
ENDBRANCH   7  10
ENDBRANCH   1   5
BRANCH   1  12
ATOM     12  S   UNL     1       2.489   4.286  19.057  0.00  0.00    +0.000 S 
ATOM     13  C   UNL     1       1.616   4.915  20.481  0.00  0.00    +0.000 C 
ATOM     14  O   UNL     1       1.498   3.807  18.115  0.00  0.00    +0.000 OA
ATOM     15  O   UNL     1       3.533   3.400  19.528  0.00  0.00    +0.000 OA
ENDBRANCH   1  12
BRANCH   1  16
ATOM     16  C   UNL     1       3.082   6.922  19.196  0.00  0.00    +0.000 C 
BRANCH  16  17
ATOM     17  C   UNL     1       2.282   8.042  18.533  0.00  0.00    +0.000 C 
ATOM     18  O   UNL     1       2.545   8.358  17.368  0.00  0.00    +0.000 OA
ATOM     19  N   UNL     1       1.289   8.707  19.261  0.00  0.00    +0.000 N 
ATOM     20  C   UNL     1       0.722   9.902  18.627  0.00  0.00    +0.000 C 
ATOM     21  C   UNL     1      -0.578  10.408  19.276  0.00  0.00    +0.000 C 
ATOM     22  N   UNL     1      -0.526  10.533  20.745  0.00  0.00    +0.000 NA
ATOM     23  C   UNL     1       0.305  11.657  21.170  0.00  0.00    +0.000 C 
ATOM     24  C   UNL     1      -0.080   9.250  21.318  0.00  0.00    +0.000 C 
ATOM     25  C   UNL     1       1.224   8.664  20.726  0.00  0.00    +0.000 C 
ENDBRANCH  16  17
ENDBRANCH   1  16
TORSDOF 6
ENDMDL
MODEL 3
REMARK VINA RESULT:      -7.1      1.037      1.166
REMARK  Name = 
REMARK  10 active torsions:
REMARK  status: ('A' for Active; 'I' for Inactive)
REMARK    1  A    between atoms: C_1  and  O_2
REMARK    2  A    between atoms: O_2  and  C_3
REMARK    3  A    between atoms: C_6  and  N_7
REMARK    4  A    between atoms: N_7  and  C_8
REMARK    5  A    between atoms: N_7  and  S_18
REMARK    6  A    between atoms: C_8  and  C_9
REMARK    7  A    between atoms: N_14  and  C_15
REMARK    8  A    between atoms: S_18  and  C_19
REMARK    9  A    between atoms: C_23  and  O_24
REMARK   10  A    between atoms: O_24  and  C_25
REMARK                            x       y       z     vdW  Elec       q    Type
REMARK                         _______ _______ _______ _____ _____    ______ ____
ROOT
ATOM      1  N   UNL     1       2.807   5.379  18.607  0.00  0.00    +0.000 N 
ENDROOT
BRANCH   1   5
ATOM      2  C   UNL     1       6.343   4.681  16.389  0.00  0.00    +0.000 A 
ATOM      3  C   UNL     1       5.142   4.052  16.044  0.00  0.00    +0.000 A 
ATOM      4  C   UNL     1       3.994   4.257  16.807  0.00  0.00    +0.000 A 
ATOM      5  C   UNL     1       4.039   5.092  17.919  0.00  0.00    +0.000 A 
ATOM      6  C   UNL     1       5.271   5.594  18.350  0.00  0.00    +0.000 A 
ATOM      7  C   UNL     1       6.440   5.366  17.606  0.00  0.00    +0.000 A 
BRANCH   2   9
ATOM      8  C   UNL     1       7.056   4.827  14.164  0.00  0.00    +0.000 C 
ATOM      9  O   UNL     1       7.415   4.634  15.537  0.00  0.00    +0.000 OA
ENDBRANCH   2   9
BRANCH   7  10
ATOM     10  O   UNL     1       7.566   5.918  18.160  0.00  0.00    +0.000 OA
ATOM     11  C   UNL     1       7.794   5.661  19.543  0.00  0.00    +0.000 C 
ENDBRANCH   7  10
ENDBRANCH   1   5
BRANCH   1  12
ATOM     12  S   UNL     1       1.899   4.058  19.156  0.00  0.00    +0.000 S 
ATOM     13  C   UNL     1       3.145   2.950  19.793  0.00  0.00    +0.000 C 
ATOM     14  O   UNL     1       1.106   4.514  20.280  0.00  0.00    +0.000 OA
ATOM     15  O   UNL     1       1.260   3.412  18.028  0.00  0.00    +0.000 OA
ENDBRANCH   1  12
BRANCH   1  16
ATOM     16  C   UNL     1       2.724   6.621  19.413  0.00  0.00    +0.000 C 
BRANCH  16  17
ATOM     17  C   UNL     1       2.331   7.868  18.622  0.00  0.00    +0.000 C 
ATOM     18  O   UNL     1       2.859   8.074  17.525  0.00  0.00    +0.000 OA
ATOM     19  N   UNL     1       1.404   8.767  19.164  0.00  0.00    +0.000 N 
ATOM     20  C   UNL     1       1.245  10.035  18.444  0.00  0.00    +0.000 C 
ATOM     21  C   UNL     1       0.003  10.845  18.853  0.00  0.00    +0.000 C 
ATOM     22  N   UNL     1      -0.176  11.009  20.308  0.00  0.00    +0.000 NA
ATOM     23  C   UNL     1       0.803  11.931  20.879  0.00  0.00    +0.000 C 
ATOM     24  C   UNL     1      -0.143   9.679  20.945  0.00  0.00    +0.000 C 
ATOM     25  C   UNL     1       1.075   8.793  20.594  0.00  0.00    +0.000 C 
ENDBRANCH  16  17
ENDBRANCH   1  16
TORSDOF 6
ENDMDL
MODEL 4
REMARK VINA RESULT:      -6.3      2.464      6.461
REMARK  Name = 
REMARK  10 active torsions:
REMARK  status: ('A' for Active; 'I' for Inactive)
REMARK    1  A    between atoms: C_1  and  O_2
REMARK    2  A    between atoms: O_2  and  C_3
REMARK    3  A    between atoms: C_6  and  N_7
REMARK    4  A    between atoms: N_7  and  C_8
REMARK    5  A    between atoms: N_7  and  S_18
REMARK    6  A    between atoms: C_8  and  C_9
REMARK    7  A    between atoms: N_14  and  C_15
REMARK    8  A    between atoms: S_18  and  C_19
REMARK    9  A    between atoms: C_23  and  O_24
REMARK   10  A    between atoms: O_24  and  C_25
REMARK                            x       y       z     vdW  Elec       q    Type
REMARK                         _______ _______ _______ _____ _____    ______ ____
ROOT
ATOM      1  N   UNL     1       2.526   4.771  19.705  0.00  0.00    +0.000 N 
ENDROOT
BRANCH   1   5
ATOM      2  C   UNL     1       1.531   8.862  19.278  0.00  0.00    +0.000 A 
ATOM      3  C   UNL     1       2.099   8.145  18.218  0.00  0.00    +0.000 A 
ATOM      4  C   UNL     1       2.461   6.809  18.384  0.00  0.00    +0.000 A 
ATOM      5  C   UNL     1       2.257   6.181  19.609  0.00  0.00    +0.000 A 
ATOM      6  C   UNL     1       1.836   6.939  20.707  0.00  0.00    +0.000 A 
ATOM      7  C   UNL     1       1.500   8.294  20.558  0.00  0.00    +0.000 A 
BRANCH   2   9
ATOM      8  C   UNL     1      -0.368  10.075  18.642  0.00  0.00    +0.000 C 
ATOM      9  O   UNL     1       1.001  10.107  19.062  0.00  0.00    +0.000 OA
ENDBRANCH   2   9
BRANCH   7  10
ATOM     10  O   UNL     1       1.109   8.900  21.724  0.00  0.00    +0.000 OA
ATOM     11  C   UNL     1      -0.262   8.766  22.090  0.00  0.00    +0.000 C 
ENDBRANCH   7  10
ENDBRANCH   1   5
BRANCH   1  12
ATOM     12  S   UNL     1       1.494   3.849  20.683  0.00  0.00    +0.000 S 
ATOM     13  C   UNL     1       1.523   2.246  19.899  0.00  0.00    +0.000 C 
ATOM     14  O   UNL     1       2.131   3.712  21.978  0.00  0.00    +0.000 OA
ATOM     15  O   UNL     1       0.146   4.371  20.587  0.00  0.00    +0.000 OA
ENDBRANCH   1  12
BRANCH   1  16
ATOM     16  C   UNL     1       3.113   4.084  18.529  0.00  0.00    +0.000 C 
BRANCH  16  17
ATOM     17  C   UNL     1       4.627   3.889  18.595  0.00  0.00    +0.000 C 
ATOM     18  O   UNL     1       5.096   3.112  19.432  0.00  0.00    +0.000 OA
ATOM     19  N   UNL     1       5.456   4.613  17.730  0.00  0.00    +0.000 N 
ATOM     20  C   UNL     1       6.895   4.530  18.002  0.00  0.00    +0.000 C 
ATOM     21  C   UNL     1       7.788   5.044  16.859  0.00  0.00    +0.000 C 
ATOM     22  N   UNL     1       7.402   6.361  16.319  0.00  0.00    +0.000 NA
ATOM     23  C   UNL     1       7.707   7.445  17.251  0.00  0.00    +0.000 C 
ATOM     24  C   UNL     1       5.978   6.323  15.940  0.00  0.00    +0.000 C 
ATOM     25  C   UNL     1       5.003   5.821  17.030  0.00  0.00    +0.000 C 
ENDBRANCH  16  17
ENDBRANCH   1  16
TORSDOF 6
ENDMDL
MODEL 5
REMARK VINA RESULT:      -6.2      2.443      6.416
REMARK  Name = 
REMARK  10 active torsions:
REMARK  status: ('A' for Active; 'I' for Inactive)
REMARK    1  A    between atoms: C_1  and  O_2
REMARK    2  A    between atoms: O_2  and  C_3
REMARK    3  A    between atoms: C_6  and  N_7
REMARK    4  A    between atoms: N_7  and  C_8
REMARK    5  A    between atoms: N_7  and  S_18
REMARK    6  A    between atoms: C_8  and  C_9
REMARK    7  A    between atoms: N_14  and  C_15
REMARK    8  A    between atoms: S_18  and  C_19
REMARK    9  A    between atoms: C_23  and  O_24
REMARK   10  A    between atoms: O_24  and  C_25
REMARK                            x       y       z     vdW  Elec       q    Type
REMARK                         _______ _______ _______ _____ _____    ______ ____
ROOT
ATOM      1  N   UNL     1       2.573   4.288  19.408  0.00  0.00    +0.000 N 
ENDROOT
BRANCH   1   5
ATOM      2  C   UNL     1       1.977   8.453  18.955  0.00  0.00    +0.000 A 
ATOM      3  C   UNL     1       2.555   7.694  17.931  0.00  0.00    +0.000 A 
ATOM      4  C   UNL     1       2.785   6.331  18.108  0.00  0.00    +0.000 A 
ATOM      5  C   UNL     1       2.437   5.717  19.308  0.00  0.00    +0.000 A 
ATOM      6  C   UNL     1       2.005   6.505  20.381  0.00  0.00    +0.000 A 
ATOM      7  C   UNL     1       1.802   7.885  20.223  0.00  0.00    +0.000 A 
BRANCH   2   9
ATOM      8  C   UNL     1       0.239   9.834  18.210  0.00  0.00    +0.000 C 
ATOM      9  O   UNL     1       1.576   9.741  18.715  0.00  0.00    +0.000 OA
ENDBRANCH   2   9
BRANCH   7  10
ATOM     10  O   UNL     1       1.382   8.518  21.364  0.00  0.00    +0.000 OA
ATOM     11  C   UNL     1      -0.020   8.515  21.622  0.00  0.00    +0.000 C 
ENDBRANCH   7  10
ENDBRANCH   1   5
BRANCH   1  12
ATOM     12  S   UNL     1       1.467   3.341  18.543  0.00  0.00    +0.000 S 
ATOM     13  C   UNL     1       2.413   1.881  18.144  0.00  0.00    +0.000 C 
ATOM     14  O   UNL     1       0.421   2.944  19.463  0.00  0.00    +0.000 OA
ATOM     15  O   UNL     1       1.130   4.008  17.302  0.00  0.00    +0.000 OA
ENDBRANCH   1  12
BRANCH   1  16
ATOM     16  C   UNL     1       3.932   3.721  19.591  0.00  0.00    +0.000 C 
BRANCH  16  17
ATOM     17  C   UNL     1       5.068   4.619  19.104  0.00  0.00    +0.000 C 
ATOM     18  O   UNL     1       5.476   5.523  19.841  0.00  0.00    +0.000 OA
ATOM     19  N   UNL     1       5.606   4.424  17.827  0.00  0.00    +0.000 N 
ATOM     20  C   UNL     1       6.536   5.457  17.358  0.00  0.00    +0.000 C 
ATOM     21  C   UNL     1       7.359   5.055  16.122  0.00  0.00    +0.000 C 
ATOM     22  N   UNL     1       6.572   4.477  15.017  0.00  0.00    +0.000 NA
ATOM     23  C   UNL     1       5.759   5.486  14.339  0.00  0.00    +0.000 C 
ATOM     24  C   UNL     1       5.767   3.358  15.539  0.00  0.00    +0.000 C 
ATOM     25  C   UNL     1       4.903   3.670  16.783  0.00  0.00    +0.000 C 
ENDBRANCH  16  17
ENDBRANCH   1  16
TORSDOF 6
ENDMDL
MODEL 6
REMARK VINA RESULT:      -6.1      3.550      5.101
REMARK  Name = 
REMARK  10 active torsions:
REMARK  status: ('A' for Active; 'I' for Inactive)
REMARK    1  A    between atoms: C_1  and  O_2
REMARK    2  A    between atoms: O_2  and  C_3
REMARK    3  A    between atoms: C_6  and  N_7
REMARK    4  A    between atoms: N_7  and  C_8
REMARK    5  A    between atoms: N_7  and  S_18
REMARK    6  A    between atoms: C_8  and  C_9
REMARK    7  A    between atoms: N_14  and  C_15
REMARK    8  A    between atoms: S_18  and  C_19
REMARK    9  A    between atoms: C_23  and  O_24
REMARK   10  A    between atoms: O_24  and  C_25
REMARK                            x       y       z     vdW  Elec       q    Type
REMARK                         _______ _______ _______ _____ _____    ______ ____
ROOT
ATOM      1  N   UNL     1       6.002   5.287  17.689  0.00  0.00    +0.000 N 
ENDROOT
BRANCH   1   5
ATOM      2  C   UNL     1       6.192   3.908  13.693  0.00  0.00    +0.000 A 
ATOM      3  C   UNL     1       5.586   3.137  14.692  0.00  0.00    +0.000 A 
ATOM      4  C   UNL     1       5.566   3.583  16.012  0.00  0.00    +0.000 A 
ATOM      5  C   UNL     1       6.152   4.802  16.342  0.00  0.00    +0.000 A 
ATOM      6  C   UNL     1       6.890   5.493  15.375  0.00  0.00    +0.000 A 
ATOM      7  C   UNL     1       6.943   5.035  14.049  0.00  0.00    +0.000 A 
BRANCH   2   9
ATOM      8  C   UNL     1       4.689   3.279  12.011  0.00  0.00    +0.000 C 
ATOM      9  O   UNL     1       6.045   3.566  12.374  0.00  0.00    +0.000 OA
ENDBRANCH   2   9
BRANCH   7  10
ATOM     10  O   UNL     1       7.709   5.817  13.223  0.00  0.00    +0.000 OA
ATOM     11  C   UNL     1       9.111   5.561  13.214  0.00  0.00    +0.000 C 
ENDBRANCH   7  10
ENDBRANCH   1   5
BRANCH   1  12
ATOM     12  S   UNL     1       7.395   5.349  18.651  0.00  0.00    +0.000 S 
ATOM     13  C   UNL     1       8.017   6.995  18.352  0.00  0.00    +0.000 C 
ATOM     14  O   UNL     1       6.971   5.288  20.035  0.00  0.00    +0.000 OA
ATOM     15  O   UNL     1       8.371   4.404  18.147  0.00  0.00    +0.000 OA
ENDBRANCH   1  12
BRANCH   1  16
ATOM     16  C   UNL     1       4.966   6.314  17.956  0.00  0.00    +0.000 C 
BRANCH  16  17
ATOM     17  C   UNL     1       3.527   5.811  17.850  0.00  0.00    +0.000 C 
ATOM     18  O   UNL     1       2.691   6.503  17.261  0.00  0.00    +0.000 OA
ATOM     19  N   UNL     1       3.176   4.592  18.442  0.00  0.00    +0.000 N 
ATOM     20  C   UNL     1       1.741   4.288  18.479  0.00  0.00    +0.000 C 
ATOM     21  C   UNL     1       1.412   2.824  18.817  0.00  0.00    +0.000 C 
ATOM     22  N   UNL     1       2.121   2.287  19.994  0.00  0.00    +0.000 NA
ATOM     23  C   UNL     1       1.614   2.851  21.243  0.00  0.00    +0.000 C 
ATOM     24  C   UNL     1       3.569   2.507  19.818  0.00  0.00    +0.000 C 
ATOM     25  C   UNL     1       3.995   3.954  19.478  0.00  0.00    +0.000 C 
ENDBRANCH  16  17
ENDBRANCH   1  16
TORSDOF 6
ENDMDL
MODEL 7
REMARK VINA RESULT:      -6.0      4.269      9.006
REMARK  Name = 
REMARK  10 active torsions:
REMARK  status: ('A' for Active; 'I' for Inactive)
REMARK    1  A    between atoms: C_1  and  O_2
REMARK    2  A    between atoms: O_2  and  C_3
REMARK    3  A    between atoms: C_6  and  N_7
REMARK    4  A    between atoms: N_7  and  C_8
REMARK    5  A    between atoms: N_7  and  S_18
REMARK    6  A    between atoms: C_8  and  C_9
REMARK    7  A    between atoms: N_14  and  C_15
REMARK    8  A    between atoms: S_18  and  C_19
REMARK    9  A    between atoms: C_23  and  O_24
REMARK   10  A    between atoms: O_24  and  C_25
REMARK                            x       y       z     vdW  Elec       q    Type
REMARK                         _______ _______ _______ _____ _____    ______ ____
ROOT
ATOM      1  N   UNL     1       0.392  10.992  18.966  0.00  0.00    +0.000 N 
ENDROOT
BRANCH   1   5
ATOM      2  C   UNL     1      -3.684  11.253  17.855  0.00  0.00    +0.000 A 
ATOM      3  C   UNL     1      -3.224  11.831  19.044  0.00  0.00    +0.000 A 
ATOM      4  C   UNL     1      -1.888  11.702  19.420  0.00  0.00    +0.000 A 
ATOM      5  C   UNL     1      -1.003  10.997  18.610  0.00  0.00    +0.000 A 
ATOM      6  C   UNL     1      -1.496  10.293  17.506  0.00  0.00    +0.000 A 
ATOM      7  C   UNL     1      -2.847  10.388  17.137  0.00  0.00    +0.000 A 
BRANCH   2   9
ATOM      8  C   UNL     1      -5.984  11.019  18.222  0.00  0.00    +0.000 C 
ATOM      9  O   UNL     1      -4.941  11.539  17.390  0.00  0.00    +0.000 OA
ENDBRANCH   2   9
BRANCH   7  10
ATOM     10  O   UNL     1      -3.177   9.638  16.038  0.00  0.00    +0.000 OA
ATOM     11  C   UNL     1      -2.985  10.247  14.764  0.00  0.00    +0.000 C 
ENDBRANCH   7  10
ENDBRANCH   1   5
BRANCH   1  12
ATOM     12  S   UNL     1       1.076  12.466  19.445  0.00  0.00    +0.000 S 
ATOM     13  C   UNL     1       2.516  12.600  18.399  0.00  0.00    +0.000 C 
ATOM     14  O   UNL     1       0.157  13.518  19.057  0.00  0.00    +0.000 OA
ATOM     15  O   UNL     1       1.527  12.364  20.818  0.00  0.00    +0.000 OA
ENDBRANCH   1  12
BRANCH   1  16
ATOM     16  C   UNL     1       0.956   9.767  19.583  0.00  0.00    +0.000 C 
BRANCH  16  17
ATOM     17  C   UNL     1       1.791   8.905  18.639  0.00  0.00    +0.000 C 
ATOM     18  O   UNL     1       2.043   9.326  17.506  0.00  0.00    +0.000 OA
ATOM     19  N   UNL     1       2.232   7.645  19.061  0.00  0.00    +0.000 N 
ATOM     20  C   UNL     1       2.839   6.799  18.027  0.00  0.00    +0.000 C 
ATOM     21  C   UNL     1       3.608   5.584  18.573  0.00  0.00    +0.000 C 
ATOM     22  N   UNL     1       2.876   4.790  19.578  0.00  0.00    +0.000 NA
ATOM     23  C   UNL     1       1.784   4.025  18.980  0.00  0.00    +0.000 C 
ATOM     24  C   UNL     1       2.417   5.688  20.653  0.00  0.00    +0.000 C 
ATOM     25  C   UNL     1       1.630   6.939  20.197  0.00  0.00    +0.000 C 
ENDBRANCH  16  17
ENDBRANCH   1  16
TORSDOF 6
ENDMDL
MODEL 8
REMARK VINA RESULT:      -6.0      3.992      6.376
REMARK  Name = 
REMARK  10 active torsions:
REMARK  status: ('A' for Active; 'I' for Inactive)
REMARK    1  A    between atoms: C_1  and  O_2
REMARK    2  A    between atoms: O_2  and  C_3
REMARK    3  A    between atoms: C_6  and  N_7
REMARK    4  A    between atoms: N_7  and  C_8
REMARK    5  A    between atoms: N_7  and  S_18
REMARK    6  A    between atoms: C_8  and  C_9
REMARK    7  A    between atoms: N_14  and  C_15
REMARK    8  A    between atoms: S_18  and  C_19
REMARK    9  A    between atoms: C_23  and  O_24
REMARK   10  A    between atoms: O_24  and  C_25
REMARK                            x       y       z     vdW  Elec       q    Type
REMARK                         _______ _______ _______ _____ _____    ______ ____
ROOT
ATOM      1  N   UNL     1       6.559   6.169  17.572  0.00  0.00    +0.000 N 
ENDROOT
BRANCH   1   5
ATOM      2  C   UNL     1       2.684   5.084  18.882  0.00  0.00    +0.000 A 
ATOM      3  C   UNL     1       2.875   6.177  18.029  0.00  0.00    +0.000 A 
ATOM      4  C   UNL     1       4.160   6.550  17.638  0.00  0.00    +0.000 A 
ATOM      5  C   UNL     1       5.261   5.833  18.096  0.00  0.00    +0.000 A 
ATOM      6  C   UNL     1       5.079   4.842  19.067  0.00  0.00    +0.000 A 
ATOM      7  C   UNL     1       3.791   4.481  19.493  0.00  0.00    +0.000 A 
BRANCH   2   9
ATOM      8  C   UNL     1       1.123   3.419  18.360  0.00  0.00    +0.000 C 
ATOM      9  O   UNL     1       1.422   4.601  19.111  0.00  0.00    +0.000 OA
ENDBRANCH   2   9
BRANCH   7  10
ATOM     10  O   UNL     1       3.778   3.500  20.450  0.00  0.00    +0.000 OA
ATOM     11  C   UNL     1       4.273   2.220  20.064  0.00  0.00    +0.000 C 
ENDBRANCH   7  10
ENDBRANCH   1   5
BRANCH   1  12
ATOM     12  S   UNL     1       7.244   5.100  16.450  0.00  0.00    +0.000 S 
ATOM     13  C   UNL     1       5.838   4.159  15.881  0.00  0.00    +0.000 C 
ATOM     14  O   UNL     1       7.720   5.890  15.332  0.00  0.00    +0.000 OA
ATOM     15  O   UNL     1       8.142   4.193  17.134  0.00  0.00    +0.000 OA
ENDBRANCH   1  12
BRANCH   1  16
ATOM     16  C   UNL     1       6.908   7.602  17.421  0.00  0.00    +0.000 C 
BRANCH  16  17
ATOM     17  C   UNL     1       8.087   8.065  18.276  0.00  0.00    +0.000 C 
ATOM     18  O   UNL     1       8.632   7.256  19.034  0.00  0.00    +0.000 OA
ATOM     19  N   UNL     1       8.510   9.397  18.207  0.00  0.00    +0.000 N 
ATOM     20  C   UNL     1       9.500   9.808  19.210  0.00  0.00    +0.000 C 
ATOM     21  C   UNL     1      10.189  11.149  18.908  0.00  0.00    +0.000 C 
ATOM     22  N   UNL     1       9.272  12.249  18.554  0.00  0.00    +0.000 NA
ATOM     23  C   UNL     1       8.514  12.722  19.710  0.00  0.00    +0.000 C 
ATOM     24  C   UNL     1       8.403  11.807  17.448  0.00  0.00    +0.000 C 
ATOM     25  C   UNL     1       7.665  10.466  17.664  0.00  0.00    +0.000 C 
ENDBRANCH  16  17
ENDBRANCH   1  16
TORSDOF 6
ENDMDL
MODEL 9
REMARK VINA RESULT:      -5.9      1.705      1.889
REMARK  Name = 
REMARK  10 active torsions:
REMARK  status: ('A' for Active; 'I' for Inactive)
REMARK    1  A    between atoms: C_1  and  O_2
REMARK    2  A    between atoms: O_2  and  C_3
REMARK    3  A    between atoms: C_6  and  N_7
REMARK    4  A    between atoms: N_7  and  C_8
REMARK    5  A    between atoms: N_7  and  S_18
REMARK    6  A    between atoms: C_8  and  C_9
REMARK    7  A    between atoms: N_14  and  C_15
REMARK    8  A    between atoms: S_18  and  C_19
REMARK    9  A    between atoms: C_23  and  O_24
REMARK   10  A    between atoms: O_24  and  C_25
REMARK                            x       y       z     vdW  Elec       q    Type
REMARK                         _______ _______ _______ _____ _____    ______ ____
ROOT
ATOM      1  N   UNL     1       2.569   6.058  18.826  0.00  0.00    +0.000 N 
ENDROOT
BRANCH   1   5
ATOM      2  C   UNL     1       5.515   5.581  15.825  0.00  0.00    +0.000 A 
ATOM      3  C   UNL     1       4.528   4.609  16.025  0.00  0.00    +0.000 A 
ATOM      4  C   UNL     1       3.589   4.757  17.044  0.00  0.00    +0.000 A 
ATOM      5  C   UNL     1       3.628   5.878  17.868  0.00  0.00    +0.000 A 
ATOM      6  C   UNL     1       4.704   6.767  17.766  0.00  0.00    +0.000 A 
ATOM      7  C   UNL     1       5.674   6.608  16.763  0.00  0.00    +0.000 A 
BRANCH   2   9
ATOM      8  C   UNL     1       7.368   4.570  14.812  0.00  0.00    +0.000 C 
ATOM      9  O   UNL     1       6.313   5.534  14.712  0.00  0.00    +0.000 OA
ENDBRANCH   2   9
BRANCH   7  10
ATOM     10  O   UNL     1       6.665   7.556  16.796  0.00  0.00    +0.000 OA
ATOM     11  C   UNL     1       7.712   7.357  17.742  0.00  0.00    +0.000 C 
ENDBRANCH   7  10
ENDBRANCH   1   5
BRANCH   1  12
ATOM     12  S   UNL     1       2.014   4.680  19.638  0.00  0.00    +0.000 S 
ATOM     13  C   UNL     1       3.516   3.774  19.968  0.00  0.00    +0.000 C 
ATOM     14  O   UNL     1       1.478   5.113  20.913  0.00  0.00    +0.000 OA
ATOM     15  O   UNL     1       1.201   3.886  18.740  0.00  0.00    +0.000 OA
ENDBRANCH   1  12
BRANCH   1  16
ATOM     16  C   UNL     1       2.506   7.339  19.572  0.00  0.00    +0.000 C 
BRANCH  16  17
ATOM     17  C   UNL     1       1.687   8.434  18.891  0.00  0.00    +0.000 C 
ATOM     18  O   UNL     1       1.831   8.625  17.679  0.00  0.00    +0.000 OA
ATOM     19  N   UNL     1       0.812   9.218  19.652  0.00  0.00    +0.000 N 
ATOM     20  C   UNL     1       0.231  10.378  18.966  0.00  0.00    +0.000 C 
ATOM     21  C   UNL     1      -0.964  11.013  19.698  0.00  0.00    +0.000 C 
ATOM     22  N   UNL     1      -0.743  11.272  21.133  0.00  0.00    +0.000 NA
ATOM     23  C   UNL     1       0.181  12.384  21.352  0.00  0.00    +0.000 C 
ATOM     24  C   UNL     1      -0.292  10.026  21.779  0.00  0.00    +0.000 C 
ATOM     25  C   UNL     1       0.910   9.316  21.112  0.00  0.00    +0.000 C 
ENDBRANCH  16  17
ENDBRANCH   1  16
TORSDOF 6
ENDMDL
