MODEL 1
REMARK VINA RESULT:      -7.2      0.000      0.000
REMARK  Name = 
REMARK  3 active torsions:
REMARK  status: ('A' for Active; 'I' for Inactive)
REMARK    1  A    between atoms: C_1  and  C_2
REMARK    2  A    between atoms: C_2  and  N_3
REMARK    3  A    between atoms: N_12  and  C_13
REMARK                            x       y       z     vdW  Elec       q    Type
REMARK                         _______ _______ _______ _____ _____    ______ ____
ROOT
ATOM      1  N   UNL     1       0.973  10.281  18.857  0.00  0.00    +0.000 N 
ATOM      2  C   UNL     1      -0.273  10.912  18.903  0.00  0.00    +0.000 A 
ATOM      3  N   UNL     1      -0.991  11.051  17.759  0.00  0.00    +0.000 NA
ATOM      4  C   UNL     1      -2.237  11.584  17.838  0.00  0.00    +0.000 A 
ATOM      5  C   UNL     1      -2.800  12.066  19.005  0.00  0.00    +0.000 A 
ATOM      6  C   UNL     1      -2.044  11.976  20.160  0.00  0.00    +0.000 A 
ATOM      7  C   UNL     1      -0.788  11.364  20.103  0.00  0.00    +0.000 A 
ATOM      8  C   UNL     1      -0.068  11.176  21.356  0.00  0.00    +0.000 C 
ATOM      9  O   UNL     1       0.017  12.133  22.124  0.00  0.00    +0.000 OA
ATOM     10  N   UNL     1       0.177   9.858  21.721  0.00  0.00    +0.000 N 
ATOM     11  C   UNL     1      -0.168   9.533  23.096  0.00  0.00    +0.000 C 
ATOM     12  C   UNL     1       0.843   8.884  20.888  0.00  0.00    +0.000 A 
ATOM     13  C   UNL     1       1.131   7.624  21.434  0.00  0.00    +0.000 A 
ATOM     14  C   UNL     1       1.871   6.676  20.736  0.00  0.00    +0.000 A 
ATOM     15  C   UNL     1       2.354   7.007  19.486  0.00  0.00    +0.000 A 
ATOM     16  N   UNL     1       3.097   6.037  18.736  0.00  0.00    +0.000 N 
ATOM     17  C   UNL     1       3.362   4.722  19.083  0.00  0.00    +0.000 A 
ATOM     18  C   UNL     1       4.094   4.128  18.080  0.00  0.00    +0.000 A 
ATOM     19  C   UNL     1       4.296   5.097  17.076  0.00  0.00    +0.000 A 
ATOM     20  C   UNL     1       3.669   6.256  17.497  0.00  0.00    +0.000 A 
ATOM     21  N   UNL     1       2.115   8.222  18.929  0.00  0.00    +0.000 NA
ATOM     22  C   UNL     1       1.333   9.137  19.582  0.00  0.00    +0.000 A 
ENDROOT
BRANCH   1  24
ATOM     23  C   UNL     1       2.305  12.260  18.381  0.00  0.00    +0.000 C 
ATOM     24  C   UNL     1       1.934  10.851  17.914  0.00  0.00    +0.000 C 
ENDBRANCH   1  24
TORSDOF 1
ENDMDL
MODEL 2
REMARK VINA RESULT:      -7.1      2.714      7.518
REMARK  Name = 
REMARK  3 active torsions:
REMARK  status: ('A' for Active; 'I' for Inactive)
REMARK    1  A    between atoms: C_1  and  C_2
REMARK    2  A    between atoms: C_2  and  N_3
REMARK    3  A    between atoms: N_12  and  C_13
REMARK                            x       y       z     vdW  Elec       q    Type
REMARK                         _______ _______ _______ _____ _____    ______ ____
ROOT
ATOM      1  N   UNL     1       2.371   5.364  19.781  0.00  0.00    +0.000 N 
ATOM      2  C   UNL     1       2.447   4.134  19.124  0.00  0.00    +0.000 A 
ATOM      3  N   UNL     1       1.375   3.299  19.149  0.00  0.00    +0.000 NA
ATOM      4  C   UNL     1       1.434   2.149  18.430  0.00  0.00    +0.000 A 
ATOM      5  C   UNL     1       2.549   1.732  17.727  0.00  0.00    +0.000 A 
ATOM      6  C   UNL     1       3.660   2.556  17.749  0.00  0.00    +0.000 A 
ATOM      7  C   UNL     1       3.585   3.777  18.427  0.00  0.00    +0.000 A 
ATOM      8  C   UNL     1       4.728   4.677  18.332  0.00  0.00    +0.000 C 
ATOM      9  O   UNL     1       5.850   4.210  18.523  0.00  0.00    +0.000 OA
ATOM     10  N   UNL     1       4.485   5.899  17.718  0.00  0.00    +0.000 N 
ATOM     11  C   UNL     1       5.453   6.270  16.696  0.00  0.00    +0.000 C 
ATOM     12  C   UNL     1       3.453   6.829  18.114  0.00  0.00    +0.000 A 
ATOM     13  C   UNL     1       3.404   8.081  17.482  0.00  0.00    +0.000 A 
ATOM     14  C   UNL     1       2.515   9.070  17.888  0.00  0.00    +0.000 A 
ATOM     15  C   UNL     1       1.687   8.812  18.963  0.00  0.00    +0.000 A 
ATOM     16  N   UNL     1       0.745   9.807  19.383  0.00  0.00    +0.000 N 
ATOM     17  C   UNL     1       0.492  11.035  18.793  0.00  0.00    +0.000 A 
ATOM     18  C   UNL     1      -0.498  11.681  19.499  0.00  0.00    +0.000 A 
ATOM     19  C   UNL     1      -0.877  10.836  20.562  0.00  0.00    +0.000 A 
ATOM     20  C   UNL     1      -0.108   9.690  20.465  0.00  0.00    +0.000 A 
ATOM     21  N   UNL     1       1.717   7.621  19.615  0.00  0.00    +0.000 NA
ATOM     22  C   UNL     1       2.543   6.619  19.181  0.00  0.00    +0.000 A 
ENDROOT
BRANCH   1  24
ATOM     23  C   UNL     1       2.365   3.913  21.732  0.00  0.00    +0.000 C 
ATOM     24  C   UNL     1       2.016   5.303  21.198  0.00  0.00    +0.000 C 
ENDBRANCH   1  24
TORSDOF 1
ENDMDL
MODEL 3
REMARK VINA RESULT:      -6.5      8.780     11.051
REMARK  Name = 
REMARK  3 active torsions:
REMARK  status: ('A' for Active; 'I' for Inactive)
REMARK    1  A    between atoms: C_1  and  C_2
REMARK    2  A    between atoms: C_2  and  N_3
REMARK    3  A    between atoms: N_12  and  C_13
REMARK                            x       y       z     vdW  Elec       q    Type
REMARK                         _______ _______ _______ _____ _____    ______ ____
ROOT
ATOM      1  N   UNL     1       8.943  14.900  19.021  0.00  0.00    +0.000 N 
ATOM      2  C   UNL     1       9.931  15.738  18.500  0.00  0.00    +0.000 A 
ATOM      3  N   UNL     1       9.922  17.058  18.821  0.00  0.00    +0.000 NA
ATOM      4  C   UNL     1      10.941  17.839  18.379  0.00  0.00    +0.000 A 
ATOM      5  C   UNL     1      11.958  17.391  17.557  0.00  0.00    +0.000 A 
ATOM      6  C   UNL     1      11.935  16.060  17.183  0.00  0.00    +0.000 A 
ATOM      7  C   UNL     1      10.930  15.230  17.690  0.00  0.00    +0.000 A 
ATOM      8  C   UNL     1      11.000  13.809  17.376  0.00  0.00    +0.000 C 
ATOM      9  O   UNL     1      11.199  13.483  16.207  0.00  0.00    +0.000 OA
ATOM     10  N   UNL     1      11.163  12.957  18.462  0.00  0.00    +0.000 N 
ATOM     11  C   UNL     1      12.214  11.964  18.305  0.00  0.00    +0.000 C 
ATOM     12  C   UNL     1      10.299  12.926  19.620  0.00  0.00    +0.000 A 
ATOM     13  C   UNL     1      10.512  11.929  20.584  0.00  0.00    +0.000 A 
ATOM     14  C   UNL     1       9.653  11.763  21.665  0.00  0.00    +0.000 A 
ATOM     15  C   UNL     1       8.549  12.587  21.763  0.00  0.00    +0.000 A 
ATOM     16  N   UNL     1       7.664  12.452  22.882  0.00  0.00    +0.000 N 
ATOM     17  C   UNL     1       7.800  11.605  23.970  0.00  0.00    +0.000 A 
ATOM     18  C   UNL     1       6.741  11.797  24.828  0.00  0.00    +0.000 A 
ATOM     19  C   UNL     1       5.916  12.791  24.264  0.00  0.00    +0.000 A 
ATOM     20  C   UNL     1       6.507  13.183  23.076  0.00  0.00    +0.000 A 
ATOM     21  N   UNL     1       8.296  13.551  20.841  0.00  0.00    +0.000 NA
ATOM     22  C   UNL     1       9.171  13.764  19.810  0.00  0.00    +0.000 A 
ENDROOT
BRANCH   1  24
ATOM     23  C   UNL     1       6.995  14.426  17.644  0.00  0.00    +0.000 C 
ATOM     24  C   UNL     1       7.564  15.309  18.756  0.00  0.00    +0.000 C 
ENDBRANCH   1  24
TORSDOF 1
ENDMDL
MODEL 4
REMARK VINA RESULT:      -6.5      5.227      7.164
REMARK  Name = 
REMARK  3 active torsions:
REMARK  status: ('A' for Active; 'I' for Inactive)
REMARK    1  A    between atoms: C_1  and  C_2
REMARK    2  A    between atoms: C_2  and  N_3
REMARK    3  A    between atoms: N_12  and  C_13
REMARK                            x       y       z     vdW  Elec       q    Type
REMARK                         _______ _______ _______ _____ _____    ______ ____
ROOT
ATOM      1  N   UNL     1      -2.066  12.596  22.060  0.00  0.00    +0.000 N 
ATOM      2  C   UNL     1      -1.905  13.646  22.967  0.00  0.00    +0.000 A 
ATOM      3  N   UNL     1      -0.845  14.486  22.831  0.00  0.00    +0.000 NA
ATOM      4  C   UNL     1      -0.755  15.553  23.665  0.00  0.00    +0.000 A 
ATOM      5  C   UNL     1      -1.637  15.803  24.700  0.00  0.00    +0.000 A 
ATOM      6  C   UNL     1      -2.683  14.916  24.873  0.00  0.00    +0.000 A 
ATOM      7  C   UNL     1      -2.827  13.853  23.975  0.00  0.00    +0.000 A 
ATOM      8  C   UNL     1      -4.005  13.005  24.110  0.00  0.00    +0.000 C 
ATOM      9  O   UNL     1      -4.293  12.589  25.231  0.00  0.00    +0.000 OA
ATOM     10  N   UNL     1      -4.878  13.007  23.030  0.00  0.00    +0.000 N 
ATOM     11  C   UNL     1      -6.277  13.196  23.378  0.00  0.00    +0.000 C 
ATOM     12  C   UNL     1      -4.500  12.715  21.666  0.00  0.00    +0.000 A 
ATOM     13  C   UNL     1      -5.512  12.633  20.697  0.00  0.00    +0.000 A 
ATOM     14  C   UNL     1      -5.241  12.243  19.390  0.00  0.00    +0.000 A 
ATOM     15  C   UNL     1      -3.946  11.899  19.059  0.00  0.00    +0.000 A 
ATOM     16  N   UNL     1      -3.638  11.519  17.712  0.00  0.00    +0.000 N 
ATOM     17  C   UNL     1      -4.492  11.504  16.621  0.00  0.00    +0.000 A 
ATOM     18  C   UNL     1      -3.798  11.089  15.507  0.00  0.00    +0.000 A 
ATOM     19  C   UNL     1      -2.470  10.836  15.909  0.00  0.00    +0.000 A 
ATOM     20  C   UNL     1      -2.395  11.115  17.262  0.00  0.00    +0.000 A 
ATOM     21  N   UNL     1      -2.941  11.946  19.972  0.00  0.00    +0.000 NA
ATOM     22  C   UNL     1      -3.186  12.391  21.243  0.00  0.00    +0.000 A 
ENDROOT
BRANCH   1  24
ATOM     23  C   UNL     1      -0.985  10.659  23.058  0.00  0.00    +0.000 C 
ATOM     24  C   UNL     1      -0.925  11.692  21.931  0.00  0.00    +0.000 C 
ENDBRANCH   1  24
TORSDOF 1
ENDMDL
MODEL 5
REMARK VINA RESULT:      -6.4      1.838      2.779
REMARK  Name = 
REMARK  3 active torsions:
REMARK  status: ('A' for Active; 'I' for Inactive)
REMARK    1  A    between atoms: C_1  and  C_2
REMARK    2  A    between atoms: C_2  and  N_3
REMARK    3  A    between atoms: N_12  and  C_13
REMARK                            x       y       z     vdW  Elec       q    Type
REMARK                         _______ _______ _______ _____ _____    ______ ____
ROOT
ATOM      1  N   UNL     1      -1.410  11.825  19.077  0.00  0.00    +0.000 N 
ATOM      2  C   UNL     1      -2.770  12.106  19.223  0.00  0.00    +0.000 A 
ATOM      3  N   UNL     1      -3.619  11.844  18.195  0.00  0.00    +0.000 NA
ATOM      4  C   UNL     1      -4.949  12.038  18.388  0.00  0.00    +0.000 A 
ATOM      5  C   UNL     1      -5.494  12.560  19.546  0.00  0.00    +0.000 A 
ATOM      6  C   UNL     1      -4.624  12.880  20.572  0.00  0.00    +0.000 A 
ATOM      7  C   UNL     1      -3.259  12.617  20.411  0.00  0.00    +0.000 A 
ATOM      8  C   UNL     1      -2.383  12.853  21.551  0.00  0.00    +0.000 C 
ATOM      9  O   UNL     1      -2.490  13.921  22.152  0.00  0.00    +0.000 OA
ATOM     10  N   UNL     1      -1.738  11.733  22.060  0.00  0.00    +0.000 N 
ATOM     11  C   UNL     1      -1.825  11.583  23.504  0.00  0.00    +0.000 C 
ATOM     12  C   UNL     1      -0.918  10.832  21.283  0.00  0.00    +0.000 A 
ATOM     13  C   UNL     1      -0.227   9.811  21.954  0.00  0.00    +0.000 A 
ATOM     14  C   UNL     1       0.670   8.980  21.293  0.00  0.00    +0.000 A 
ATOM     15  C   UNL     1       0.901   9.194  19.949  0.00  0.00    +0.000 A 
ATOM     16  N   UNL     1       1.802   8.333  19.241  0.00  0.00    +0.000 N 
ATOM     17  C   UNL     1       2.464   7.218  19.728  0.00  0.00    +0.000 A 
ATOM     18  C   UNL     1       3.221   6.664  18.720  0.00  0.00    +0.000 A 
ATOM     19  C   UNL     1       3.031   7.454  17.568  0.00  0.00    +0.000 A 
ATOM     20  C   UNL     1       2.150   8.465  17.910  0.00  0.00    +0.000 A 
ATOM     21  N   UNL     1       0.269  10.183  19.266  0.00  0.00    +0.000 NA
ATOM     22  C   UNL     1      -0.664  10.965  19.894  0.00  0.00    +0.000 A 
ENDROOT
BRANCH   1  24
ATOM     23  C   UNL     1      -0.223  13.817  18.342  0.00  0.00    +0.000 C 
ATOM     24  C   UNL     1      -0.757  12.446  17.925  0.00  0.00    +0.000 C 
ENDBRANCH   1  24
TORSDOF 1
ENDMDL
MODEL 6
REMARK VINA RESULT:      -6.3      3.701      8.631
REMARK  Name = 
REMARK  3 active torsions:
REMARK  status: ('A' for Active; 'I' for Inactive)
REMARK    1  A    between atoms: C_1  and  C_2
REMARK    2  A    between atoms: C_2  and  N_3
REMARK    3  A    between atoms: N_12  and  C_13
REMARK                            x       y       z     vdW  Elec       q    Type
REMARK                         _______ _______ _______ _____ _____    ______ ____
ROOT
ATOM      1  N   UNL     1      -1.482  12.577  22.105  0.00  0.00    +0.000 N 
ATOM      2  C   UNL     1      -0.732  11.399  22.076  0.00  0.00    +0.000 A 
ATOM      3  N   UNL     1      -0.526  10.713  23.231  0.00  0.00    +0.000 NA
ATOM      4  C   UNL     1       0.127   9.525  23.170  0.00  0.00    +0.000 A 
ATOM      5  C   UNL     1       0.667   8.998  22.012  0.00  0.00    +0.000 A 
ATOM      6  C   UNL     1       0.508   9.725  20.847  0.00  0.00    +0.000 A 
ATOM      7  C   UNL     1      -0.226  10.916  20.885  0.00  0.00    +0.000 A 
ATOM      8  C   UNL     1      -0.479  11.598  19.622  0.00  0.00    +0.000 C 
ATOM      9  O   UNL     1       0.468  11.766  18.856  0.00  0.00    +0.000 OA
ATOM     10  N   UNL     1      -1.813  11.706  19.250  0.00  0.00    +0.000 N 
ATOM     11  C   UNL     1      -2.097  11.313  17.879  0.00  0.00    +0.000 C 
ATOM     12  C   UNL     1      -2.852  12.283  20.072  0.00  0.00    +0.000 A 
ATOM     13  C   UNL     1      -4.132  12.439  19.518  0.00  0.00    +0.000 A 
ATOM     14  C   UNL     1      -5.151  13.090  20.203  0.00  0.00    +0.000 A 
ATOM     15  C   UNL     1      -4.874  13.620  21.448  0.00  0.00    +0.000 A 
ATOM     16  N   UNL     1      -5.915  14.273  22.185  0.00  0.00    +0.000 N 
ATOM     17  C   UNL     1      -7.249  14.402  21.831  0.00  0.00    +0.000 A 
ATOM     18  C   UNL     1      -7.916  15.085  22.822  0.00  0.00    +0.000 A 
ATOM     19  C   UNL     1      -6.976  15.395  23.826  0.00  0.00    +0.000 A 
ATOM     20  C   UNL     1      -5.760  14.880  23.418  0.00  0.00    +0.000 A 
ATOM     21  N   UNL     1      -3.643  13.509  22.012  0.00  0.00    +0.000 NA
ATOM     22  C   UNL     1      -2.653  12.813  21.372  0.00  0.00    +0.000 A 
ENDROOT
BRANCH   1  24
ATOM     23  C   UNL     1      -0.006  14.499  22.315  0.00  0.00    +0.000 C 
ATOM     24  C   UNL     1      -1.014  13.602  23.036  0.00  0.00    +0.000 C 
ENDBRANCH   1  24
TORSDOF 1
ENDMDL
MODEL 7
REMARK VINA RESULT:      -6.3      5.215      7.194
REMARK  Name = 
REMARK  3 active torsions:
REMARK  status: ('A' for Active; 'I' for Inactive)
REMARK    1  A    between atoms: C_1  and  C_2
REMARK    2  A    between atoms: C_2  and  N_3
REMARK    3  A    between atoms: N_12  and  C_13
REMARK                            x       y       z     vdW  Elec       q    Type
REMARK                         _______ _______ _______ _____ _____    ______ ____
ROOT
ATOM      1  N   UNL     1      -5.583  13.171  20.349  0.00  0.00    +0.000 N 
ATOM      2  C   UNL     1      -6.125  13.028  21.628  0.00  0.00    +0.000 A 
ATOM      3  N   UNL     1      -7.313  12.387  21.780  0.00  0.00    +0.000 NA
ATOM      4  C   UNL     1      -7.779  12.178  23.038  0.00  0.00    +0.000 A 
ATOM      5  C   UNL     1      -7.156  12.642  24.181  0.00  0.00    +0.000 A 
ATOM      6  C   UNL     1      -5.975  13.344  24.022  0.00  0.00    +0.000 A 
ATOM      7  C   UNL     1      -5.449  13.503  22.736  0.00  0.00    +0.000 A 
ATOM      8  C   UNL     1      -4.145  14.142  22.610  0.00  0.00    +0.000 C 
ATOM      9  O   UNL     1      -3.952  15.189  23.226  0.00  0.00    +0.000 OA
ATOM     10  N   UNL     1      -3.134  13.353  22.076  0.00  0.00    +0.000 N 
ATOM     11  C   UNL     1      -1.889  13.365  22.829  0.00  0.00    +0.000 C 
ATOM     12  C   UNL     1      -3.210  12.666  20.808  0.00  0.00    +0.000 A 
ATOM     13  C   UNL     1      -2.066  12.005  20.336  0.00  0.00    +0.000 A 
ATOM     14  C   UNL     1      -2.026  11.420  19.076  0.00  0.00    +0.000 A 
ATOM     15  C   UNL     1      -3.138  11.528  18.264  0.00  0.00    +0.000 A 
ATOM     16  N   UNL     1      -3.130  10.911  16.970  0.00  0.00    +0.000 N 
ATOM     17  C   UNL     1      -2.132  10.129  16.412  0.00  0.00    +0.000 A 
ATOM     18  C   UNL     1      -2.525   9.720  15.158  0.00  0.00    +0.000 A 
ATOM     19  C   UNL     1      -3.805  10.260  14.921  0.00  0.00    +0.000 A 
ATOM     20  C   UNL     1      -4.158  10.979  16.049  0.00  0.00    +0.000 A 
ATOM     21  N   UNL     1      -4.259  12.176  18.674  0.00  0.00    +0.000 NA
ATOM     22  C   UNL     1      -4.330  12.697  19.938  0.00  0.00    +0.000 A 
ENDROOT
BRANCH   1  24
ATOM     23  C   UNL     1      -6.353  15.333  19.543  0.00  0.00    +0.000 C 
ATOM     24  C   UNL     1      -6.450  13.817  19.364  0.00  0.00    +0.000 C 
ENDBRANCH   1  24
TORSDOF 1
ENDMDL
MODEL 8
REMARK VINA RESULT:      -6.1      3.434      8.195
REMARK  Name = 
REMARK  3 active torsions:
REMARK  status: ('A' for Active; 'I' for Inactive)
REMARK    1  A    between atoms: C_1  and  C_2
REMARK    2  A    between atoms: C_2  and  N_3
REMARK    3  A    between atoms: N_12  and  C_13
REMARK                            x       y       z     vdW  Elec       q    Type
REMARK                         _______ _______ _______ _____ _____    ______ ____
ROOT
ATOM      1  N   UNL     1      -1.405  12.314  21.350  0.00  0.00    +0.000 N 
ATOM      2  C   UNL     1      -0.638  11.184  21.644  0.00  0.00    +0.000 A 
ATOM      3  N   UNL     1      -0.559  10.748  22.928  0.00  0.00    +0.000 NA
ATOM      4  C   UNL     1       0.115   9.598  23.182  0.00  0.00    +0.000 A 
ATOM      5  C   UNL     1       0.795   8.873  22.221  0.00  0.00    +0.000 A 
ATOM      6  C   UNL     1       0.763   9.348  20.923  0.00  0.00    +0.000 A 
ATOM      7  C   UNL     1       0.011  10.493  20.638  0.00  0.00    +0.000 A 
ATOM      8  C   UNL     1      -0.102  10.901  19.244  0.00  0.00    +0.000 C 
ATOM      9  O   UNL     1       0.925  10.950  18.570  0.00  0.00    +0.000 OA
ATOM     10  N   UNL     1      -1.385  10.881  18.711  0.00  0.00    +0.000 N 
ATOM     11  C   UNL     1      -1.500  10.214  17.424  0.00  0.00    +0.000 C 
ATOM     12  C   UNL     1      -2.522  11.570  19.277  0.00  0.00    +0.000 A 
ATOM     13  C   UNL     1      -3.730  11.563  18.564  0.00  0.00    +0.000 A 
ATOM     14  C   UNL     1      -4.833  12.297  18.986  0.00  0.00    +0.000 A 
ATOM     15  C   UNL     1      -4.712  13.074  20.121  0.00  0.00    +0.000 A 
ATOM     16  N   UNL     1      -5.842  13.820  20.591  0.00  0.00    +0.000 N 
ATOM     17  C   UNL     1      -7.127  13.825  20.071  0.00  0.00    +0.000 A 
ATOM     18  C   UNL     1      -7.917  14.665  20.823  0.00  0.00    +0.000 A 
ATOM     19  C   UNL     1      -7.106  15.204  21.843  0.00  0.00    +0.000 A 
ATOM     20  C   UNL     1      -5.842  14.664  21.685  0.00  0.00    +0.000 A 
ATOM     21  N   UNL     1      -3.554  13.125  20.830  0.00  0.00    +0.000 NA
ATOM     22  C   UNL     1      -2.485  12.355  20.458  0.00  0.00    +0.000 A 
ENDROOT
BRANCH   1  24
ATOM     23  C   UNL     1       0.238  14.096  21.545  0.00  0.00    +0.000 C 
ATOM     24  C   UNL     1      -1.065  13.520  22.102  0.00  0.00    +0.000 C 
ENDBRANCH   1  24
TORSDOF 1
ENDMDL
MODEL 9
REMARK VINA RESULT:      -6.0      4.411      6.677
REMARK  Name = 
REMARK  3 active torsions:
REMARK  status: ('A' for Active; 'I' for Inactive)
REMARK    1  A    between atoms: C_1  and  C_2
REMARK    2  A    between atoms: C_2  and  N_3
REMARK    3  A    between atoms: N_12  and  C_13
REMARK                            x       y       z     vdW  Elec       q    Type
REMARK                         _______ _______ _______ _____ _____    ______ ____
ROOT
ATOM      1  N   UNL     1      -4.699  13.078  21.227  0.00  0.00    +0.000 N 
ATOM      2  C   UNL     1      -5.781  12.995  22.106  0.00  0.00    +0.000 A 
ATOM      3  N   UNL     1      -6.754  12.074  21.881  0.00  0.00    +0.000 NA
ATOM      4  C   UNL     1      -7.749  11.947  22.795  0.00  0.00    +0.000 A 
ATOM      5  C   UNL     1      -7.880  12.750  23.912  0.00  0.00    +0.000 A 
ATOM      6  C   UNL     1      -6.921  13.726  24.111  0.00  0.00    +0.000 A 
ATOM      7  C   UNL     1      -5.851  13.819  23.214  0.00  0.00    +0.000 A 
ATOM      8  C   UNL     1      -4.794  14.776  23.515  0.00  0.00    +0.000 C 
ATOM      9  O   UNL     1      -5.121  15.920  23.827  0.00  0.00    +0.000 OA
ATOM     10  N   UNL     1      -3.535  14.234  23.741  0.00  0.00    +0.000 N 
ATOM     11  C   UNL     1      -2.867  14.725  24.936  0.00  0.00    +0.000 C 
ATOM     12  C   UNL     1      -2.841  13.357  22.827  0.00  0.00    +0.000 A 
ATOM     13  C   UNL     1      -1.522  12.985  23.131  0.00  0.00    +0.000 A 
ATOM     14  C   UNL     1      -0.751  12.239  22.247  0.00  0.00    +0.000 A 
ATOM     15  C   UNL     1      -1.297  11.889  21.028  0.00  0.00    +0.000 A 
ATOM     16  N   UNL     1      -0.531  11.099  20.111  0.00  0.00    +0.000 N 
ATOM     17  C   UNL     1       0.729  10.557  20.310  0.00  0.00    +0.000 A 
ATOM     18  C   UNL     1       1.102   9.853  19.187  0.00  0.00    +0.000 A 
ATOM     19  C   UNL     1       0.048   9.957  18.256  0.00  0.00    +0.000 A 
ATOM     20  C   UNL     1      -0.945  10.718  18.848  0.00  0.00    +0.000 A 
ATOM     21  N   UNL     1      -2.563  12.246  20.687  0.00  0.00    +0.000 NA
ATOM     22  C   UNL     1      -3.351  12.923  21.577  0.00  0.00    +0.000 A 
ENDROOT
BRANCH   1  24
ATOM     23  C   UNL     1      -5.814  14.592  19.684  0.00  0.00    +0.000 C 
ATOM     24  C   UNL     1      -5.043  13.278  19.820  0.00  0.00    +0.000 C 
ENDBRANCH   1  24
TORSDOF 1
ENDMDL
