MODEL 1
REMARK VINA RESULT:      -8.6      0.000      0.000
REMARK  Name = 
REMARK  6 active torsions:
REMARK  status: ('A' for Active; 'I' for Inactive)
REMARK    1  A    between atoms: C_1  and  C_2
REMARK    2  A    between atoms: C_4  and  N_5
REMARK    3  A    between atoms: C_6  and  C_8
REMARK    4  A    between atoms: C_8  and  C_9
REMARK    5  A    between atoms: C_13  and  C_14
REMARK    6  A    between atoms: N_21  and  C_22
REMARK                            x       y       z     vdW  Elec       q    Type
REMARK                         _______ _______ _______ _____ _____    ______ ____
ROOT
ATOM      1  N   UNL     1       5.295   3.084  16.777  0.00  0.00    +0.000 N 
ATOM      2  C   UNL     1       3.872   3.246  16.908  0.00  0.00    +0.000 C 
ATOM      3  O   UNL     1       3.287   4.109  16.266  0.00  0.00    +0.000 OA
ATOM      4  H   UNL     1       5.800   2.454  17.388  0.00  0.00    +0.000 HD
ENDROOT
BRANCH   1   8
ATOM      5  C   UNL     1       7.463   5.111  12.781  0.00  0.00    +0.000 C 
ATOM      6  C   UNL     1       7.001   4.794  14.154  0.00  0.00    +0.000 A 
ATOM      7  C   UNL     1       6.251   3.674  14.582  0.00  0.00    +0.000 A 
ATOM      8  C   UNL     1       6.018   3.894  15.918  0.00  0.00    +0.000 A 
ATOM      9  N   UNL     1       6.568   5.127  16.203  0.00  0.00    +0.000 N 
ATOM     10  N   UNL     1       7.244   5.644  15.160  0.00  0.00    +0.000 NA
BRANCH   9  11
ATOM     11  C   UNL     1       6.140   5.991  17.307  0.00  0.00    +0.000 C 
ATOM     12  C   UNL     1       6.603   5.555  18.706  0.00  0.00    +0.000 C 
ATOM     13  C   UNL     1       8.012   6.007  19.087  0.00  0.00    +0.000 C 
ATOM     14  C   UNL     1       8.256   7.483  18.791  0.00  0.00    +0.000 C 
ATOM     15  C   UNL     1       7.933   7.827  17.345  0.00  0.00    +0.000 C 
ATOM     16  C   UNL     1       6.486   7.462  17.005  0.00  0.00    +0.000 C 
ENDBRANCH   9  11
ENDBRANCH   1   8
BRANCH   2  17
ATOM     17  C   UNL     1       3.203   2.334  17.908  0.00  0.00    +0.000 C 
BRANCH  17  18
ATOM     18  C   UNL     1       2.757   3.066  19.142  0.00  0.00    +0.000 A 
ATOM     19  C   UNL     1       2.580   2.385  20.350  0.00  0.00    +0.000 A 
ATOM     20  C   UNL     1       2.180   3.079  21.489  0.00  0.00    +0.000 A 
ATOM     21  C   UNL     1       1.938   4.455  21.426  0.00  0.00    +0.000 A 
ATOM     22  C   UNL     1       2.084   5.172  20.226  0.00  0.00    +0.000 A 
ATOM     23  C   UNL     1       2.502   4.447  19.093  0.00  0.00    +0.000 A 
BRANCH  22  24
ATOM     24  C   UNL     1       1.814   6.629  20.144  0.00  0.00    +0.000 A 
ATOM     25  C   UNL     1       2.168   7.386  19.014  0.00  0.00    +0.000 A 
ATOM     26  C   UNL     1       1.906   8.760  18.940  0.00  0.00    +0.000 A 
ATOM     27  C   UNL     1       1.268   9.406  19.995  0.00  0.00    +0.000 A 
ATOM     28  C   UNL     1       0.901   8.686  21.122  0.00  0.00    +0.000 A 
ATOM     29  C   UNL     1       1.179   7.316  21.199  0.00  0.00    +0.000 A 
ENDBRANCH  22  24
ENDBRANCH  17  18
ENDBRANCH   2  17
TORSDOF 5
ENDMDL
MODEL 2
REMARK VINA RESULT:      -8.5      0.953      1.182
REMARK  Name = 
REMARK  6 active torsions:
REMARK  status: ('A' for Active; 'I' for Inactive)
REMARK    1  A    between atoms: C_1  and  C_2
REMARK    2  A    between atoms: C_4  and  N_5
REMARK    3  A    between atoms: C_6  and  C_8
REMARK    4  A    between atoms: C_8  and  C_9
REMARK    5  A    between atoms: C_13  and  C_14
REMARK    6  A    between atoms: N_21  and  C_22
REMARK                            x       y       z     vdW  Elec       q    Type
REMARK                         _______ _______ _______ _____ _____    ______ ____
ROOT
ATOM      1  N   UNL     1       4.101   4.367  16.074  0.00  0.00    +0.000 N 
ATOM      2  C   UNL     1       3.986   3.209  16.917  0.00  0.00    +0.000 C 
ATOM      3  O   UNL     1       4.949   2.471  17.087  0.00  0.00    +0.000 OA
ATOM      4  H   UNL     1       3.283   4.915  15.836  0.00  0.00    +0.000 HD
ENDROOT
BRANCH   1   8
ATOM      5  C   UNL     1       7.806   4.884  12.790  0.00  0.00    +0.000 C 
ATOM      6  C   UNL     1       6.960   4.888  14.009  0.00  0.00    +0.000 A 
ATOM      7  C   UNL     1       5.676   4.321  14.177  0.00  0.00    +0.000 A 
ATOM      8  C   UNL     1       5.301   4.669  15.452  0.00  0.00    +0.000 A 
ATOM      9  N   UNL     1       6.318   5.458  15.948  0.00  0.00    +0.000 N 
ATOM     10  N   UNL     1       7.372   5.526  15.112  0.00  0.00    +0.000 NA
BRANCH   9  11
ATOM     11  C   UNL     1       6.155   6.452  17.012  0.00  0.00    +0.000 C 
ATOM     12  C   UNL     1       5.210   6.049  18.154  0.00  0.00    +0.000 C 
ATOM     13  C   UNL     1       5.852   5.194  19.247  0.00  0.00    +0.000 C 
ATOM     14  C   UNL     1       7.188   5.754  19.723  0.00  0.00    +0.000 C 
ATOM     15  C   UNL     1       8.144   5.985  18.564  0.00  0.00    +0.000 C 
ATOM     16  C   UNL     1       7.529   6.925  17.523  0.00  0.00    +0.000 C 
ENDBRANCH   9  11
ENDBRANCH   1   8
BRANCH   2  17
ATOM     17  C   UNL     1       2.617   2.963  17.502  0.00  0.00    +0.000 C 
BRANCH  17  18
ATOM     18  C   UNL     1       2.406   3.699  18.796  0.00  0.00    +0.000 A 
ATOM     19  C   UNL     1       2.457   3.023  20.017  0.00  0.00    +0.000 A 
ATOM     20  C   UNL     1       2.274   3.720  21.208  0.00  0.00    +0.000 A 
ATOM     21  C   UNL     1       2.022   5.096  21.186  0.00  0.00    +0.000 A 
ATOM     22  C   UNL     1       1.943   5.809  19.978  0.00  0.00    +0.000 A 
ATOM     23  C   UNL     1       2.144   5.079  18.789  0.00  0.00    +0.000 A 
BRANCH  22  24
ATOM     24  C   UNL     1       1.660   7.265  19.943  0.00  0.00    +0.000 A 
ATOM     25  C   UNL     1       1.867   8.032  18.783  0.00  0.00    +0.000 A 
ATOM     26  C   UNL     1       1.594   9.405  18.754  0.00  0.00    +0.000 A 
ATOM     27  C   UNL     1       1.092  10.041  19.885  0.00  0.00    +0.000 A 
ATOM     28  C   UNL     1       0.871   9.311  21.044  0.00  0.00    +0.000 A 
ATOM     29  C   UNL     1       1.162   7.942  21.074  0.00  0.00    +0.000 A 
ENDBRANCH  22  24
ENDBRANCH  17  18
ENDBRANCH   2  17
TORSDOF 5
ENDMDL
MODEL 3
REMARK VINA RESULT:      -8.3      4.596      8.657
REMARK  Name = 
REMARK  6 active torsions:
REMARK  status: ('A' for Active; 'I' for Inactive)
REMARK    1  A    between atoms: C_1  and  C_2
REMARK    2  A    between atoms: C_4  and  N_5
REMARK    3  A    between atoms: C_6  and  C_8
REMARK    4  A    between atoms: C_8  and  C_9
REMARK    5  A    between atoms: C_13  and  C_14
REMARK    6  A    between atoms: N_21  and  C_22
REMARK                            x       y       z     vdW  Elec       q    Type
REMARK                         _______ _______ _______ _____ _____    ______ ____
ROOT
ATOM      1  N   UNL     1       0.816   9.596  20.072  0.00  0.00    +0.000 N 
ATOM      2  C   UNL     1       0.620   8.485  20.964  0.00  0.00    +0.000 C 
ATOM      3  O   UNL     1      -0.483   8.271  21.450  0.00  0.00    +0.000 OA
ATOM      4  H   UNL     1       1.745   9.848  19.759  0.00  0.00    +0.000 HD
ENDROOT
BRANCH   1   8
ATOM      5  C   UNL     1      -3.332  11.550  18.135  0.00  0.00    +0.000 C 
ATOM      6  C   UNL     1      -2.070  11.316  18.878  0.00  0.00    +0.000 A 
ATOM      7  C   UNL     1      -1.217  10.190  18.809  0.00  0.00    +0.000 A 
ATOM      8  C   UNL     1      -0.241  10.430  19.745  0.00  0.00    +0.000 A 
ATOM      9  N   UNL     1      -0.580  11.620  20.356  0.00  0.00    +0.000 N 
ATOM     10  N   UNL     1      -1.642  12.211  19.777  0.00  0.00    +0.000 NA
BRANCH   9  11
ATOM     11  C   UNL     1      -0.162  12.009  21.705  0.00  0.00    +0.000 C 
ATOM     12  C   UNL     1      -0.071  13.521  21.960  0.00  0.00    +0.000 C 
ATOM     13  C   UNL     1      -1.394  14.191  22.331  0.00  0.00    +0.000 C 
ATOM     14  C   UNL     1      -2.155  13.430  23.412  0.00  0.00    +0.000 C 
ATOM     15  C   UNL     1      -2.357  11.971  23.035  0.00  0.00    +0.000 C 
ATOM     16  C   UNL     1      -1.016  11.284  22.763  0.00  0.00    +0.000 C 
ENDBRANCH   9  11
ENDBRANCH   1   8
BRANCH   2  17
ATOM     17  C   UNL     1       1.856   7.677  21.277  0.00  0.00    +0.000 C 
BRANCH  17  18
ATOM     18  C   UNL     1       1.971   6.450  20.416  0.00  0.00    +0.000 A 
ATOM     19  C   UNL     1       1.215   5.309  20.697  0.00  0.00    +0.000 A 
ATOM     20  C   UNL     1       1.322   4.185  19.883  0.00  0.00    +0.000 A 
ATOM     21  C   UNL     1       2.197   4.187  18.791  0.00  0.00    +0.000 A 
ATOM     22  C   UNL     1       2.989   5.307  18.487  0.00  0.00    +0.000 A 
ATOM     23  C   UNL     1       2.851   6.435  19.322  0.00  0.00    +0.000 A 
BRANCH  22  24
ATOM     24  C   UNL     1       3.933   5.314  17.342  0.00  0.00    +0.000 A 
ATOM     25  C   UNL     1       4.433   6.512  16.802  0.00  0.00    +0.000 A 
ATOM     26  C   UNL     1       5.327   6.512  15.724  0.00  0.00    +0.000 A 
ATOM     27  C   UNL     1       5.753   5.308  15.170  0.00  0.00    +0.000 A 
ATOM     28  C   UNL     1       5.282   4.110  15.685  0.00  0.00    +0.000 A 
ATOM     29  C   UNL     1       4.375   4.113  16.751  0.00  0.00    +0.000 A 
ENDBRANCH  22  24
ENDBRANCH  17  18
ENDBRANCH   2  17
TORSDOF 5
ENDMDL
MODEL 4
REMARK VINA RESULT:      -8.2      3.751      6.295
REMARK  Name = 
REMARK  6 active torsions:
REMARK  status: ('A' for Active; 'I' for Inactive)
REMARK    1  A    between atoms: C_1  and  C_2
REMARK    2  A    between atoms: C_4  and  N_5
REMARK    3  A    between atoms: C_6  and  C_8
REMARK    4  A    between atoms: C_8  and  C_9
REMARK    5  A    between atoms: C_13  and  C_14
REMARK    6  A    between atoms: N_21  and  C_22
REMARK                            x       y       z     vdW  Elec       q    Type
REMARK                         _______ _______ _______ _____ _____    ______ ____
ROOT
ATOM      1  N   UNL     1       2.643   7.514  17.696  0.00  0.00    +0.000 N 
ATOM      2  C   UNL     1       2.020   8.422  18.620  0.00  0.00    +0.000 C 
ATOM      3  O   UNL     1       1.842   8.091  19.786  0.00  0.00    +0.000 OA
ATOM      4  H   UNL     1       2.688   7.734  16.709  0.00  0.00    +0.000 HD
ENDROOT
BRANCH   1   8
ATOM      5  C   UNL     1       2.821   2.745  19.110  0.00  0.00    +0.000 C 
ATOM      6  C   UNL     1       3.147   4.148  18.759  0.00  0.00    +0.000 A 
ATOM      7  C   UNL     1       2.252   5.193  18.432  0.00  0.00    +0.000 A 
ATOM      8  C   UNL     1       3.057   6.260  18.113  0.00  0.00    +0.000 A 
ATOM      9  N   UNL     1       4.355   5.799  18.198  0.00  0.00    +0.000 N 
ATOM     10  N   UNL     1       4.425   4.542  18.675  0.00  0.00    +0.000 NA
BRANCH   9  11
ATOM     11  C   UNL     1       5.490   6.380  17.478  0.00  0.00    +0.000 C 
ATOM     12  C   UNL     1       6.878   5.912  17.943  0.00  0.00    +0.000 C 
ATOM     13  C   UNL     1       7.350   4.593  17.331  0.00  0.00    +0.000 C 
ATOM     14  C   UNL     1       7.159   4.543  15.819  0.00  0.00    +0.000 C 
ATOM     15  C   UNL     1       5.725   4.859  15.424  0.00  0.00    +0.000 C 
ATOM     16  C   UNL     1       5.298   6.229  15.956  0.00  0.00    +0.000 C 
ENDBRANCH   9  11
ENDBRANCH   1   8
BRANCH   2  17
ATOM     17  C   UNL     1       1.574   9.741  18.037  0.00  0.00    +0.000 C 
BRANCH  17  18
ATOM     18  C   UNL     1       0.544  10.425  18.891  0.00  0.00    +0.000 A 
ATOM     19  C   UNL     1       0.846  10.812  20.199  0.00  0.00    +0.000 A 
ATOM     20  C   UNL     1      -0.113  11.458  20.974  0.00  0.00    +0.000 A 
ATOM     21  C   UNL     1      -1.387  11.708  20.453  0.00  0.00    +0.000 A 
ATOM     22  C   UNL     1      -1.737  11.316  19.149  0.00  0.00    +0.000 A 
ATOM     23  C   UNL     1      -0.742  10.675  18.384  0.00  0.00    +0.000 A 
BRANCH  22  24
ATOM     24  C   UNL     1      -3.090  11.561  18.592  0.00  0.00    +0.000 A 
ATOM     25  C   UNL     1      -4.105  12.167  19.353  0.00  0.00    +0.000 A 
ATOM     26  C   UNL     1      -5.380  12.401  18.821  0.00  0.00    +0.000 A 
ATOM     27  C   UNL     1      -5.664  12.043  17.507  0.00  0.00    +0.000 A 
ATOM     28  C   UNL     1      -4.682  11.448  16.729  0.00  0.00    +0.000 A 
ATOM     29  C   UNL     1      -3.414  11.201  17.268  0.00  0.00    +0.000 A 
ENDBRANCH  22  24
ENDBRANCH  17  18
ENDBRANCH   2  17
TORSDOF 5
ENDMDL
MODEL 5
REMARK VINA RESULT:      -8.1      3.456      6.001
REMARK  Name = 
REMARK  6 active torsions:
REMARK  status: ('A' for Active; 'I' for Inactive)
REMARK    1  A    between atoms: C_1  and  C_2
REMARK    2  A    between atoms: C_4  and  N_5
REMARK    3  A    between atoms: C_6  and  C_8
REMARK    4  A    between atoms: C_8  and  C_9
REMARK    5  A    between atoms: C_13  and  C_14
REMARK    6  A    between atoms: N_21  and  C_22
REMARK                            x       y       z     vdW  Elec       q    Type
REMARK                         _______ _______ _______ _____ _____    ______ ____
ROOT
ATOM      1  N   UNL     1       2.411   6.742  17.537  0.00  0.00    +0.000 N 
ATOM      2  C   UNL     1       2.319   7.772  18.535  0.00  0.00    +0.000 C 
ATOM      3  O   UNL     1       2.439   7.494  19.722  0.00  0.00    +0.000 OA
ATOM      4  H   UNL     1       2.199   6.943  16.567  0.00  0.00    +0.000 HD
ENDROOT
BRANCH   1   8
ATOM      5  C   UNL     1       1.955   2.063  19.172  0.00  0.00    +0.000 C 
ATOM      6  C   UNL     1       2.461   3.353  18.642  0.00  0.00    +0.000 A 
ATOM      7  C   UNL     1       1.761   4.576  18.519  0.00  0.00    +0.000 A 
ATOM      8  C   UNL     1       2.645   5.427  17.902  0.00  0.00    +0.000 A 
ATOM      9  N   UNL     1       3.774   4.679  17.635  0.00  0.00    +0.000 N 
ATOM     10  N   UNL     1       3.707   3.441  18.159  0.00  0.00    +0.000 NA
BRANCH   9  11
ATOM     11  C   UNL     1       4.738   4.981  16.575  0.00  0.00    +0.000 C 
ATOM     12  C   UNL     1       5.039   6.472  16.358  0.00  0.00    +0.000 C 
ATOM     13  C   UNL     1       6.099   7.056  17.291  0.00  0.00    +0.000 C 
ATOM     14  C   UNL     1       7.347   6.184  17.382  0.00  0.00    +0.000 C 
ATOM     15  C   UNL     1       7.004   4.751  17.756  0.00  0.00    +0.000 C 
ATOM     16  C   UNL     1       6.018   4.143  16.756  0.00  0.00    +0.000 C 
ENDBRANCH   9  11
ENDBRANCH   1   8
BRANCH   2  17
ATOM     17  C   UNL     1       2.018   9.157  18.016  0.00  0.00    +0.000 C 
BRANCH  17  18
ATOM     18  C   UNL     1       0.919   9.832  18.789  0.00  0.00    +0.000 A 
ATOM     19  C   UNL     1       1.095  10.164  20.135  0.00  0.00    +0.000 A 
ATOM     20  C   UNL     1       0.074  10.801  20.834  0.00  0.00    +0.000 A 
ATOM     21  C   UNL     1      -1.136  11.097  20.199  0.00  0.00    +0.000 A 
ATOM     22  C   UNL     1      -1.360  10.762  18.852  0.00  0.00    +0.000 A 
ATOM     23  C   UNL     1      -0.305  10.128  18.166  0.00  0.00    +0.000 A 
BRANCH  22  24
ATOM     24  C   UNL     1      -2.646  11.056  18.174  0.00  0.00    +0.000 A 
ATOM     25  C   UNL     1      -3.701  11.707  18.836  0.00  0.00    +0.000 A 
ATOM     26  C   UNL     1      -4.911  11.987  18.189  0.00  0.00    +0.000 A 
ATOM     27  C   UNL     1      -5.089  11.631  16.855  0.00  0.00    +0.000 A 
ATOM     28  C   UNL     1      -4.064  10.991  16.173  0.00  0.00    +0.000 A 
ATOM     29  C   UNL     1      -2.862  10.699  16.827  0.00  0.00    +0.000 A 
ENDBRANCH  22  24
ENDBRANCH  17  18
ENDBRANCH   2  17
TORSDOF 5
ENDMDL
MODEL 6
REMARK VINA RESULT:      -8.1      3.711      6.668
REMARK  Name = 
REMARK  6 active torsions:
REMARK  status: ('A' for Active; 'I' for Inactive)
REMARK    1  A    between atoms: C_1  and  C_2
REMARK    2  A    between atoms: C_4  and  N_5
REMARK    3  A    between atoms: C_6  and  C_8
REMARK    4  A    between atoms: C_8  and  C_9
REMARK    5  A    between atoms: C_13  and  C_14
REMARK    6  A    between atoms: N_21  and  C_22
REMARK                            x       y       z     vdW  Elec       q    Type
REMARK                         _______ _______ _______ _____ _____    ______ ____
ROOT
ATOM      1  N   UNL     1       2.743   7.169  19.272  0.00  0.00    +0.000 N 
ATOM      2  C   UNL     1       1.893   8.241  18.831  0.00  0.00    +0.000 C 
ATOM      3  O   UNL     1       1.786   8.493  17.637  0.00  0.00    +0.000 OA
ATOM      4  H   UNL     1       2.927   7.030  20.258  0.00  0.00    +0.000 HD
ENDROOT
BRANCH   1   8
ATOM      5  C   UNL     1       5.669   5.615  15.558  0.00  0.00    +0.000 C 
ATOM      6  C   UNL     1       4.724   5.700  16.698  0.00  0.00    +0.000 A 
ATOM      7  C   UNL     1       4.194   6.863  17.302  0.00  0.00    +0.000 A 
ATOM      8  C   UNL     1       3.443   6.402  18.355  0.00  0.00    +0.000 A 
ATOM      9  N   UNL     1       3.605   5.032  18.371  0.00  0.00    +0.000 N 
ATOM     10  N   UNL     1       4.312   4.586  17.315  0.00  0.00    +0.000 NA
BRANCH   9  11
ATOM     11  C   UNL     1       3.439   4.190  19.558  0.00  0.00    +0.000 C 
ATOM     12  C   UNL     1       2.334   4.628  20.531  0.00  0.00    +0.000 C 
ATOM     13  C   UNL     1       0.930   4.146  20.169  0.00  0.00    +0.000 C 
ATOM     14  C   UNL     1       0.889   2.662  19.821  0.00  0.00    +0.000 C 
ATOM     15  C   UNL     1       1.895   2.312  18.735  0.00  0.00    +0.000 C 
ATOM     16  C   UNL     1       3.313   2.708  19.153  0.00  0.00    +0.000 C 
ENDBRANCH   9  11
ENDBRANCH   1   8
BRANCH   2  17
ATOM     17  C   UNL     1       1.219   9.031  19.926  0.00  0.00    +0.000 C 
BRANCH  17  18
ATOM     18  C   UNL     1       0.628  10.318  19.423  0.00  0.00    +0.000 A 
ATOM     19  C   UNL     1       1.406  11.477  19.343  0.00  0.00    +0.000 A 
ATOM     20  C   UNL     1       0.849  12.658  18.862  0.00  0.00    +0.000 A 
ATOM     21  C   UNL     1      -0.494  12.696  18.473  0.00  0.00    +0.000 A 
ATOM     22  C   UNL     1      -1.315  11.558  18.557  0.00  0.00    +0.000 A 
ATOM     23  C   UNL     1      -0.721  10.374  19.036  0.00  0.00    +0.000 A 
BRANCH  22  24
ATOM     24  C   UNL     1      -2.745  11.592  18.163  0.00  0.00    +0.000 A 
ATOM     25  C   UNL     1      -3.172  11.175  16.890  0.00  0.00    +0.000 A 
ATOM     26  C   UNL     1      -4.524  11.204  16.525  0.00  0.00    +0.000 A 
ATOM     27  C   UNL     1      -5.484  11.640  17.433  0.00  0.00    +0.000 A 
ATOM     28  C   UNL     1      -5.094  12.053  18.699  0.00  0.00    +0.000 A 
ATOM     29  C   UNL     1      -3.741  12.038  19.055  0.00  0.00    +0.000 A 
ENDBRANCH  22  24
ENDBRANCH  17  18
ENDBRANCH   2  17
TORSDOF 5
ENDMDL
MODEL 7
REMARK VINA RESULT:      -8.1      3.483      6.132
REMARK  Name = 
REMARK  6 active torsions:
REMARK  status: ('A' for Active; 'I' for Inactive)
REMARK    1  A    between atoms: C_1  and  C_2
REMARK    2  A    between atoms: C_4  and  N_5
REMARK    3  A    between atoms: C_6  and  C_8
REMARK    4  A    between atoms: C_8  and  C_9
REMARK    5  A    between atoms: C_13  and  C_14
REMARK    6  A    between atoms: N_21  and  C_22
REMARK                            x       y       z     vdW  Elec       q    Type
REMARK                         _______ _______ _______ _____ _____    ______ ____
ROOT
ATOM      1  N   UNL     1       2.710   7.779  17.702  0.00  0.00    +0.000 N 
ATOM      2  C   UNL     1       2.038   8.600  18.672  0.00  0.00    +0.000 C 
ATOM      3  O   UNL     1       1.743   8.143  19.769  0.00  0.00    +0.000 OA
ATOM      4  H   UNL     1       2.853   8.112  16.756  0.00  0.00    +0.000 HD
ENDROOT
BRANCH   1   8
ATOM      5  C   UNL     1       2.569   2.905  18.703  0.00  0.00    +0.000 C 
ATOM      6  C   UNL     1       2.990   4.307  18.461  0.00  0.00    +0.000 A 
ATOM      7  C   UNL     1       2.167   5.438  18.253  0.00  0.00    +0.000 A 
ATOM      8  C   UNL     1       3.040   6.467  17.998  0.00  0.00    +0.000 A 
ATOM      9  N   UNL     1       4.302   5.908  18.001  0.00  0.00    +0.000 N 
ATOM     10  N   UNL     1       4.290   4.613  18.368  0.00  0.00    +0.000 NA
BRANCH   9  11
ATOM     11  C   UNL     1       5.459   6.466  17.296  0.00  0.00    +0.000 C 
ATOM     12  C   UNL     1       6.828   5.940  17.752  0.00  0.00    +0.000 C 
ATOM     13  C   UNL     1       7.256   4.619  17.112  0.00  0.00    +0.000 C 
ATOM     14  C   UNL     1       7.067   4.611  15.599  0.00  0.00    +0.000 C 
ATOM     15  C   UNL     1       5.645   4.985  15.209  0.00  0.00    +0.000 C 
ATOM     16  C   UNL     1       5.264   6.356  15.772  0.00  0.00    +0.000 C 
ENDBRANCH   9  11
ENDBRANCH   1   8
BRANCH   2  17
ATOM     17  C   UNL     1       1.694   9.997  18.216  0.00  0.00    +0.000 C 
BRANCH  17  18
ATOM     18  C   UNL     1       0.252  10.342  18.468  0.00  0.00    +0.000 A 
ATOM     19  C   UNL     1      -0.746   9.921  17.585  0.00  0.00    +0.000 A 
ATOM     20  C   UNL     1      -2.078  10.236  17.838  0.00  0.00    +0.000 A 
ATOM     21  C   UNL     1      -2.421  10.989  18.966  0.00  0.00    +0.000 A 
ATOM     22  C   UNL     1      -1.445  11.448  19.867  0.00  0.00    +0.000 A 
ATOM     23  C   UNL     1      -0.107  11.104  19.592  0.00  0.00    +0.000 A 
BRANCH  22  24
ATOM     24  C   UNL     1      -1.797  12.261  21.058  0.00  0.00    +0.000 A 
ATOM     25  C   UNL     1      -0.859  12.540  22.067  0.00  0.00    +0.000 A 
ATOM     26  C   UNL     1      -1.195  13.312  23.186  0.00  0.00    +0.000 A 
ATOM     27  C   UNL     1      -2.478  13.835  23.314  0.00  0.00    +0.000 A 
ATOM     28  C   UNL     1      -3.425  13.581  22.333  0.00  0.00    +0.000 A 
ATOM     29  C   UNL     1      -3.091  12.795  21.224  0.00  0.00    +0.000 A 
ENDBRANCH  22  24
ENDBRANCH  17  18
ENDBRANCH   2  17
TORSDOF 5
ENDMDL
MODEL 8
REMARK VINA RESULT:      -8.0      3.212      6.129
REMARK  Name = 
REMARK  6 active torsions:
REMARK  status: ('A' for Active; 'I' for Inactive)
REMARK    1  A    between atoms: C_1  and  C_2
REMARK    2  A    between atoms: C_4  and  N_5
REMARK    3  A    between atoms: C_6  and  C_8
REMARK    4  A    between atoms: C_8  and  C_9
REMARK    5  A    between atoms: C_13  and  C_14
REMARK    6  A    between atoms: N_21  and  C_22
REMARK                            x       y       z     vdW  Elec       q    Type
REMARK                         _______ _______ _______ _____ _____    ______ ____
ROOT
ATOM      1  N   UNL     1       2.721   7.281  17.779  0.00  0.00    +0.000 N 
ATOM      2  C   UNL     1       2.011   8.256  18.561  0.00  0.00    +0.000 C 
ATOM      3  O   UNL     1       1.932   8.132  19.777  0.00  0.00    +0.000 OA
ATOM      4  H   UNL     1       2.693   7.312  16.767  0.00  0.00    +0.000 HD
ENDROOT
BRANCH   1   8
ATOM      5  C   UNL     1       3.644   2.971  20.093  0.00  0.00    +0.000 C 
ATOM      6  C   UNL     1       3.752   4.295  19.432  0.00  0.00    +0.000 A 
ATOM      7  C   UNL     1       2.703   5.142  19.006  0.00  0.00    +0.000 A 
ATOM      8  C   UNL     1       3.330   6.197  18.389  0.00  0.00    +0.000 A 
ATOM      9  N   UNL     1       4.679   5.908  18.415  0.00  0.00    +0.000 N 
ATOM     10  N   UNL     1       4.955   4.797  19.124  0.00  0.00    +0.000 NA
BRANCH   9  11
ATOM     11  C   UNL     1       5.661   6.442  17.467  0.00  0.00    +0.000 C 
ATOM     12  C   UNL     1       7.111   5.986  17.689  0.00  0.00    +0.000 C 
ATOM     13  C   UNL     1       7.461   4.633  17.069  0.00  0.00    +0.000 C 
ATOM     14  C   UNL     1       6.992   4.509  15.624  0.00  0.00    +0.000 C 
ATOM     15  C   UNL     1       5.509   4.817  15.486  0.00  0.00    +0.000 C 
ATOM     16  C   UNL     1       5.188   6.216  16.018  0.00  0.00    +0.000 C 
ENDBRANCH   9  11
ENDBRANCH   1   8
BRANCH   2  17
ATOM     17  C   UNL     1       1.354   9.366  17.778  0.00  0.00    +0.000 C 
BRANCH  17  18
ATOM     18  C   UNL     1       1.227  10.633  18.577  0.00  0.00    +0.000 A 
ATOM     19  C   UNL     1       2.173  11.654  18.449  0.00  0.00    +0.000 A 
ATOM     20  C   UNL     1       2.035  12.827  19.184  0.00  0.00    +0.000 A 
ATOM     21  C   UNL     1       0.959  12.983  20.066  0.00  0.00    +0.000 A 
ATOM     22  C   UNL     1      -0.002  11.972  20.238  0.00  0.00    +0.000 A 
ATOM     23  C   UNL     1       0.157  10.800  19.472  0.00  0.00    +0.000 A 
BRANCH  22  24
ATOM     24  C   UNL     1      -1.136  12.121  21.183  0.00  0.00    +0.000 A 
ATOM     25  C   UNL     1      -1.122  11.525  22.456  0.00  0.00    +0.000 A 
ATOM     26  C   UNL     1      -2.194  11.673  23.346  0.00  0.00    +0.000 A 
ATOM     27  C   UNL     1      -3.302  12.434  22.984  0.00  0.00    +0.000 A 
ATOM     28  C   UNL     1      -3.343  13.038  21.736  0.00  0.00    +0.000 A 
ATOM     29  C   UNL     1      -2.278  12.875  20.843  0.00  0.00    +0.000 A 
ENDBRANCH  22  24
ENDBRANCH  17  18
ENDBRANCH   2  17
TORSDOF 5
ENDMDL
MODEL 9
REMARK VINA RESULT:      -8.0      4.528      8.048
REMARK  Name = 
REMARK  6 active torsions:
REMARK  status: ('A' for Active; 'I' for Inactive)
REMARK    1  A    between atoms: C_1  and  C_2
REMARK    2  A    between atoms: C_4  and  N_5
REMARK    3  A    between atoms: C_6  and  C_8
REMARK    4  A    between atoms: C_8  and  C_9
REMARK    5  A    between atoms: C_13  and  C_14
REMARK    6  A    between atoms: N_21  and  C_22
REMARK                            x       y       z     vdW  Elec       q    Type
REMARK                         _______ _______ _______ _____ _____    ______ ____
ROOT
ATOM      1  N   UNL     1       0.837   9.647  19.211  0.00  0.00    +0.000 N 
ATOM      2  C   UNL     1       0.596   8.982  20.463  0.00  0.00    +0.000 C 
ATOM      3  O   UNL     1      -0.483   9.104  21.029  0.00  0.00    +0.000 OA
ATOM      4  H   UNL     1       1.761   9.646  18.796  0.00  0.00    +0.000 HD
ENDROOT
BRANCH   1   8
ATOM      5  C   UNL     1      -3.272  11.246  16.900  0.00  0.00    +0.000 C 
ATOM      6  C   UNL     1      -1.960  11.146  17.586  0.00  0.00    +0.000 A 
ATOM      7  C   UNL     1      -1.259   9.975  17.955  0.00  0.00    +0.000 A 
ATOM      8  C   UNL     1      -0.149  10.425  18.626  0.00  0.00    +0.000 A 
ATOM      9  N   UNL     1      -0.267  11.798  18.683  0.00  0.00    +0.000 N 
ATOM     10  N   UNL     1      -1.319  12.255  17.977  0.00  0.00    +0.000 NA
BRANCH   9  11
ATOM     11  C   UNL     1       0.364  12.644  19.699  0.00  0.00    +0.000 C 
ATOM     12  C   UNL     1       1.848  12.966  19.465  0.00  0.00    +0.000 C 
ATOM     13  C   UNL     1       2.110  14.144  18.527  0.00  0.00    +0.000 C 
ATOM     14  C   UNL     1       1.262  15.366  18.866  0.00  0.00    +0.000 C 
ATOM     15  C   UNL     1      -0.218  15.022  18.929  0.00  0.00    +0.000 C 
ATOM     16  C   UNL     1      -0.480  13.909  19.946  0.00  0.00    +0.000 C 
ENDBRANCH   9  11
ENDBRANCH   1   8
BRANCH   2  17
ATOM     17  C   UNL     1       1.761   8.201  21.019  0.00  0.00    +0.000 C 
BRANCH  17  18
ATOM     18  C   UNL     1       1.940   6.874  20.336  0.00  0.00    +0.000 A 
ATOM     19  C   UNL     1       1.265   5.740  20.795  0.00  0.00    +0.000 A 
ATOM     20  C   UNL     1       1.429   4.520  20.143  0.00  0.00    +0.000 A 
ATOM     21  C   UNL     1       2.282   4.422  19.039  0.00  0.00    +0.000 A 
ATOM     22  C   UNL     1       2.994   5.534  18.559  0.00  0.00    +0.000 A 
ATOM     23  C   UNL     1       2.799   6.757  19.231  0.00  0.00    +0.000 A 
BRANCH  22  24
ATOM     24  C   UNL     1       3.914   5.436  17.399  0.00  0.00    +0.000 A 
ATOM     25  C   UNL     1       4.439   6.580  16.773  0.00  0.00    +0.000 A 
ATOM     26  C   UNL     1       5.311   6.482  15.681  0.00  0.00    +0.000 A 
ATOM     27  C   UNL     1       5.689   5.232  15.199  0.00  0.00    +0.000 A 
ATOM     28  C   UNL     1       5.192   4.085  15.799  0.00  0.00    +0.000 A 
ATOM     29  C   UNL     1       4.307   4.186  16.880  0.00  0.00    +0.000 A 
ENDBRANCH  22  24
ENDBRANCH  17  18
ENDBRANCH   2  17
TORSDOF 5
ENDMDL
