MODEL 1
REMARK VINA RESULT:      -7.6      0.000      0.000
REMARK  Name = 
REMARK  5 active torsions:
REMARK  status: ('A' for Active; 'I' for Inactive)
REMARK    1  A    between atoms: N_1  and  C_2
REMARK    2  A    between atoms: C_2  and  C_3
REMARK    3  A    between atoms: C_10  and  O_11
REMARK    4  A    between atoms: O_11  and  C_12
REMARK    5  A    between atoms: C_12  and  C_13
REMARK                            x       y       z     vdW  Elec       q    Type
REMARK                         _______ _______ _______ _____ _____    ______ ____
ROOT
ATOM      1  C   UNL     1       5.960   3.521  12.740  0.00  0.00    +0.000 A 
ATOM      2  C   UNL     1       6.992   4.341  12.486  0.00  0.00    +0.000 A 
ATOM      3  C   UNL     1       7.597   5.120  13.583  0.00  0.00    +0.000 A 
ATOM      4  O   UNL     1       8.516   5.899  13.374  0.00  0.00    +0.000 OA
ATOM      5  C   UNL     1       7.041   4.895  14.925  0.00  0.00    +0.000 A 
ATOM      6  C   UNL     1       7.577   5.521  16.052  0.00  0.00    +0.000 A 
ATOM      7  C   UNL     1       7.041   5.243  17.313  0.00  0.00    +0.000 A 
ATOM      8  C   UNL     1       5.979   4.344  17.443  0.00  0.00    +0.000 A 
ATOM      9  C   UNL     1       5.417   3.767  16.304  0.00  0.00    +0.000 A 
ATOM     10  C   UNL     1       5.962   4.027  15.051  0.00  0.00    +0.000 A 
ATOM     11  O   UNL     1       5.388   3.374  13.993  0.00  0.00    +0.000 OA
ENDROOT
BRANCH   1  12
ATOM     12  C   UNL     1       5.296   2.691  11.676  0.00  0.00    +0.000 C 
BRANCH  12  13
ATOM     13  N   UNL     1       5.976   1.412  11.494  0.00  0.00    +0.000 NA
ATOM     14  H   UNL     1       6.436   1.405  10.586  0.00  0.00    +0.000 HD
ATOM     15  H   UNL     1       5.277   0.672  11.461  0.00  0.00    +0.000 HD
ENDBRANCH  12  13
ENDBRANCH   1  12
BRANCH   8  16
ATOM     16  O   UNL     1       5.565   4.082  18.721  0.00  0.00    +0.000 OA
BRANCH  16  17
ATOM     17  C   UNL     1       4.627   5.024  19.251  0.00  0.00    +0.000 C 
BRANCH  17  18
ATOM     18  C   UNL     1       3.324   4.333  19.547  0.00  0.00    +0.000 A 
ATOM     19  C   UNL     1       3.136   2.985  19.213  0.00  0.00    +0.000 A 
ATOM     20  C   UNL     1       1.940   2.342  19.532  0.00  0.00    +0.000 A 
ATOM     21  C   UNL     1       0.928   3.036  20.193  0.00  0.00    +0.000 A 
ATOM     22  C   UNL     1       1.111   4.373  20.542  0.00  0.00    +0.000 A 
ATOM     23  C   UNL     1       2.305   5.018  20.224  0.00  0.00    +0.000 A 
ENDBRANCH  17  18
ENDBRANCH  16  17
ENDBRANCH   8  16
TORSDOF 5
ENDMDL
MODEL 2
REMARK VINA RESULT:      -7.6      0.735      1.171
REMARK  Name = 
REMARK  5 active torsions:
REMARK  status: ('A' for Active; 'I' for Inactive)
REMARK    1  A    between atoms: N_1  and  C_2
REMARK    2  A    between atoms: C_2  and  C_3
REMARK    3  A    between atoms: C_10  and  O_11
REMARK    4  A    between atoms: O_11  and  C_12
REMARK    5  A    between atoms: C_12  and  C_13
REMARK                            x       y       z     vdW  Elec       q    Type
REMARK                         _______ _______ _______ _____ _____    ______ ____
ROOT
ATOM      1  C   UNL     1       5.865   3.563  12.744  0.00  0.00    +0.000 A 
ATOM      2  C   UNL     1       7.008   4.239  12.545  0.00  0.00    +0.000 A 
ATOM      3  C   UNL     1       7.574   5.058  13.632  0.00  0.00    +0.000 A 
ATOM      4  O   UNL     1       8.595   5.711  13.468  0.00  0.00    +0.000 OA
ATOM      5  C   UNL     1       6.850   5.033  14.912  0.00  0.00    +0.000 A 
ATOM      6  C   UNL     1       7.328   5.711  16.035  0.00  0.00    +0.000 A 
ATOM      7  C   UNL     1       6.626   5.623  17.241  0.00  0.00    +0.000 A 
ATOM      8  C   UNL     1       5.459   4.858  17.321  0.00  0.00    +0.000 A 
ATOM      9  C   UNL     1       4.963   4.230  16.179  0.00  0.00    +0.000 A 
ATOM     10  C   UNL     1       5.670   4.301  14.984  0.00  0.00    +0.000 A 
ATOM     11  O   UNL     1       5.144   3.607  13.926  0.00  0.00    +0.000 OA
ENDROOT
BRANCH   1  12
ATOM     12  C   UNL     1       5.230   2.703  11.686  0.00  0.00    +0.000 C 
BRANCH  12  13
ATOM     13  N   UNL     1       5.944   1.439  11.527  0.00  0.00    +0.000 NA
ATOM     14  H   UNL     1       6.124   1.279  10.538  0.00  0.00    +0.000 HD
ATOM     15  H   UNL     1       5.335   0.679  11.829  0.00  0.00    +0.000 HD
ENDBRANCH  12  13
ENDBRANCH   1  12
BRANCH   8  16
ATOM     16  O   UNL     1       4.878   4.774  18.559  0.00  0.00    +0.000 OA
BRANCH  16  17
ATOM     17  C   UNL     1       4.671   3.439  19.033  0.00  0.00    +0.000 C 
BRANCH  17  18
ATOM     18  C   UNL     1       3.218   3.238  19.366  0.00  0.00    +0.000 A 
ATOM     19  C   UNL     1       2.691   3.698  20.579  0.00  0.00    +0.000 A 
ATOM     20  C   UNL     1       1.333   3.545  20.859  0.00  0.00    +0.000 A 
ATOM     21  C   UNL     1       0.492   2.941  19.926  0.00  0.00    +0.000 A 
ATOM     22  C   UNL     1       1.004   2.492  18.711  0.00  0.00    +0.000 A 
ATOM     23  C   UNL     1       2.360   2.643  18.430  0.00  0.00    +0.000 A 
ENDBRANCH  17  18
ENDBRANCH  16  17
ENDBRANCH   8  16
TORSDOF 5
ENDMDL
MODEL 3
REMARK VINA RESULT:      -7.5      5.833      8.477
REMARK  Name = 
REMARK  5 active torsions:
REMARK  status: ('A' for Active; 'I' for Inactive)
REMARK    1  A    between atoms: N_1  and  C_2
REMARK    2  A    between atoms: C_2  and  C_3
REMARK    3  A    between atoms: C_10  and  O_11
REMARK    4  A    between atoms: O_11  and  C_12
REMARK    5  A    between atoms: C_12  and  C_13
REMARK                            x       y       z     vdW  Elec       q    Type
REMARK                         _______ _______ _______ _____ _____    ______ ____
ROOT
ATOM      1  C   UNL     1      -0.093  10.223  21.651  0.00  0.00    +0.000 A 
ATOM      2  C   UNL     1      -0.275  11.207  20.755  0.00  0.00    +0.000 A 
ATOM      3  C   UNL     1       0.347  11.108  19.422  0.00  0.00    +0.000 A 
ATOM      4  O   UNL     1       0.226  12.003  18.598  0.00  0.00    +0.000 OA
ATOM      5  C   UNL     1       1.103   9.878  19.145  0.00  0.00    +0.000 A 
ATOM      6  C   UNL     1       1.678   9.639  17.895  0.00  0.00    +0.000 A 
ATOM      7  C   UNL     1       2.352   8.435  17.667  0.00  0.00    +0.000 A 
ATOM      8  C   UNL     1       2.446   7.479  18.682  0.00  0.00    +0.000 A 
ATOM      9  C   UNL     1       1.915   7.752  19.943  0.00  0.00    +0.000 A 
ATOM     10  C   UNL     1       1.228   8.941  20.165  0.00  0.00    +0.000 A 
ATOM     11  O   UNL     1       0.688   9.104  21.413  0.00  0.00    +0.000 OA
ENDROOT
BRANCH   1  12
ATOM     12  C   UNL     1      -0.699  10.250  23.027  0.00  0.00    +0.000 C 
BRANCH  12  13
ATOM     13  N   UNL     1       0.145   9.557  23.996  0.00  0.00    +0.000 NA
ATOM     14  H   UNL     1       1.115   9.607  23.690  0.00  0.00    +0.000 HD
ATOM     15  H   UNL     1      -0.100   8.567  23.994  0.00  0.00    +0.000 HD
ENDBRANCH  12  13
ENDBRANCH   1  12
BRANCH   8  16
ATOM     16  O   UNL     1       3.064   6.303  18.347  0.00  0.00    +0.000 OA
BRANCH  16  17
ATOM     17  C   UNL     1       2.174   5.207  18.107  0.00  0.00    +0.000 C 
BRANCH  17  18
ATOM     18  C   UNL     1       2.249   4.234  19.252  0.00  0.00    +0.000 A 
ATOM     19  C   UNL     1       3.437   3.546  19.531  0.00  0.00    +0.000 A 
ATOM     20  C   UNL     1       3.507   2.678  20.621  0.00  0.00    +0.000 A 
ATOM     21  C   UNL     1       2.396   2.499  21.444  0.00  0.00    +0.000 A 
ATOM     22  C   UNL     1       1.215   3.190  21.183  0.00  0.00    +0.000 A 
ATOM     23  C   UNL     1       1.142   4.056  20.094  0.00  0.00    +0.000 A 
ENDBRANCH  17  18
ENDBRANCH  16  17
ENDBRANCH   8  16
TORSDOF 5
ENDMDL
MODEL 4
REMARK VINA RESULT:      -7.5      5.681      8.910
REMARK  Name = 
REMARK  5 active torsions:
REMARK  status: ('A' for Active; 'I' for Inactive)
REMARK    1  A    between atoms: N_1  and  C_2
REMARK    2  A    between atoms: C_2  and  C_3
REMARK    3  A    between atoms: C_10  and  O_11
REMARK    4  A    between atoms: O_11  and  C_12
REMARK    5  A    between atoms: C_12  and  C_13
REMARK                            x       y       z     vdW  Elec       q    Type
REMARK                         _______ _______ _______ _____ _____    ______ ____
ROOT
ATOM      1  C   UNL     1      -0.020  10.123  21.623  0.00  0.00    +0.000 A 
ATOM      2  C   UNL     1      -0.215  11.020  20.643  0.00  0.00    +0.000 A 
ATOM      3  C   UNL     1       0.388  10.798  19.316  0.00  0.00    +0.000 A 
ATOM      4  O   UNL     1       0.255  11.613  18.414  0.00  0.00    +0.000 OA
ATOM      5  C   UNL     1       1.140   9.546  19.143  0.00  0.00    +0.000 A 
ATOM      6  C   UNL     1       1.697   9.192  17.912  0.00  0.00    +0.000 A 
ATOM      7  C   UNL     1       2.367   7.971  17.787  0.00  0.00    +0.000 A 
ATOM      8  C   UNL     1       2.475   7.112  18.885  0.00  0.00    +0.000 A 
ATOM      9  C   UNL     1       1.963   7.502  20.122  0.00  0.00    +0.000 A 
ATOM     10  C   UNL     1       1.279   8.707  20.243  0.00  0.00    +0.000 A 
ATOM     11  O   UNL     1       0.757   8.986  21.478  0.00  0.00    +0.000 OA
ENDROOT
BRANCH   1  12
ATOM     12  C   UNL     1      -0.607  10.278  22.999  0.00  0.00    +0.000 C 
BRANCH  12  13
ATOM     13  N   UNL     1       0.161   9.534  23.993  0.00  0.00    +0.000 NA
ATOM     14  H   UNL     1       0.646   8.766  23.534  0.00  0.00    +0.000 HD
ATOM     15  H   UNL     1      -0.487   9.104  24.652  0.00  0.00    +0.000 HD
ENDBRANCH  12  13
ENDBRANCH   1  12
BRANCH   8  16
ATOM     16  O   UNL     1       3.088   5.910  18.650  0.00  0.00    +0.000 OA
BRANCH  16  17
ATOM     17  C   UNL     1       3.939   5.887  17.499  0.00  0.00    +0.000 C 
BRANCH  17  18
ATOM     18  C   UNL     1       5.363   6.136  17.915  0.00  0.00    +0.000 A 
ATOM     19  C   UNL     1       5.939   5.413  18.968  0.00  0.00    +0.000 A 
ATOM     20  C   UNL     1       7.273   5.622  19.316  0.00  0.00    +0.000 A 
ATOM     21  C   UNL     1       8.043   6.545  18.611  0.00  0.00    +0.000 A 
ATOM     22  C   UNL     1       7.483   7.258  17.553  0.00  0.00    +0.000 A 
ATOM     23  C   UNL     1       6.150   7.053  17.204  0.00  0.00    +0.000 A 
ENDBRANCH  17  18
ENDBRANCH  16  17
ENDBRANCH   8  16
TORSDOF 5
ENDMDL
MODEL 5
REMARK VINA RESULT:      -7.3      5.368      8.603
REMARK  Name = 
REMARK  5 active torsions:
REMARK  status: ('A' for Active; 'I' for Inactive)
REMARK    1  A    between atoms: N_1  and  C_2
REMARK    2  A    between atoms: C_2  and  C_3
REMARK    3  A    between atoms: C_10  and  O_11
REMARK    4  A    between atoms: O_11  and  C_12
REMARK    5  A    between atoms: C_12  and  C_13
REMARK                            x       y       z     vdW  Elec       q    Type
REMARK                         _______ _______ _______ _____ _____    ______ ____
ROOT
ATOM      1  C   UNL     1       0.334   9.317  21.493  0.00  0.00    +0.000 A 
ATOM      2  C   UNL     1       0.173  10.304  20.596  0.00  0.00    +0.000 A 
ATOM      3  C   UNL     1       0.809  10.199  19.270  0.00  0.00    +0.000 A 
ATOM      4  O   UNL     1       0.707  11.096  18.446  0.00  0.00    +0.000 OA
ATOM      5  C   UNL     1       1.554   8.960  19.001  0.00  0.00    +0.000 A 
ATOM      6  C   UNL     1       2.140   8.715  17.757  0.00  0.00    +0.000 A 
ATOM      7  C   UNL     1       2.803   7.504  17.536  0.00  0.00    +0.000 A 
ATOM      8  C   UNL     1       2.874   6.546  18.551  0.00  0.00    +0.000 A 
ATOM      9  C   UNL     1       2.333   6.825  19.805  0.00  0.00    +0.000 A 
ATOM     10  C   UNL     1       1.656   8.021  20.020  0.00  0.00    +0.000 A 
ATOM     11  O   UNL     1       1.104   8.189  21.263  0.00  0.00    +0.000 OA
ENDROOT
BRANCH   1  12
ATOM     12  C   UNL     1      -0.288   9.350  22.862  0.00  0.00    +0.000 C 
BRANCH  12  13
ATOM     13  N   UNL     1      -0.466  10.720  23.335  0.00  0.00    +0.000 NA
ATOM     14  H   UNL     1       0.319  10.971  23.933  0.00  0.00    +0.000 HD
ATOM     15  H   UNL     1      -1.295  10.757  23.927  0.00  0.00    +0.000 HD
ENDBRANCH  12  13
ENDBRANCH   1  12
BRANCH   8  16
ATOM     16  O   UNL     1       3.482   5.364  18.221  0.00  0.00    +0.000 OA
BRANCH  16  17
ATOM     17  C   UNL     1       4.422   5.455  17.145  0.00  0.00    +0.000 C 
BRANCH  17  18
ATOM     18  C   UNL     1       5.757   5.905  17.673  0.00  0.00    +0.000 A 
ATOM     19  C   UNL     1       6.412   7.011  17.115  0.00  0.00    +0.000 A 
ATOM     20  C   UNL     1       7.628   7.446  17.641  0.00  0.00    +0.000 A 
ATOM     21  C   UNL     1       8.194   6.786  18.731  0.00  0.00    +0.000 A 
ATOM     22  C   UNL     1       7.543   5.694  19.301  0.00  0.00    +0.000 A 
ATOM     23  C   UNL     1       6.328   5.257  18.777  0.00  0.00    +0.000 A 
ENDBRANCH  17  18
ENDBRANCH  16  17
ENDBRANCH   8  16
TORSDOF 5
ENDMDL
MODEL 6
REMARK VINA RESULT:      -7.3      5.663      8.410
REMARK  Name = 
REMARK  5 active torsions:
REMARK  status: ('A' for Active; 'I' for Inactive)
REMARK    1  A    between atoms: N_1  and  C_2
REMARK    2  A    between atoms: C_2  and  C_3
REMARK    3  A    between atoms: C_10  and  O_11
REMARK    4  A    between atoms: O_11  and  C_12
REMARK    5  A    between atoms: C_12  and  C_13
REMARK                            x       y       z     vdW  Elec       q    Type
REMARK                         _______ _______ _______ _____ _____    ______ ____
ROOT
ATOM      1  C   UNL     1      -0.219   9.900  21.626  0.00  0.00    +0.000 A 
ATOM      2  C   UNL     1      -0.552  10.806  20.693  0.00  0.00    +0.000 A 
ATOM      3  C   UNL     1       0.069  10.746  19.358  0.00  0.00    +0.000 A 
ATOM      4  O   UNL     1      -0.190  11.578  18.500  0.00  0.00    +0.000 OA
ATOM      5  C   UNL     1       0.999   9.631  19.122  0.00  0.00    +0.000 A 
ATOM      6  C   UNL     1       1.595   9.428  17.875  0.00  0.00    +0.000 A 
ATOM      7  C   UNL     1       2.440   8.330  17.688  0.00  0.00    +0.000 A 
ATOM      8  C   UNL     1       2.682   7.442  18.739  0.00  0.00    +0.000 A 
ATOM      9  C   UNL     1       2.125   7.686  19.994  0.00  0.00    +0.000 A 
ATOM     10  C   UNL     1       1.269   8.767  20.176  0.00  0.00    +0.000 A 
ATOM     11  O   UNL     1       0.718   8.900  21.424  0.00  0.00    +0.000 OA
ENDROOT
BRANCH   1  12
ATOM     12  C   UNL     1      -0.815   9.893  23.007  0.00  0.00    +0.000 C 
BRANCH  12  13
ATOM     13  N   UNL     1       0.191   9.584  24.020  0.00  0.00    +0.000 NA
ATOM     14  H   UNL     1       0.311  10.392  24.629  0.00  0.00    +0.000 HD
ATOM     15  H   UNL     1       1.089   9.446  23.557  0.00  0.00    +0.000 HD
ENDBRANCH  12  13
ENDBRANCH   1  12
BRANCH   8  16
ATOM     16  O   UNL     1       3.467   6.359  18.444  0.00  0.00    +0.000 OA
BRANCH  16  17
ATOM     17  C   UNL     1       2.763   5.247  17.880  0.00  0.00    +0.000 C 
BRANCH  17  18
ATOM     18  C   UNL     1       2.240   4.365  18.981  0.00  0.00    +0.000 A 
ATOM     19  C   UNL     1       1.083   3.599  18.796  0.00  0.00    +0.000 A 
ATOM     20  C   UNL     1       0.631   2.752  19.808  0.00  0.00    +0.000 A 
ATOM     21  C   UNL     1       1.337   2.657  21.006  0.00  0.00    +0.000 A 
ATOM     22  C   UNL     1       2.498   3.405  21.194  0.00  0.00    +0.000 A 
ATOM     23  C   UNL     1       2.950   4.253  20.185  0.00  0.00    +0.000 A 
ENDBRANCH  17  18
ENDBRANCH  16  17
ENDBRANCH   8  16
TORSDOF 5
ENDMDL
MODEL 7
REMARK VINA RESULT:      -7.3      0.827      1.177
REMARK  Name = 
REMARK  5 active torsions:
REMARK  status: ('A' for Active; 'I' for Inactive)
REMARK    1  A    between atoms: N_1  and  C_2
REMARK    2  A    between atoms: C_2  and  C_3
REMARK    3  A    between atoms: C_10  and  O_11
REMARK    4  A    between atoms: O_11  and  C_12
REMARK    5  A    between atoms: C_12  and  C_13
REMARK                            x       y       z     vdW  Elec       q    Type
REMARK                         _______ _______ _______ _____ _____    ______ ____
ROOT
ATOM      1  C   UNL     1       6.051   3.458  12.596  0.00  0.00    +0.000 A 
ATOM      2  C   UNL     1       7.109   4.258  12.386  0.00  0.00    +0.000 A 
ATOM      3  C   UNL     1       7.642   5.073  13.493  0.00  0.00    +0.000 A 
ATOM      4  O   UNL     1       8.583   5.835  13.323  0.00  0.00    +0.000 OA
ATOM      5  C   UNL     1       6.987   4.907  14.799  0.00  0.00    +0.000 A 
ATOM      6  C   UNL     1       7.448   5.572  15.937  0.00  0.00    +0.000 A 
ATOM      7  C   UNL     1       6.818   5.349  17.165  0.00  0.00    +0.000 A 
ATOM      8  C   UNL     1       5.738   4.466  17.252  0.00  0.00    +0.000 A 
ATOM      9  C   UNL     1       5.253   3.850  16.098  0.00  0.00    +0.000 A 
ATOM     10  C   UNL     1       5.892   4.055  14.880  0.00  0.00    +0.000 A 
ATOM     11  O   UNL     1       5.387   3.367  13.808  0.00  0.00    +0.000 OA
ENDROOT
BRANCH   1  12
ATOM     12  C   UNL     1       5.456   2.594  11.519  0.00  0.00    +0.000 C 
BRANCH  12  13
ATOM     13  N   UNL     1       4.079   2.981  11.225  0.00  0.00    +0.000 NA
ATOM     14  H   UNL     1       4.044   3.984  11.050  0.00  0.00    +0.000 HD
ATOM     15  H   UNL     1       3.509   2.820  12.055  0.00  0.00    +0.000 HD
ENDBRANCH  12  13
ENDBRANCH   1  12
BRANCH   8  16
ATOM     16  O   UNL     1       5.229   4.258  18.506  0.00  0.00    +0.000 OA
BRANCH  16  17
ATOM     17  C   UNL     1       4.152   5.130  18.866  0.00  0.00    +0.000 C 
BRANCH  17  18
ATOM     18  C   UNL     1       3.152   4.381  19.705  0.00  0.00    +0.000 A 
ATOM     19  C   UNL     1       1.798   4.742  19.697  0.00  0.00    +0.000 A 
ATOM     20  C   UNL     1       0.873   4.013  20.444  0.00  0.00    +0.000 A 
ATOM     21  C   UNL     1       1.291   2.917  21.196  0.00  0.00    +0.000 A 
ATOM     22  C   UNL     1       2.632   2.542  21.199  0.00  0.00    +0.000 A 
ATOM     23  C   UNL     1       3.559   3.269  20.454  0.00  0.00    +0.000 A 
ENDBRANCH  17  18
ENDBRANCH  16  17
ENDBRANCH   8  16
TORSDOF 5
ENDMDL
MODEL 8
REMARK VINA RESULT:      -7.3      3.427      7.197
REMARK  Name = 
REMARK  5 active torsions:
REMARK  status: ('A' for Active; 'I' for Inactive)
REMARK    1  A    between atoms: N_1  and  C_2
REMARK    2  A    between atoms: C_2  and  C_3
REMARK    3  A    between atoms: C_10  and  O_11
REMARK    4  A    between atoms: O_11  and  C_12
REMARK    5  A    between atoms: C_12  and  C_13
REMARK                            x       y       z     vdW  Elec       q    Type
REMARK                         _______ _______ _______ _____ _____    ______ ____
ROOT
ATOM      1  C   UNL     1       1.692   5.698  20.419  0.00  0.00    +0.000 A 
ATOM      2  C   UNL     1       1.436   4.454  20.854  0.00  0.00    +0.000 A 
ATOM      3  C   UNL     1       1.930   3.294  20.089  0.00  0.00    +0.000 A 
ATOM      4  O   UNL     1       1.684   2.150  20.444  0.00  0.00    +0.000 OA
ATOM      5  C   UNL     1       2.734   3.596  18.895  0.00  0.00    +0.000 A 
ATOM      6  C   UNL     1       3.314   2.581  18.130  0.00  0.00    +0.000 A 
ATOM      7  C   UNL     1       4.105   2.919  17.028  0.00  0.00    +0.000 A 
ATOM      8  C   UNL     1       4.315   4.261  16.698  0.00  0.00    +0.000 A 
ATOM      9  C   UNL     1       3.685   5.263  17.437  0.00  0.00    +0.000 A 
ATOM     10  C   UNL     1       2.915   4.928  18.545  0.00  0.00    +0.000 A 
ATOM     11  O   UNL     1       2.381   5.975  19.249  0.00  0.00    +0.000 OA
ENDROOT
BRANCH   1  12
ATOM     12  C   UNL     1       1.227   6.929  21.148  0.00  0.00    +0.000 C 
BRANCH  12  13
ATOM     13  N   UNL     1       1.902   8.127  20.655  0.00  0.00    +0.000 NA
ATOM     14  H   UNL     1       1.207   8.842  20.452  0.00  0.00    +0.000 HD
ATOM     15  H   UNL     1       2.350   7.908  19.766  0.00  0.00    +0.000 HD
ENDBRANCH  12  13
ENDBRANCH   1  12
BRANCH   8  16
ATOM     16  O   UNL     1       5.158   4.498  15.645  0.00  0.00    +0.000 OA
BRANCH  16  17
ATOM     17  C   UNL     1       6.539   4.234  15.914  0.00  0.00    +0.000 C 
BRANCH  17  18
ATOM     18  C   UNL     1       7.057   5.221  16.924  0.00  0.00    +0.000 A 
ATOM     19  C   UNL     1       7.551   4.788  18.161  0.00  0.00    +0.000 A 
ATOM     20  C   UNL     1       8.069   5.707  19.073  0.00  0.00    +0.000 A 
ATOM     21  C   UNL     1       8.107   7.063  18.751  0.00  0.00    +0.000 A 
ATOM     22  C   UNL     1       7.631   7.502  17.518  0.00  0.00    +0.000 A 
ATOM     23  C   UNL     1       7.112   6.585  16.606  0.00  0.00    +0.000 A 
ENDBRANCH  17  18
ENDBRANCH  16  17
ENDBRANCH   8  16
TORSDOF 5
ENDMDL
MODEL 9
REMARK VINA RESULT:      -7.3      3.264      7.482
REMARK  Name = 
REMARK  5 active torsions:
REMARK  status: ('A' for Active; 'I' for Inactive)
REMARK    1  A    between atoms: N_1  and  C_2
REMARK    2  A    between atoms: C_2  and  C_3
REMARK    3  A    between atoms: C_10  and  O_11
REMARK    4  A    between atoms: O_11  and  C_12
REMARK    5  A    between atoms: C_12  and  C_13
REMARK                            x       y       z     vdW  Elec       q    Type
REMARK                         _______ _______ _______ _____ _____    ______ ____
ROOT
ATOM      1  C   UNL     1       2.203   3.867  20.172  0.00  0.00    +0.000 A 
ATOM      2  C   UNL     1       1.611   4.965  20.669  0.00  0.00    +0.000 A 
ATOM      3  C   UNL     1       1.946   6.291  20.119  0.00  0.00    +0.000 A 
ATOM      4  O   UNL     1       1.448   7.310  20.574  0.00  0.00    +0.000 OA
ATOM      5  C   UNL     1       2.897   6.310  18.997  0.00  0.00    +0.000 A 
ATOM      6  C   UNL     1       3.237   7.499  18.348  0.00  0.00    +0.000 A 
ATOM      7  C   UNL     1       4.113   7.460  17.259  0.00  0.00    +0.000 A 
ATOM      8  C   UNL     1       4.640   6.241  16.823  0.00  0.00    +0.000 A 
ATOM      9  C   UNL     1       4.335   5.069  17.514  0.00  0.00    +0.000 A 
ATOM     10  C   UNL     1       3.448   5.103  18.584  0.00  0.00    +0.000 A 
ATOM     11  O   UNL     1       3.158   3.898  19.169  0.00  0.00    +0.000 OA
ENDROOT
BRANCH   1  12
ATOM     12  C   UNL     1       1.908   2.481  20.676  0.00  0.00    +0.000 C 
BRANCH  12  13
ATOM     13  N   UNL     1       1.681   2.476  22.119  0.00  0.00    +0.000 NA
ATOM     14  H   UNL     1       2.451   2.957  22.580  0.00  0.00    +0.000 HD
ATOM     15  H   UNL     1       1.712   1.512  22.451  0.00  0.00    +0.000 HD
ENDBRANCH  12  13
ENDBRANCH   1  12
BRANCH   8  16
ATOM     16  O   UNL     1       5.434   6.293  15.708  0.00  0.00    +0.000 OA
BRANCH  16  17
ATOM     17  C   UNL     1       6.486   5.323  15.678  0.00  0.00    +0.000 C 
BRANCH  17  18
ATOM     18  C   UNL     1       6.606   4.746  14.294  0.00  0.00    +0.000 A 
ATOM     19  C   UNL     1       5.687   3.794  13.833  0.00  0.00    +0.000 A 
ATOM     20  C   UNL     1       5.782   3.298  12.533  0.00  0.00    +0.000 A 
ATOM     21  C   UNL     1       6.786   3.756  11.682  0.00  0.00    +0.000 A 
ATOM     22  C   UNL     1       7.696   4.713  12.126  0.00  0.00    +0.000 A 
ATOM     23  C   UNL     1       7.605   5.209  13.426  0.00  0.00    +0.000 A 
ENDBRANCH  17  18
ENDBRANCH  16  17
ENDBRANCH   8  16
TORSDOF 5
ENDMDL
