MODEL 1
REMARK VINA RESULT:      -5.4      0.000      0.000
REMARK  Name = 
REMARK  9 active torsions:
REMARK  status: ('A' for Active; 'I' for Inactive)
REMARK    1  A    between atoms: N_1  and  CA_2
REMARK    2  A    between atoms: CA_2  and  C_3
REMARK    3  A    between atoms: CA_2  and  C_11
REMARK    4  A    between atoms: C_3  and  C_4
REMARK    5  A    between atoms: C_4  and  C_5
REMARK    6  A    between atoms: C_4  and  C_8
REMARK    7  A    between atoms: C_5  and  O_7
REMARK    8  A    between atoms: C_8  and  O_10
REMARK    9  A    between atoms: C_11  and  OXT_13
REMARK                            x       y       z     vdW  Elec       q    Type
REMARK                         _______ _______ _______ _____ _____    ______ ____
ROOT
ATOM      1  C   UNL     1       7.128   4.589  17.134  0.00  0.00    +0.000 C 
ENDROOT
BRANCH   1   2
ATOM      2  CA  UNL     1       6.175   4.321  15.960  0.00  0.00    +0.000 C 
BRANCH   2   3
ATOM      3  N   UNL     1       5.667   2.933  16.015  0.00  0.00    +0.000 NA
ATOM      4  H1  UNL     1       4.723   2.904  16.394  0.00  0.00    +0.000 HD
ATOM      5  H2  UNL     1       6.216   2.434  16.730  0.00  0.00    +0.000 HD
ENDBRANCH   2   3
BRANCH   2   6
ATOM      6  C   UNL     1       6.926   4.575  14.644  0.00  0.00    +0.000 C 
ATOM      7  O   UNL     1       7.735   5.480  14.492  0.00  0.00    +0.000 OA
BRANCH   6   8
ATOM      8  OXT UNL     1       6.596   3.714  13.656  0.00  0.00    +0.000 OA
ATOM      9  HXT UNL     1       6.334   4.136  12.813  0.00  0.00    +0.000 HD
ENDBRANCH   6   8
ENDBRANCH   2   6
ENDBRANCH   1   2
BRANCH   1  10
ATOM     10  C   UNL     1       6.546   5.531  18.205  0.00  0.00    +0.000 C 
BRANCH  10  11
ATOM     11  C   UNL     1       5.534   4.823  19.067  0.00  0.00    +0.000 C 
ATOM     12  O   UNL     1       4.580   5.365  19.601  0.00  0.00    +0.000 OA
BRANCH  11  13
ATOM     13  O   UNL     1       5.697   3.480  19.133  0.00  0.00    +0.000 OA
ATOM     14  H   UNL     1       6.049   3.111  19.963  0.00  0.00    +0.000 HD
ENDBRANCH  11  13
ENDBRANCH  10  11
BRANCH  10  15
ATOM     15  C   UNL     1       7.671   6.094  19.045  0.00  0.00    +0.000 C 
ATOM     16  O   UNL     1       8.353   7.064  18.709  0.00  0.00    +0.000 OA
BRANCH  15  17
ATOM     17  O   UNL     1       7.832   5.495  20.244  0.00  0.00    +0.000 OA
ATOM     18  H   UNL     1       8.602   5.791  20.765  0.00  0.00    +0.000 HD
ENDBRANCH  15  17
ENDBRANCH  10  15
ENDBRANCH   1  10
TORSDOF 9
ENDMDL
MODEL 2
REMARK VINA RESULT:      -5.3      2.361      3.236
REMARK  Name = 
REMARK  9 active torsions:
REMARK  status: ('A' for Active; 'I' for Inactive)
REMARK    1  A    between atoms: N_1  and  CA_2
REMARK    2  A    between atoms: CA_2  and  C_3
REMARK    3  A    between atoms: CA_2  and  C_11
REMARK    4  A    between atoms: C_3  and  C_4
REMARK    5  A    between atoms: C_4  and  C_5
REMARK    6  A    between atoms: C_4  and  C_8
REMARK    7  A    between atoms: C_5  and  O_7
REMARK    8  A    between atoms: C_8  and  O_10
REMARK    9  A    between atoms: C_11  and  OXT_13
REMARK                            x       y       z     vdW  Elec       q    Type
REMARK                         _______ _______ _______ _____ _____    ______ ____
ROOT
ATOM      1  C   UNL     1       4.824   4.281  16.370  0.00  0.00    +0.000 C 
ENDROOT
BRANCH   1   2
ATOM      2  CA  UNL     1       5.768   5.491  16.295  0.00  0.00    +0.000 C 
BRANCH   2   3
ATOM      3  N   UNL     1       5.273   6.469  15.302  0.00  0.00    +0.000 NA
ATOM      4  H1  UNL     1       4.968   7.327  15.756  0.00  0.00    +0.000 HD
ATOM      5  H2  UNL     1       4.398   6.093  14.911  0.00  0.00    +0.000 HD
ENDBRANCH   2   3
BRANCH   2   6
ATOM      6  C   UNL     1       7.175   4.999  15.921  0.00  0.00    +0.000 C 
ATOM      7  O   UNL     1       7.785   5.385  14.933  0.00  0.00    +0.000 OA
BRANCH   6   8
ATOM      8  OXT UNL     1       7.673   4.079  16.777  0.00  0.00    +0.000 OA
ATOM      9  HXT UNL     1       8.578   4.265  17.100  0.00  0.00    +0.000 HD
ENDBRANCH   6   8
ENDBRANCH   2   6
ENDBRANCH   1   2
BRANCH   1  10
ATOM     10  C   UNL     1       3.821   4.347  17.539  0.00  0.00    +0.000 C 
BRANCH  10  11
ATOM     11  C   UNL     1       2.881   3.170  17.521  0.00  0.00    +0.000 C 
ATOM     12  O   UNL     1       3.212   2.018  17.751  0.00  0.00    +0.000 OA
BRANCH  11  13
ATOM     13  O   UNL     1       1.581   3.494  17.322  0.00  0.00    +0.000 OA
ATOM     14  H   UNL     1       1.289   3.633  16.404  0.00  0.00    +0.000 HD
ENDBRANCH  11  13
ENDBRANCH  10  11
BRANCH  10  15
ATOM     15  C   UNL     1       4.577   4.415  18.847  0.00  0.00    +0.000 C 
ATOM     16  O   UNL     1       4.338   5.240  19.729  0.00  0.00    +0.000 OA
BRANCH  15  17
ATOM     17  O   UNL     1       5.500   3.445  19.015  0.00  0.00    +0.000 OA
ATOM     18  H   UNL     1       5.964   3.158  18.206  0.00  0.00    +0.000 HD
ENDBRANCH  15  17
ENDBRANCH  10  15
ENDBRANCH   1  10
TORSDOF 9
ENDMDL
MODEL 3
REMARK VINA RESULT:      -5.2      2.584      4.685
REMARK  Name = 
REMARK  9 active torsions:
REMARK  status: ('A' for Active; 'I' for Inactive)
REMARK    1  A    between atoms: N_1  and  CA_2
REMARK    2  A    between atoms: CA_2  and  C_3
REMARK    3  A    between atoms: CA_2  and  C_11
REMARK    4  A    between atoms: C_3  and  C_4
REMARK    5  A    between atoms: C_4  and  C_5
REMARK    6  A    between atoms: C_4  and  C_8
REMARK    7  A    between atoms: C_5  and  O_7
REMARK    8  A    between atoms: C_8  and  O_10
REMARK    9  A    between atoms: C_11  and  OXT_13
REMARK                            x       y       z     vdW  Elec       q    Type
REMARK                         _______ _______ _______ _____ _____    ______ ____
ROOT
ATOM      1  C   UNL     1       4.347   3.704  17.057  0.00  0.00    +0.000 C 
ENDROOT
BRANCH   1   2
ATOM      2  CA  UNL     1       4.074   3.281  18.508  0.00  0.00    +0.000 C 
BRANCH   2   3
ATOM      3  N   UNL     1       5.341   3.197  19.266  0.00  0.00    +0.000 NA
ATOM      4  H1  UNL     1       5.166   3.167  20.268  0.00  0.00    +0.000 HD
ATOM      5  H2  UNL     1       5.830   4.095  19.147  0.00  0.00    +0.000 HD
ENDBRANCH   2   3
BRANCH   2   6
ATOM      6  C   UNL     1       3.353   1.925  18.501  0.00  0.00    +0.000 C 
ATOM      7  O   UNL     1       2.138   1.805  18.595  0.00  0.00    +0.000 OA
BRANCH   6   8
ATOM      8  OXT UNL     1       4.187   0.866  18.402  0.00  0.00    +0.000 OA
ATOM      9  HXT UNL     1       3.859   0.134  17.842  0.00  0.00    +0.000 HD
ENDBRANCH   6   8
ENDBRANCH   2   6
ENDBRANCH   1   2
BRANCH   1  10
ATOM     10  C   UNL     1       5.508   4.707  16.910  0.00  0.00    +0.000 C 
BRANCH  10  11
ATOM     11  C   UNL     1       6.518   4.232  15.897  0.00  0.00    +0.000 C 
ATOM     12  O   UNL     1       6.236   3.676  14.848  0.00  0.00    +0.000 OA
BRANCH  11  13
ATOM     13  O   UNL     1       7.799   4.559  16.188  0.00  0.00    +0.000 OA
ATOM     14  H   UNL     1       8.503   4.050  15.748  0.00  0.00    +0.000 HD
ENDBRANCH  11  13
ENDBRANCH  10  11
BRANCH  10  15
ATOM     15  C   UNL     1       4.956   6.062  16.527  0.00  0.00    +0.000 C 
ATOM     16  O   UNL     1       4.169   6.699  17.228  0.00  0.00    +0.000 OA
BRANCH  15  17
ATOM     17  O   UNL     1       5.453   6.568  15.379  0.00  0.00    +0.000 OA
ATOM     18  H   UNL     1       5.856   7.454  15.446  0.00  0.00    +0.000 HD
ENDBRANCH  15  17
ENDBRANCH  10  15
ENDBRANCH   1  10
TORSDOF 9
ENDMDL
MODEL 4
REMARK VINA RESULT:      -5.2      2.432      4.252
REMARK  Name = 
REMARK  9 active torsions:
REMARK  status: ('A' for Active; 'I' for Inactive)
REMARK    1  A    between atoms: N_1  and  CA_2
REMARK    2  A    between atoms: CA_2  and  C_3
REMARK    3  A    between atoms: CA_2  and  C_11
REMARK    4  A    between atoms: C_3  and  C_4
REMARK    5  A    between atoms: C_4  and  C_5
REMARK    6  A    between atoms: C_4  and  C_8
REMARK    7  A    between atoms: C_5  and  O_7
REMARK    8  A    between atoms: C_8  and  O_10
REMARK    9  A    between atoms: C_11  and  OXT_13
REMARK                            x       y       z     vdW  Elec       q    Type
REMARK                         _______ _______ _______ _____ _____    ______ ____
ROOT
ATOM      1  C   UNL     1       4.359   4.585  17.327  0.00  0.00    +0.000 C 
ENDROOT
BRANCH   1   2
ATOM      2  CA  UNL     1       3.379   3.404  17.246  0.00  0.00    +0.000 C 
BRANCH   2   3
ATOM      3  N   UNL     1       1.984   3.894  17.238  0.00  0.00    +0.000 NA
ATOM      4  H1  UNL     1       1.921   4.812  16.804  0.00  0.00    +0.000 HD
ATOM      5  H2  UNL     1       1.720   4.085  18.215  0.00  0.00    +0.000 HD
ENDBRANCH   2   3
BRANCH   2   6
ATOM      6  C   UNL     1       3.624   2.475  18.445  0.00  0.00    +0.000 C 
ATOM      7  O   UNL     1       4.366   2.756  19.377  0.00  0.00    +0.000 OA
BRANCH   6   8
ATOM      8  OXT UNL     1       2.957   1.302  18.366  0.00  0.00    +0.000 OA
ATOM      9  HXT UNL     1       2.428   1.075  19.158  0.00  0.00    +0.000 HD
ENDBRANCH   6   8
ENDBRANCH   2   6
ENDBRANCH   1   2
BRANCH   1  10
ATOM     10  C   UNL     1       5.590   4.435  16.412  0.00  0.00    +0.000 C 
BRANCH  10  11
ATOM     11  C   UNL     1       5.687   5.576  15.433  0.00  0.00    +0.000 C 
ATOM     12  O   UNL     1       5.099   6.639  15.550  0.00  0.00    +0.000 OA
BRANCH  11  13
ATOM     13  O   UNL     1       6.577   5.380  14.431  0.00  0.00    +0.000 OA
ATOM     14  H   UNL     1       7.458   5.786  14.528  0.00  0.00    +0.000 HD
ENDBRANCH  11  13
ENDBRANCH  10  11
BRANCH  10  15
ATOM     15  C   UNL     1       6.838   4.342  17.260  0.00  0.00    +0.000 C 
ATOM     16  O   UNL     1       7.979   4.458  16.809  0.00  0.00    +0.000 OA
BRANCH  15  17
ATOM     17  O   UNL     1       6.611   4.195  18.583  0.00  0.00    +0.000 OA
ATOM     18  H   UNL     1       7.311   3.738  19.084  0.00  0.00    +0.000 HD
ENDBRANCH  15  17
ENDBRANCH  10  15
ENDBRANCH   1  10
TORSDOF 9
ENDMDL
MODEL 5
REMARK VINA RESULT:      -5.2      3.299      5.084
REMARK  Name = 
REMARK  9 active torsions:
REMARK  status: ('A' for Active; 'I' for Inactive)
REMARK    1  A    between atoms: N_1  and  CA_2
REMARK    2  A    between atoms: CA_2  and  C_3
REMARK    3  A    between atoms: CA_2  and  C_11
REMARK    4  A    between atoms: C_3  and  C_4
REMARK    5  A    between atoms: C_4  and  C_5
REMARK    6  A    between atoms: C_4  and  C_8
REMARK    7  A    between atoms: C_5  and  O_7
REMARK    8  A    between atoms: C_8  and  O_10
REMARK    9  A    between atoms: C_11  and  OXT_13
REMARK                            x       y       z     vdW  Elec       q    Type
REMARK                         _______ _______ _______ _____ _____    ______ ____
ROOT
ATOM      1  C   UNL     1       4.078   3.263  19.514  0.00  0.00    +0.000 C 
ENDROOT
BRANCH   1   2
ATOM      2  CA  UNL     1       4.701   4.084  18.375  0.00  0.00    +0.000 C 
BRANCH   2   3
ATOM      3  N   UNL     1       4.777   3.274  17.139  0.00  0.00    +0.000 NA
ATOM      4  H1  UNL     1       5.349   2.444  17.281  0.00  0.00    +0.000 HD
ATOM      5  H2  UNL     1       5.323   3.813  16.452  0.00  0.00    +0.000 HD
ENDBRANCH   2   3
BRANCH   2   6
ATOM      6  C   UNL     1       6.099   4.550  18.807  0.00  0.00    +0.000 C 
ATOM      7  O   UNL     1       6.305   5.241  19.797  0.00  0.00    +0.000 OA
BRANCH   6   8
ATOM      8  OXT UNL     1       7.087   4.143  17.979  0.00  0.00    +0.000 OA
ATOM      9  HXT UNL     1       7.127   3.177  17.830  0.00  0.00    +0.000 HD
ENDBRANCH   6   8
ENDBRANCH   2   6
ENDBRANCH   1   2
BRANCH   1  10
ATOM     10  C   UNL     1       2.563   3.486  19.684  0.00  0.00    +0.000 C 
BRANCH  10  11
ATOM     11  C   UNL     1       1.789   2.883  18.540  0.00  0.00    +0.000 C 
ATOM     12  O   UNL     1       1.467   3.486  17.529  0.00  0.00    +0.000 OA
BRANCH  11  13
ATOM     13  O   UNL     1       1.549   1.556  18.665  0.00  0.00    +0.000 OA
ATOM     14  H   UNL     1       2.280   0.996  18.984  0.00  0.00    +0.000 HD
ENDBRANCH  11  13
ENDBRANCH  10  11
BRANCH  10  15
ATOM     15  C   UNL     1       2.114   2.905  21.006  0.00  0.00    +0.000 C 
ATOM     16  O   UNL     1       2.891   2.545  21.891  0.00  0.00    +0.000 OA
BRANCH  15  17
ATOM     17  O   UNL     1       0.776   2.874  21.182  0.00  0.00    +0.000 OA
ATOM     18  H   UNL     1       0.434   3.413  21.920  0.00  0.00    +0.000 HD
ENDBRANCH  15  17
ENDBRANCH  10  15
ENDBRANCH   1  10
TORSDOF 9
ENDMDL
MODEL 6
REMARK VINA RESULT:      -5.2      1.997      3.462
REMARK  Name = 
REMARK  9 active torsions:
REMARK  status: ('A' for Active; 'I' for Inactive)
REMARK    1  A    between atoms: N_1  and  CA_2
REMARK    2  A    between atoms: CA_2  and  C_3
REMARK    3  A    between atoms: CA_2  and  C_11
REMARK    4  A    between atoms: C_3  and  C_4
REMARK    5  A    between atoms: C_4  and  C_5
REMARK    6  A    between atoms: C_4  and  C_8
REMARK    7  A    between atoms: C_5  and  O_7
REMARK    8  A    between atoms: C_8  and  O_10
REMARK    9  A    between atoms: C_11  and  OXT_13
REMARK                            x       y       z     vdW  Elec       q    Type
REMARK                         _______ _______ _______ _____ _____    ______ ____
ROOT
ATOM      1  C   UNL     1       5.394   5.513  18.661  0.00  0.00    +0.000 C 
ENDROOT
BRANCH   1   2
ATOM      2  CA  UNL     1       4.461   4.323  18.939  0.00  0.00    +0.000 C 
BRANCH   2   3
ATOM      3  N   UNL     1       5.251   3.114  19.255  0.00  0.00    +0.000 NA
ATOM      4  H1  UNL     1       4.786   2.275  18.915  0.00  0.00    +0.000 HD
ATOM      5  H2  UNL     1       5.228   2.990  20.277  0.00  0.00    +0.000 HD
ENDBRANCH   2   3
BRANCH   2   6
ATOM      6  C   UNL     1       3.576   4.090  17.706  0.00  0.00    +0.000 C 
ATOM      7  O   UNL     1       4.016   3.774  16.608  0.00  0.00    +0.000 OA
BRANCH   6   8
ATOM      8  OXT UNL     1       2.259   4.285  17.938  0.00  0.00    +0.000 OA
ATOM      9  HXT UNL     1       1.772   3.491  18.239  0.00  0.00    +0.000 HD
ENDBRANCH   6   8
ENDBRANCH   2   6
ENDBRANCH   1   2
BRANCH   1  10
ATOM     10  C   UNL     1       6.848   5.104  18.355  0.00  0.00    +0.000 C 
BRANCH  10  11
ATOM     11  C   UNL     1       7.162   5.258  16.890  0.00  0.00    +0.000 C 
ATOM     12  O   UNL     1       7.780   4.441  16.226  0.00  0.00    +0.000 OA
BRANCH  11  13
ATOM     13  O   UNL     1       6.612   6.351  16.311  0.00  0.00    +0.000 OA
ATOM     14  H   UNL     1       5.789   6.224  15.804  0.00  0.00    +0.000 HD
ENDBRANCH  11  13
ENDBRANCH  10  11
BRANCH  10  15
ATOM     15  C   UNL     1       7.791   5.931  19.200  0.00  0.00    +0.000 C 
ATOM     16  O   UNL     1       8.297   6.987  18.820  0.00  0.00    +0.000 OA
BRANCH  15  17
ATOM     17  O   UNL     1       7.986   5.460  20.450  0.00  0.00    +0.000 OA
ATOM     18  H   UNL     1       8.443   4.601  20.512  0.00  0.00    +0.000 HD
ENDBRANCH  15  17
ENDBRANCH  10  15
ENDBRANCH   1  10
TORSDOF 9
ENDMDL
MODEL 7
REMARK VINA RESULT:      -5.2      2.073      2.607
REMARK  Name = 
REMARK  9 active torsions:
REMARK  status: ('A' for Active; 'I' for Inactive)
REMARK    1  A    between atoms: N_1  and  CA_2
REMARK    2  A    between atoms: CA_2  and  C_3
REMARK    3  A    between atoms: CA_2  and  C_11
REMARK    4  A    between atoms: C_3  and  C_4
REMARK    5  A    between atoms: C_4  and  C_5
REMARK    6  A    between atoms: C_4  and  C_8
REMARK    7  A    between atoms: C_5  and  O_7
REMARK    8  A    between atoms: C_8  and  O_10
REMARK    9  A    between atoms: C_11  and  OXT_13
REMARK                            x       y       z     vdW  Elec       q    Type
REMARK                         _______ _______ _______ _____ _____    ______ ____
ROOT
ATOM      1  C   UNL     1       5.367   6.210  17.079  0.00  0.00    +0.000 C 
ENDROOT
BRANCH   1   2
ATOM      2  CA  UNL     1       6.842   5.833  16.873  0.00  0.00    +0.000 C 
BRANCH   2   3
ATOM      3  N   UNL     1       7.658   7.048  16.657  0.00  0.00    +0.000 NA
ATOM      4  H1  UNL     1       8.546   6.818  16.217  0.00  0.00    +0.000 HD
ATOM      5  H2  UNL     1       7.945   7.394  17.584  0.00  0.00    +0.000 HD
ENDBRANCH   2   3
BRANCH   2   6
ATOM      6  C   UNL     1       6.948   4.884  15.670  0.00  0.00    +0.000 C 
ATOM      7  O   UNL     1       7.477   5.194  14.610  0.00  0.00    +0.000 OA
BRANCH   6   8
ATOM      8  OXT UNL     1       6.382   3.675  15.881  0.00  0.00    +0.000 OA
ATOM      9  HXT UNL     1       6.960   2.910  15.681  0.00  0.00    +0.000 HD
ENDBRANCH   6   8
ENDBRANCH   2   6
ENDBRANCH   1   2
BRANCH   1  10
ATOM     10  C   UNL     1       4.724   5.554  18.316  0.00  0.00    +0.000 C 
BRANCH  10  11
ATOM     11  C   UNL     1       3.605   4.625  17.923  0.00  0.00    +0.000 C 
ATOM     12  O   UNL     1       3.564   3.994  16.880  0.00  0.00    +0.000 OA
BRANCH  11  13
ATOM     13  O   UNL     1       2.660   4.451  18.879  0.00  0.00    +0.000 OA
ATOM     14  H   UNL     1       2.958   4.438  19.806  0.00  0.00    +0.000 HD
ENDBRANCH  11  13
ENDBRANCH  10  11
BRANCH  10  15
ATOM     15  C   UNL     1       5.785   4.818  19.103  0.00  0.00    +0.000 C 
ATOM     16  O   UNL     1       6.583   5.377  19.858  0.00  0.00    +0.000 OA
BRANCH  15  17
ATOM     17  O   UNL     1       5.750   3.475  18.977  0.00  0.00    +0.000 OA
ATOM     18  H   UNL     1       5.440   2.984  19.761  0.00  0.00    +0.000 HD
ENDBRANCH  15  17
ENDBRANCH  10  15
ENDBRANCH   1  10
TORSDOF 9
ENDMDL
MODEL 8
REMARK VINA RESULT:      -5.2      3.064      4.734
REMARK  Name = 
REMARK  9 active torsions:
REMARK  status: ('A' for Active; 'I' for Inactive)
REMARK    1  A    between atoms: N_1  and  CA_2
REMARK    2  A    between atoms: CA_2  and  C_3
REMARK    3  A    between atoms: CA_2  and  C_11
REMARK    4  A    between atoms: C_3  and  C_4
REMARK    5  A    between atoms: C_4  and  C_5
REMARK    6  A    between atoms: C_4  and  C_8
REMARK    7  A    between atoms: C_5  and  O_7
REMARK    8  A    between atoms: C_8  and  O_10
REMARK    9  A    between atoms: C_11  and  OXT_13
REMARK                            x       y       z     vdW  Elec       q    Type
REMARK                         _______ _______ _______ _____ _____    ______ ____
ROOT
ATOM      1  C   UNL     1       4.257   3.506  17.399  0.00  0.00    +0.000 C 
ENDROOT
BRANCH   1   2
ATOM      2  CA  UNL     1       4.476   4.795  18.205  0.00  0.00    +0.000 C 
BRANCH   2   3
ATOM      3  N   UNL     1       3.656   5.894  17.650  0.00  0.00    +0.000 NA
ATOM      4  H1  UNL     1       3.368   5.689  16.696  0.00  0.00    +0.000 HD
ATOM      5  H2  UNL     1       4.275   6.709  17.531  0.00  0.00    +0.000 HD
ENDBRANCH   2   3
BRANCH   2   6
ATOM      6  C   UNL     1       5.968   5.156  18.166  0.00  0.00    +0.000 C 
ATOM      7  O   UNL     1       6.385   6.285  17.942  0.00  0.00    +0.000 OA
BRANCH   6   8
ATOM      8  OXT UNL     1       6.787   4.103  18.384  0.00  0.00    +0.000 OA
ATOM      9  HXT UNL     1       7.614   4.316  18.862  0.00  0.00    +0.000 HD
ENDBRANCH   6   8
ENDBRANCH   2   6
ENDBRANCH   1   2
BRANCH   1  10
ATOM     10  C   UNL     1       3.508   2.406  18.177  0.00  0.00    +0.000 C 
BRANCH  10  11
ATOM     11  C   UNL     1       3.920   2.384  19.626  0.00  0.00    +0.000 C 
ATOM     12  O   UNL     1       3.184   2.667  20.558  0.00  0.00    +0.000 OA
BRANCH  11  13
ATOM     13  O   UNL     1       5.173   1.918  19.845  0.00  0.00    +0.000 OA
ATOM     14  H   UNL     1       5.890   2.574  19.912  0.00  0.00    +0.000 HD
ENDBRANCH  11  13
ENDBRANCH  10  11
BRANCH  10  15
ATOM     15  C   UNL     1       2.018   2.620  18.041  0.00  0.00    +0.000 C 
ATOM     16  O   UNL     1       1.517   3.544  17.399  0.00  0.00    +0.000 OA
BRANCH  15  17
ATOM     17  O   UNL     1       1.257   1.668  18.623  0.00  0.00    +0.000 OA
ATOM     18  H   UNL     1       0.293   1.797  18.554  0.00  0.00    +0.000 HD
ENDBRANCH  15  17
ENDBRANCH  10  15
ENDBRANCH   1  10
TORSDOF 9
ENDMDL
MODEL 9
REMARK VINA RESULT:      -5.2      2.177      2.836
REMARK  Name = 
REMARK  9 active torsions:
REMARK  status: ('A' for Active; 'I' for Inactive)
REMARK    1  A    between atoms: N_1  and  CA_2
REMARK    2  A    between atoms: CA_2  and  C_3
REMARK    3  A    between atoms: CA_2  and  C_11
REMARK    4  A    between atoms: C_3  and  C_4
REMARK    5  A    between atoms: C_4  and  C_5
REMARK    6  A    between atoms: C_4  and  C_8
REMARK    7  A    between atoms: C_5  and  O_7
REMARK    8  A    between atoms: C_8  and  O_10
REMARK    9  A    between atoms: C_11  and  OXT_13
REMARK                            x       y       z     vdW  Elec       q    Type
REMARK                         _______ _______ _______ _____ _____    ______ ____
ROOT
ATOM      1  C   UNL     1       5.049   4.020  16.291  0.00  0.00    +0.000 C 
ENDROOT
BRANCH   1   2
ATOM      2  CA  UNL     1       6.010   5.157  15.912  0.00  0.00    +0.000 C 
BRANCH   2   3
ATOM      3  N   UNL     1       5.255   6.400  15.644  0.00  0.00    +0.000 NA
ATOM      4  H1  UNL     1       4.252   6.241  15.713  0.00  0.00    +0.000 HD
ATOM      5  H2  UNL     1       5.382   6.628  14.648  0.00  0.00    +0.000 HD
ENDBRANCH   2   3
BRANCH   2   6
ATOM      6  C   UNL     1       6.817   4.733  14.675  0.00  0.00    +0.000 C 
ATOM      7  O   UNL     1       7.712   5.410  14.188  0.00  0.00    +0.000 OA
BRANCH   6   8
ATOM      8  OXT UNL     1       6.433   3.545  14.158  0.00  0.00    +0.000 OA
ATOM      9  HXT UNL     1       6.133   3.579  13.227  0.00  0.00    +0.000 HD
ENDBRANCH   6   8
ENDBRANCH   2   6
ENDBRANCH   1   2
BRANCH   1  10
ATOM     10  C   UNL     1       4.037   4.401  17.388  0.00  0.00    +0.000 C 
BRANCH  10  11
ATOM     11  C   UNL     1       2.903   3.411  17.454  0.00  0.00    +0.000 C 
ATOM     12  O   UNL     1       1.739   3.676  17.203  0.00  0.00    +0.000 OA
BRANCH  11  13
ATOM     13  O   UNL     1       3.285   2.139  17.723  0.00  0.00    +0.000 OA
ATOM     14  H   UNL     1       2.926   1.724  18.528  0.00  0.00    +0.000 HD
ENDBRANCH  11  13
ENDBRANCH  10  11
BRANCH  10  15
ATOM     15  C   UNL     1       4.749   4.496  18.718  0.00  0.00    +0.000 C 
ATOM     16  O   UNL     1       4.600   5.432  19.505  0.00  0.00    +0.000 OA
BRANCH  15  17
ATOM     17  O   UNL     1       5.518   3.430  19.023  0.00  0.00    +0.000 OA
ATOM     18  H   UNL     1       5.039   2.599  19.200  0.00  0.00    +0.000 HD
ENDBRANCH  15  17
ENDBRANCH  10  15
ENDBRANCH   1  10
TORSDOF 9
ENDMDL
