MODEL 1
REMARK VINA RESULT:      -7.8      0.000      0.000
REMARK  Name = 
REMARK  3 active torsions:
REMARK  status: ('A' for Active; 'I' for Inactive)
REMARK    1  A    between atoms: C_1  and  C_2
REMARK    2  A    between atoms: C_2  and  C_3
REMARK    3  A    between atoms: C_21  and  C_22
REMARK                            x       y       z     vdW  Elec       q    Type
REMARK                         _______ _______ _______ _____ _____    ______ ____
ROOT
ATOM      1  C   UNL     1      -3.232  12.363  23.777  0.00  0.00    +0.000 C 
ATOM      2  C   UNL     1      -2.085  12.348  22.751  0.00  0.00    +0.000 C 
ATOM      3  C   UNL     1      -1.012  13.353  23.220  0.00  0.00    +0.000 C 
ATOM      4  C   UNL     1      -2.628  12.761  21.375  0.00  0.00    +0.000 C 
ATOM      5  C   UNL     1      -1.601  12.600  20.273  0.00  0.00    +0.000 C 
ATOM      6  O   UNL     1      -1.667  13.274  19.247  0.00  0.00    +0.000 OA
ATOM      7  C   UNL     1      -0.578  11.529  20.412  0.00  0.00    +0.000 C 
ATOM      8  C   UNL     1      -0.595  10.699  21.484  0.00  0.00    +0.000 C 
ATOM      9  C   UNL     1      -1.509  10.915  22.664  0.00  0.00    +0.000 C 
ATOM     10  N   UNL     1       0.253   9.588  21.523  0.00  0.00    +0.000 N 
ATOM     11  C   UNL     1       0.932   9.205  20.396  0.00  0.00    +0.000 C 
ATOM     12  C   UNL     1       1.024   9.993  19.313  0.00  0.00    +0.000 C 
ATOM     13  C   UNL     1       1.723   9.262  18.254  0.00  0.00    +0.000 C 
ATOM     14  O   UNL     1       1.927   9.632  17.117  0.00  0.00    +0.000 OA
ATOM     15  C   UNL     1       2.095   7.973  18.841  0.00  0.00    +0.000 A 
ATOM     16  C   UNL     1       2.790   6.925  18.268  0.00  0.00    +0.000 A 
ATOM     17  C   UNL     1       3.022   5.807  19.067  0.00  0.00    +0.000 A 
ATOM     18  C   UNL     1       2.558   5.769  20.398  0.00  0.00    +0.000 A 
ATOM     19  C   UNL     1       1.847   6.845  20.949  0.00  0.00    +0.000 A 
ATOM     20  C   UNL     1       1.615   7.950  20.152  0.00  0.00    +0.000 A 
ATOM     21  C   UNL     1       0.443  11.368  19.278  0.00  0.00    +0.000 C 
ATOM     22  H   UNL     1       0.136   8.915  22.272  0.00  0.00    +0.000 HD
ENDROOT
BRANCH  21  23
ATOM     23  C   UNL     1       1.559  12.410  19.427  0.00  0.00    +0.000 A 
ATOM     24  C   UNL     1       2.205  12.928  18.296  0.00  0.00    +0.000 A 
ATOM     25  C   UNL     1       3.223  13.877  18.435  0.00  0.00    +0.000 A 
ATOM     26  C   UNL     1       3.602  14.314  19.703  0.00  0.00    +0.000 A 
ATOM     27 BR   UNL     1       4.978  15.597  19.890  0.00  0.00    +0.000 Br
ATOM     28  C   UNL     1       2.973  13.815  20.840  0.00  0.00    +0.000 A 
ATOM     29  C   UNL     1       1.959  12.870  20.698  0.00  0.00    +0.000 A 
ENDBRANCH  21  23
TORSDOF 1
ENDMDL
MODEL 2
REMARK VINA RESULT:      -7.4      3.111      6.601
REMARK  Name = 
REMARK  3 active torsions:
REMARK  status: ('A' for Active; 'I' for Inactive)
REMARK    1  A    between atoms: C_1  and  C_2
REMARK    2  A    between atoms: C_2  and  C_3
REMARK    3  A    between atoms: C_21  and  C_22
REMARK                            x       y       z     vdW  Elec       q    Type
REMARK                         _______ _______ _______ _____ _____    ______ ____
ROOT
ATOM      1  C   UNL     1       1.816   8.590  17.871  0.00  0.00    +0.000 C 
ATOM      2  C   UNL     1       1.119   9.811  18.496  0.00  0.00    +0.000 C 
ATOM      3  C   UNL     1       1.885  11.076  18.054  0.00  0.00    +0.000 C 
ATOM      4  C   UNL     1       1.149   9.686  20.026  0.00  0.00    +0.000 C 
ATOM      5  C   UNL     1       0.329  10.758  20.714  0.00  0.00    +0.000 C 
ATOM      6  O   UNL     1       0.583  11.105  21.865  0.00  0.00    +0.000 OA
ATOM      7  C   UNL     1      -0.862  11.300  20.005  0.00  0.00    +0.000 C 
ATOM      8  C   UNL     1      -1.217  10.814  18.789  0.00  0.00    +0.000 C 
ATOM      9  C   UNL     1      -0.351   9.852  18.015  0.00  0.00    +0.000 C 
ATOM     10  N   UNL     1      -2.429  11.196  18.209  0.00  0.00    +0.000 N 
ATOM     11  C   UNL     1      -3.361  11.874  18.951  0.00  0.00    +0.000 C 
ATOM     12  C   UNL     1      -3.068  12.416  20.144  0.00  0.00    +0.000 C 
ATOM     13  C   UNL     1      -4.291  12.979  20.721  0.00  0.00    +0.000 C 
ATOM     14  O   UNL     1      -4.422  13.486  21.815  0.00  0.00    +0.000 OA
ATOM     15  C   UNL     1      -5.336  12.769  19.717  0.00  0.00    +0.000 A 
ATOM     16  C   UNL     1      -6.668  13.135  19.759  0.00  0.00    +0.000 A 
ATOM     17  C   UNL     1      -7.445  12.822  18.646  0.00  0.00    +0.000 A 
ATOM     18  C   UNL     1      -6.878  12.160  17.538  0.00  0.00    +0.000 A 
ATOM     19  C   UNL     1      -5.524  11.793  17.528  0.00  0.00    +0.000 A 
ATOM     20  C   UNL     1      -4.757  12.101  18.636  0.00  0.00    +0.000 A 
ATOM     21  C   UNL     1      -1.692  12.372  20.723  0.00  0.00    +0.000 C 
ATOM     22  H   UNL     1      -2.731  10.727  17.363  0.00  0.00    +0.000 HD
ENDROOT
BRANCH  21  23
ATOM     23  C   UNL     1      -1.018  13.742  20.573  0.00  0.00    +0.000 A 
ATOM     24  C   UNL     1      -0.892  14.597  21.677  0.00  0.00    +0.000 A 
ATOM     25  C   UNL     1      -0.278  15.846  21.538  0.00  0.00    +0.000 A 
ATOM     26  C   UNL     1       0.212  16.249  20.297  0.00  0.00    +0.000 A 
ATOM     27 BR   UNL     1       1.040  17.938  20.110  0.00  0.00    +0.000 Br
ATOM     28  C   UNL     1       0.099  15.415  19.188  0.00  0.00    +0.000 A 
ATOM     29  C   UNL     1      -0.513  14.172  19.330  0.00  0.00    +0.000 A 
ENDBRANCH  21  23
TORSDOF 1
ENDMDL
MODEL 3
REMARK VINA RESULT:      -7.3      0.676      1.137
REMARK  Name = 
REMARK  3 active torsions:
REMARK  status: ('A' for Active; 'I' for Inactive)
REMARK    1  A    between atoms: C_1  and  C_2
REMARK    2  A    between atoms: C_2  and  C_3
REMARK    3  A    between atoms: C_21  and  C_22
REMARK                            x       y       z     vdW  Elec       q    Type
REMARK                         _______ _______ _______ _____ _____    ______ ____
ROOT
ATOM      1  C   UNL     1      -3.179  13.391  23.624  0.00  0.00    +0.000 C 
ATOM      2  C   UNL     1      -1.993  13.244  22.655  0.00  0.00    +0.000 C 
ATOM      3  C   UNL     1      -0.840  14.130  23.174  0.00  0.00    +0.000 C 
ATOM      4  C   UNL     1      -2.421  13.704  21.253  0.00  0.00    +0.000 C 
ATOM      5  C   UNL     1      -1.365  13.425  20.203  0.00  0.00    +0.000 C 
ATOM      6  O   UNL     1      -1.308  14.094  19.173  0.00  0.00    +0.000 OA
ATOM      7  C   UNL     1      -0.472  12.250  20.393  0.00  0.00    +0.000 C 
ATOM      8  C   UNL     1      -0.631  11.434  21.465  0.00  0.00    +0.000 C 
ATOM      9  C   UNL     1      -1.572  11.756  22.599  0.00  0.00    +0.000 C 
ATOM     10  N   UNL     1       0.088  10.239  21.548  0.00  0.00    +0.000 N 
ATOM     11  C   UNL     1       0.775   9.776  20.456  0.00  0.00    +0.000 C 
ATOM     12  C   UNL     1       1.004  10.541  19.377  0.00  0.00    +0.000 C 
ATOM     13  C   UNL     1       1.670   9.730  18.355  0.00  0.00    +0.000 C 
ATOM     14  O   UNL     1       1.967  10.068  17.229  0.00  0.00    +0.000 OA
ATOM     15  C   UNL     1       1.870   8.414  18.961  0.00  0.00    +0.000 A 
ATOM     16  C   UNL     1       2.474   7.292  18.425  0.00  0.00    +0.000 A 
ATOM     17  C   UNL     1       2.544   6.162  19.237  0.00  0.00    +0.000 A 
ATOM     18  C   UNL     1       2.016   6.183  20.544  0.00  0.00    +0.000 A 
ATOM     19  C   UNL     1       1.400   7.334  21.058  0.00  0.00    +0.000 A 
ATOM     20  C   UNL     1       1.328   8.452  20.247  0.00  0.00    +0.000 A 
ATOM     21  C   UNL     1       0.578  11.971  19.311  0.00  0.00    +0.000 C 
ATOM     22  H   UNL     1      -0.137   9.587  22.291  0.00  0.00    +0.000 HD
ENDROOT
BRANCH  21  23
ATOM     23  C   UNL     1       1.793  12.887  19.512  0.00  0.00    +0.000 A 
ATOM     24  C   UNL     1       2.242  13.199  20.803  0.00  0.00    +0.000 A 
ATOM     25  C   UNL     1       3.349  14.035  20.983  0.00  0.00    +0.000 A 
ATOM     26  C   UNL     1       4.013  14.563  19.877  0.00  0.00    +0.000 A 
ATOM     27 BR   UNL     1       5.508  15.694  20.123  0.00  0.00    +0.000 Br
ATOM     28  C   UNL     1       3.584  14.265  18.587  0.00  0.00    +0.000 A 
ATOM     29  C   UNL     1       2.482  13.432  18.411  0.00  0.00    +0.000 A 
ENDBRANCH  21  23
TORSDOF 1
ENDMDL
MODEL 4
REMARK VINA RESULT:      -7.3      3.582      5.964
REMARK  Name = 
REMARK  3 active torsions:
REMARK  status: ('A' for Active; 'I' for Inactive)
REMARK    1  A    between atoms: C_1  and  C_2
REMARK    2  A    between atoms: C_2  and  C_3
REMARK    3  A    between atoms: C_21  and  C_22
REMARK                            x       y       z     vdW  Elec       q    Type
REMARK                         _______ _______ _______ _____ _____    ______ ____
ROOT
ATOM      1  C   UNL     1      -3.511  13.445  24.359  0.00  0.00    +0.000 C 
ATOM      2  C   UNL     1      -2.849  12.991  23.046  0.00  0.00    +0.000 C 
ATOM      3  C   UNL     1      -3.968  12.643  22.042  0.00  0.00    +0.000 C 
ATOM      4  C   UNL     1      -1.981  11.753  23.316  0.00  0.00    +0.000 C 
ATOM      5  C   UNL     1      -1.154  11.349  22.112  0.00  0.00    +0.000 C 
ATOM      6  O   UNL     1      -0.776  10.188  21.968  0.00  0.00    +0.000 OA
ATOM      7  C   UNL     1      -0.715  12.411  21.168  0.00  0.00    +0.000 C 
ATOM      8  C   UNL     1      -1.021  13.711  21.408  0.00  0.00    +0.000 C 
ATOM      9  C   UNL     1      -1.955  14.136  22.513  0.00  0.00    +0.000 C 
ATOM     10  N   UNL     1      -0.459  14.719  20.620  0.00  0.00    +0.000 N 
ATOM     11  C   UNL     1       0.568  14.425  19.760  0.00  0.00    +0.000 C 
ATOM     12  C   UNL     1       0.899  13.163  19.447  0.00  0.00    +0.000 C 
ATOM     13  C   UNL     1       2.088  13.184  18.592  0.00  0.00    +0.000 C 
ATOM     14  O   UNL     1       2.709  12.230  18.173  0.00  0.00    +0.000 OA
ATOM     15  C   UNL     1       2.397  14.598  18.377  0.00  0.00    +0.000 A 
ATOM     16  C   UNL     1       3.410  15.163  17.626  0.00  0.00    +0.000 A 
ATOM     17  C   UNL     1       3.464  16.555  17.581  0.00  0.00    +0.000 A 
ATOM     18  C   UNL     1       2.519  17.332  18.279  0.00  0.00    +0.000 A 
ATOM     19  C   UNL     1       1.507  16.731  19.041  0.00  0.00    +0.000 A 
ATOM     20  C   UNL     1       1.459  15.350  19.087  0.00  0.00    +0.000 A 
ATOM     21  C   UNL     1       0.136  11.987  19.965  0.00  0.00    +0.000 C 
ATOM     22  H   UNL     1      -0.601  15.685  20.893  0.00  0.00    +0.000 HD
ENDROOT
BRANCH  21  23
ATOM     23  C   UNL     1      -0.765  11.422  18.859  0.00  0.00    +0.000 A 
ATOM     24  C   UNL     1      -0.425  10.231  18.203  0.00  0.00    +0.000 A 
ATOM     25  C   UNL     1      -1.248   9.719  17.195  0.00  0.00    +0.000 A 
ATOM     26  C   UNL     1      -2.415  10.391  16.837  0.00  0.00    +0.000 A 
ATOM     27 BR   UNL     1      -3.526   9.698  15.474  0.00  0.00    +0.000 Br
ATOM     28  C   UNL     1      -2.773  11.575  17.477  0.00  0.00    +0.000 A 
ATOM     29  C   UNL     1      -1.951  12.082  18.480  0.00  0.00    +0.000 A 
ENDBRANCH  21  23
TORSDOF 1
ENDMDL
MODEL 5
REMARK VINA RESULT:      -7.3      3.218      5.195
REMARK  Name = 
REMARK  3 active torsions:
REMARK  status: ('A' for Active; 'I' for Inactive)
REMARK    1  A    between atoms: C_1  and  C_2
REMARK    2  A    between atoms: C_2  and  C_3
REMARK    3  A    between atoms: C_21  and  C_22
REMARK                            x       y       z     vdW  Elec       q    Type
REMARK                         _______ _______ _______ _____ _____    ______ ____
ROOT
ATOM      1  C   UNL     1       1.469  17.500  18.402  0.00  0.00    +0.000 C 
ATOM      2  C   UNL     1       0.817  16.344  19.181  0.00  0.00    +0.000 C 
ATOM      3  C   UNL     1      -0.714  16.464  19.020  0.00  0.00    +0.000 C 
ATOM      4  C   UNL     1       1.201  16.451  20.664  0.00  0.00    +0.000 C 
ATOM      5  C   UNL     1       0.746  15.250  21.469  0.00  0.00    +0.000 C 
ATOM      6  O   UNL     1       0.545  15.342  22.678  0.00  0.00    +0.000 OA
ATOM      7  C   UNL     1       0.657  13.932  20.784  0.00  0.00    +0.000 C 
ATOM      8  C   UNL     1       1.013  13.811  19.481  0.00  0.00    +0.000 C 
ATOM      9  C   UNL     1       1.335  15.002  18.613  0.00  0.00    +0.000 C 
ATOM     10  N   UNL     1       1.099  12.546  18.893  0.00  0.00    +0.000 N 
ATOM     11  C   UNL     1       1.049  11.422  19.676  0.00  0.00    +0.000 C 
ATOM     12  C   UNL     1       0.668  11.462  20.963  0.00  0.00    +0.000 C 
ATOM     13  C   UNL     1       0.817  10.126  21.542  0.00  0.00    +0.000 C 
ATOM     14  O   UNL     1       0.633   9.801  22.696  0.00  0.00    +0.000 OA
ATOM     15  C   UNL     1       1.270   9.267  20.447  0.00  0.00    +0.000 A 
ATOM     16  C   UNL     1       1.539   7.911  20.459  0.00  0.00    +0.000 A 
ATOM     17  C   UNL     1       1.946   7.336  19.257  0.00  0.00    +0.000 A 
ATOM     18  C   UNL     1       2.072   8.121  18.093  0.00  0.00    +0.000 A 
ATOM     19  C   UNL     1       1.801   9.497  18.113  0.00  0.00    +0.000 A 
ATOM     20  C   UNL     1       1.402  10.065  19.309  0.00  0.00    +0.000 A 
ATOM     21  C   UNL     1       0.213  12.725  21.619  0.00  0.00    +0.000 C 
ATOM     22  H   UNL     1       1.485  12.470  17.959  0.00  0.00    +0.000 HD
ENDROOT
BRANCH  21  23
ATOM     23  C   UNL     1      -1.315  12.719  21.758  0.00  0.00    +0.000 A 
ATOM     24  C   UNL     1      -2.133  12.929  20.639  0.00  0.00    +0.000 A 
ATOM     25  C   UNL     1      -3.525  12.924  20.769  0.00  0.00    +0.000 A 
ATOM     26  C   UNL     1      -4.109  12.710  22.017  0.00  0.00    +0.000 A 
ATOM     27 BR   UNL     1      -5.991  12.705  22.191  0.00  0.00    +0.000 Br
ATOM     28  C   UNL     1      -3.316  12.498  23.141  0.00  0.00    +0.000 A 
ATOM     29  C   UNL     1      -1.930  12.503  23.007  0.00  0.00    +0.000 A 
ENDBRANCH  21  23
TORSDOF 1
ENDMDL
MODEL 6
REMARK VINA RESULT:      -7.2      3.182      6.714
REMARK  Name = 
REMARK  3 active torsions:
REMARK  status: ('A' for Active; 'I' for Inactive)
REMARK    1  A    between atoms: C_1  and  C_2
REMARK    2  A    between atoms: C_2  and  C_3
REMARK    3  A    between atoms: C_21  and  C_22
REMARK                            x       y       z     vdW  Elec       q    Type
REMARK                         _______ _______ _______ _____ _____    ______ ____
ROOT
ATOM      1  C   UNL     1       1.739   9.080  18.049  0.00  0.00    +0.000 C 
ATOM      2  C   UNL     1       0.970  10.217  18.746  0.00  0.00    +0.000 C 
ATOM      3  C   UNL     1       1.706  11.541  18.450  0.00  0.00    +0.000 C 
ATOM      4  C   UNL     1       0.941   9.957  20.259  0.00  0.00    +0.000 C 
ATOM      5  C   UNL     1       0.051  10.936  20.999  0.00  0.00    +0.000 C 
ATOM      6  O   UNL     1       0.243  11.188  22.187  0.00  0.00    +0.000 OA
ATOM      7  C   UNL     1      -1.128  11.497  20.286  0.00  0.00    +0.000 C 
ATOM      8  C   UNL     1      -1.412  11.108  19.018  0.00  0.00    +0.000 C 
ATOM      9  C   UNL     1      -0.478  10.249  18.204  0.00  0.00    +0.000 C 
ATOM     10  N   UNL     1      -2.613  11.499  18.419  0.00  0.00    +0.000 N 
ATOM     11  C   UNL     1      -3.600  12.076  19.174  0.00  0.00    +0.000 C 
ATOM     12  C   UNL     1      -3.379  12.520  20.422  0.00  0.00    +0.000 C 
ATOM     13  C   UNL     1      -4.646  12.987  20.989  0.00  0.00    +0.000 C 
ATOM     14  O   UNL     1      -4.842  13.391  22.116  0.00  0.00    +0.000 OA
ATOM     15  C   UNL     1      -5.638  12.832  19.924  0.00  0.00    +0.000 A 
ATOM     16  C   UNL     1      -6.984  13.147  19.937  0.00  0.00    +0.000 A 
ATOM     17  C   UNL     1      -7.701  12.907  18.766  0.00  0.00    +0.000 A 
ATOM     18  C   UNL     1      -7.063  12.365  17.632  0.00  0.00    +0.000 A 
ATOM     19  C   UNL     1      -5.697  12.047  17.652  0.00  0.00    +0.000 A 
ATOM     20  C   UNL     1      -4.990  12.282  18.817  0.00  0.00    +0.000 A 
ATOM     21  C   UNL     1      -2.028  12.472  21.056  0.00  0.00    +0.000 C 
ATOM     22  H   UNL     1      -2.861  11.096  17.522  0.00  0.00    +0.000 HD
ENDROOT
BRANCH  21  23
ATOM     23  C   UNL     1      -1.401  13.873  21.057  0.00  0.00    +0.000 A 
ATOM     24  C   UNL     1      -0.873  14.417  19.878  0.00  0.00    +0.000 A 
ATOM     25  C   UNL     1      -0.302  15.693  19.882  0.00  0.00    +0.000 A 
ATOM     26  C   UNL     1      -0.255  16.434  21.062  0.00  0.00    +0.000 A 
ATOM     27 BR   UNL     1       0.518  18.159  21.066  0.00  0.00    +0.000 Br
ATOM     28  C   UNL     1      -0.775  15.914  22.244  0.00  0.00    +0.000 A 
ATOM     29  C   UNL     1      -1.343  14.642  22.236  0.00  0.00    +0.000 A 
ENDBRANCH  21  23
TORSDOF 1
ENDMDL
MODEL 7
REMARK VINA RESULT:      -7.2      2.975      5.105
REMARK  Name = 
REMARK  3 active torsions:
REMARK  status: ('A' for Active; 'I' for Inactive)
REMARK    1  A    between atoms: C_1  and  C_2
REMARK    2  A    between atoms: C_2  and  C_3
REMARK    3  A    between atoms: C_21  and  C_22
REMARK                            x       y       z     vdW  Elec       q    Type
REMARK                         _______ _______ _______ _____ _____    ______ ____
ROOT
ATOM      1  C   UNL     1       2.436  16.603  18.092  0.00  0.00    +0.000 C 
ATOM      2  C   UNL     1       1.620  15.577  18.898  0.00  0.00    +0.000 C 
ATOM      3  C   UNL     1       0.124  15.821  18.605  0.00  0.00    +0.000 C 
ATOM      4  C   UNL     1       1.900  15.769  20.396  0.00  0.00    +0.000 C 
ATOM      5  C   UNL     1       1.273  14.683  21.248  0.00  0.00    +0.000 C 
ATOM      6  O   UNL     1       0.992  14.891  22.426  0.00  0.00    +0.000 OA
ATOM      7  C   UNL     1       1.109  13.328  20.657  0.00  0.00    +0.000 C 
ATOM      8  C   UNL     1       1.548  13.070  19.400  0.00  0.00    +0.000 C 
ATOM      9  C   UNL     1       2.047  14.152  18.476  0.00  0.00    +0.000 C 
ATOM     10  N   UNL     1       1.555  11.758  18.916  0.00  0.00    +0.000 N 
ATOM     11  C   UNL     1       1.339  10.711  19.773  0.00  0.00    +0.000 C 
ATOM     12  C   UNL     1       0.869  10.889  21.018  0.00  0.00    +0.000 C 
ATOM     13  C   UNL     1       0.845   9.596  21.705  0.00  0.00    +0.000 C 
ATOM     14  O   UNL     1       0.545   9.384  22.861  0.00  0.00    +0.000 OA
ATOM     15  C   UNL     1       1.294   8.614  20.717  0.00  0.00    +0.000 A 
ATOM     16  C   UNL     1       1.430   7.245  20.851  0.00  0.00    +0.000 A 
ATOM     17  C   UNL     1       1.869   6.540  19.732  0.00  0.00    +0.000 A 
ATOM     18  C   UNL     1       2.156   7.213  18.527  0.00  0.00    +0.000 A 
ATOM     19  C   UNL     1       2.017   8.605  18.424  0.00  0.00    +0.000 A 
ATOM     20  C   UNL     1       1.586   9.302  19.538  0.00  0.00    +0.000 A 
ATOM     21  C   UNL     1       0.489  12.236  21.540  0.00  0.00    +0.000 C 
ATOM     22  H   UNL     1       2.001  11.572  18.025  0.00  0.00    +0.000 HD
ENDROOT
BRANCH  21  23
ATOM     23  C   UNL     1      -1.038  12.380  21.553  0.00  0.00    +0.000 A 
ATOM     24  C   UNL     1      -1.749  12.306  22.759  0.00  0.00    +0.000 A 
ATOM     25  C   UNL     1      -3.141  12.437  22.769  0.00  0.00    +0.000 A 
ATOM     26  C   UNL     1      -3.832  12.640  21.575  0.00  0.00    +0.000 A 
ATOM     27 BR   UNL     1      -5.714  12.815  21.589  0.00  0.00    +0.000 Br
ATOM     28  C   UNL     1      -3.146  12.718  20.366  0.00  0.00    +0.000 A 
ATOM     29  C   UNL     1      -1.759  12.588  20.361  0.00  0.00    +0.000 A 
ENDBRANCH  21  23
TORSDOF 1
ENDMDL
MODEL 8
REMARK VINA RESULT:      -7.0      3.450      5.534
REMARK  Name = 
REMARK  3 active torsions:
REMARK  status: ('A' for Active; 'I' for Inactive)
REMARK    1  A    between atoms: C_1  and  C_2
REMARK    2  A    between atoms: C_2  and  C_3
REMARK    3  A    between atoms: C_21  and  C_22
REMARK                            x       y       z     vdW  Elec       q    Type
REMARK                         _______ _______ _______ _____ _____    ______ ____
ROOT
ATOM      1  C   UNL     1       0.799  17.926  18.922  0.00  0.00    +0.000 C 
ATOM      2  C   UNL     1       0.169  16.730  19.658  0.00  0.00    +0.000 C 
ATOM      3  C   UNL     1      -1.356  16.777  19.427  0.00  0.00    +0.000 C 
ATOM      4  C   UNL     1       0.478  16.837  21.159  0.00  0.00    +0.000 C 
ATOM      5  C   UNL     1       0.045  15.606  21.930  0.00  0.00    +0.000 C 
ATOM      6  O   UNL     1      -0.216  15.674  23.129  0.00  0.00    +0.000 OA
ATOM      7  C   UNL     1       0.054  14.294  21.229  0.00  0.00    +0.000 C 
ATOM      8  C   UNL     1       0.476  14.206  19.943  0.00  0.00    +0.000 C 
ATOM      9  C   UNL     1       0.779  15.421  19.102  0.00  0.00    +0.000 C 
ATOM     10  N   UNL     1       0.651  12.954  19.347  0.00  0.00    +0.000 N 
ATOM     11  C   UNL     1       0.620  11.819  20.116  0.00  0.00    +0.000 C 
ATOM     12  C   UNL     1       0.178  11.825  21.383  0.00  0.00    +0.000 C 
ATOM     13  C   UNL     1       0.365  10.491  21.956  0.00  0.00    +0.000 C 
ATOM     14  O   UNL     1       0.144  10.143  23.097  0.00  0.00    +0.000 OA
ATOM     15  C   UNL     1       0.911   9.668  20.875  0.00  0.00    +0.000 A 
ATOM     16  C   UNL     1       1.245   8.327  20.887  0.00  0.00    +0.000 A 
ATOM     17  C   UNL     1       1.736   7.787  19.700  0.00  0.00    +0.000 A 
ATOM     18  C   UNL     1       1.878   8.591  18.551  0.00  0.00    +0.000 A 
ATOM     19  C   UNL     1       1.538   9.952  18.572  0.00  0.00    +0.000 A 
ATOM     20  C   UNL     1       1.056  10.485  19.753  0.00  0.00    +0.000 A 
ATOM     21  C   UNL     1      -0.369  13.056  22.030  0.00  0.00    +0.000 C 
ATOM     22  H   UNL     1       1.084  12.908  18.432  0.00  0.00    +0.000 HD
ENDROOT
BRANCH  21  23
ATOM     23  C   UNL     1      -1.900  12.974  22.097  0.00  0.00    +0.000 A 
ATOM     24  C   UNL     1      -2.542  12.620  23.292  0.00  0.00    +0.000 A 
ATOM     25  C   UNL     1      -3.937  12.545  23.349  0.00  0.00    +0.000 A 
ATOM     26  C   UNL     1      -4.699  12.824  22.216  0.00  0.00    +0.000 A 
ATOM     27 BR   UNL     1      -6.585  12.721  22.295  0.00  0.00    +0.000 Br
ATOM     28  C   UNL     1      -4.082  13.179  21.020  0.00  0.00    +0.000 A 
ATOM     29  C   UNL     1      -2.692  13.252  20.966  0.00  0.00    +0.000 A 
ENDBRANCH  21  23
TORSDOF 1
ENDMDL
MODEL 9
REMARK VINA RESULT:      -7.0      3.112      7.155
REMARK  Name = 
REMARK  3 active torsions:
REMARK  status: ('A' for Active; 'I' for Inactive)
REMARK    1  A    between atoms: C_1  and  C_2
REMARK    2  A    between atoms: C_2  and  C_3
REMARK    3  A    between atoms: C_21  and  C_22
REMARK                            x       y       z     vdW  Elec       q    Type
REMARK                         _______ _______ _______ _____ _____    ______ ____
ROOT
ATOM      1  C   UNL     1       1.301   9.848  18.144  0.00  0.00    +0.000 C 
ATOM      2  C   UNL     1       0.610  10.788  19.147  0.00  0.00    +0.000 C 
ATOM      3  C   UNL     1       1.404  12.112  19.185  0.00  0.00    +0.000 C 
ATOM      4  C   UNL     1       0.608  10.135  20.537  0.00  0.00    +0.000 C 
ATOM      5  C   UNL     1      -0.211  10.917  21.545  0.00  0.00    +0.000 C 
ATOM      6  O   UNL     1       0.026  10.834  22.748  0.00  0.00    +0.000 OA
ATOM      7  C   UNL     1      -1.378  11.698  21.054  0.00  0.00    +0.000 C 
ATOM      8  C   UNL     1      -1.716  11.674  19.740  0.00  0.00    +0.000 C 
ATOM      9  C   UNL     1      -0.849  11.025  18.690  0.00  0.00    +0.000 C 
ATOM     10  N   UNL     1      -2.910  12.260  19.313  0.00  0.00    +0.000 N 
ATOM     11  C   UNL     1      -3.846  12.656  20.233  0.00  0.00    +0.000 C 
ATOM     12  C   UNL     1      -3.570  12.740  21.544  0.00  0.00    +0.000 C 
ATOM     13  C   UNL     1      -4.796  13.092  22.265  0.00  0.00    +0.000 C 
ATOM     14  O   UNL     1      -4.941  13.187  23.465  0.00  0.00    +0.000 OA
ATOM     15  C   UNL     1      -5.823  13.268  21.237  0.00  0.00    +0.000 A 
ATOM     16  C   UNL     1      -7.150  13.624  21.386  0.00  0.00    +0.000 A 
ATOM     17  C   UNL     1      -7.909  13.736  20.222  0.00  0.00    +0.000 A 
ATOM     18  C   UNL     1      -7.330  13.491  18.961  0.00  0.00    +0.000 A 
ATOM     19  C   UNL     1      -5.982  13.122  18.842  0.00  0.00    +0.000 A 
ATOM     20  C   UNL     1      -5.233  13.008  19.998  0.00  0.00    +0.000 A 
ATOM     21  C   UNL     1      -2.206  12.468  22.090  0.00  0.00    +0.000 C 
ATOM     22  H   UNL     1      -3.202  12.123  18.353  0.00  0.00    +0.000 HD
ENDROOT
BRANCH  21  23
ATOM     23  C   UNL     1      -1.510  13.790  22.438  0.00  0.00    +0.000 A 
ATOM     24  C   UNL     1      -1.468  14.245  23.764  0.00  0.00    +0.000 A 
ATOM     25  C   UNL     1      -0.833  15.450  24.078  0.00  0.00    +0.000 A 
ATOM     26  C   UNL     1      -0.237  16.209  23.072  0.00  0.00    +0.000 A 
ATOM     27 BR   UNL     1       0.620  17.839  23.498  0.00  0.00    +0.000 Br
ATOM     28  C   UNL     1      -0.265  15.775  21.749  0.00  0.00    +0.000 A 
ATOM     29  C   UNL     1      -0.898  14.574  21.440  0.00  0.00    +0.000 A 
ENDBRANCH  21  23
TORSDOF 1
ENDMDL
