MODEL 1
REMARK VINA RESULT:      -6.6      0.000      0.000
REMARK  Name = 
REMARK  9 active torsions:
REMARK  status: ('A' for Active; 'I' for Inactive)
REMARK    1  A    between atoms: C_1  and  C_2
REMARK    2  A    between atoms: C_2  and  C_3
REMARK    3  A    between atoms: C_2  and  C_4
REMARK    4  A    between atoms: C_2  and  O_5
REMARK    5  A    between atoms: O_5  and  C_6
REMARK    6  A    between atoms: N_8  and  CA_9
REMARK    7  A    between atoms: CA_9  and  C_10
REMARK    8  A    between atoms: CA_9  and  C_13
REMARK    9  A    between atoms: C_10  and  OXT_12
REMARK                            x       y       z     vdW  Elec       q    Type
REMARK                         _______ _______ _______ _____ _____    ______ ____
ROOT
ATOM      1  CA  UNL     1       6.007   5.651  17.873  0.00  0.00    +0.000 C 
ENDROOT
BRANCH   1   2
ATOM      2  C   UNL     1       6.077   5.097  16.461  0.00  0.00    +0.000 A 
ATOM      3  C   UNL     1       5.033   4.281  15.984  0.00  0.00    +0.000 A 
ATOM      4  C   UNL     1       5.072   3.751  14.693  0.00  0.00    +0.000 A 
ATOM      5  C   UNL     1       6.156   4.028  13.866  0.00  0.00    +0.000 A 
ATOM      6 CL   UNL     1       6.213   3.362  12.281  0.00  0.00    +0.000 Cl
ATOM      7  C   UNL     1       7.196   4.839  14.317  0.00  0.00    +0.000 A 
ATOM      8  C   UNL     1       7.156   5.373  15.609  0.00  0.00    +0.000 A 
ENDBRANCH   1   2
BRANCH   1  11
ATOM      9  C   UNL     1       3.883   5.434  19.072  0.00  0.00    +0.000 C 
ATOM     10  O   UNL     1       3.566   6.569  18.730  0.00  0.00    +0.000 OA
ATOM     11  N   UNL     1       5.071   4.891  18.698  0.00  0.00    +0.000 N 
ATOM     12  H   UNL     1       5.361   4.041  19.161  0.00  0.00    +0.000 HD
BRANCH   9  13
ATOM     13  O   UNL     1       3.192   4.612  19.888  0.00  0.00    +0.000 OA
BRANCH  13  15
ATOM     14  C   UNL     1       2.788   2.271  19.273  0.00  0.00    +0.000 C 
ATOM     15  C   UNL     1       2.217   3.696  19.313  0.00  0.00    +0.000 C 
ATOM     16  C   UNL     1       1.726   4.158  17.933  0.00  0.00    +0.000 C 
ATOM     17  C   UNL     1       1.011   3.704  20.268  0.00  0.00    +0.000 C 
ENDBRANCH  13  15
ENDBRANCH   9  13
ENDBRANCH   1  11
BRANCH   1  18
ATOM     18  C   UNL     1       7.375   5.785  18.579  0.00  0.00    +0.000 C 
ATOM     19  O   UNL     1       7.980   4.881  19.141  0.00  0.00    +0.000 OA
BRANCH  18  20
ATOM     20  OXT UNL     1       7.911   7.033  18.485  0.00  0.00    +0.000 OA
ATOM     21  HXT UNL     1       8.023   7.345  17.556  0.00  0.00    +0.000 HD
ENDBRANCH  18  20
ENDBRANCH   1  18
TORSDOF 6
ENDMDL
MODEL 2
REMARK VINA RESULT:      -6.6      0.206      1.128
REMARK  Name = 
REMARK  9 active torsions:
REMARK  status: ('A' for Active; 'I' for Inactive)
REMARK    1  A    between atoms: C_1  and  C_2
REMARK    2  A    between atoms: C_2  and  C_3
REMARK    3  A    between atoms: C_2  and  C_4
REMARK    4  A    between atoms: C_2  and  O_5
REMARK    5  A    between atoms: O_5  and  C_6
REMARK    6  A    between atoms: N_8  and  CA_9
REMARK    7  A    between atoms: CA_9  and  C_10
REMARK    8  A    between atoms: CA_9  and  C_13
REMARK    9  A    between atoms: C_10  and  OXT_12
REMARK                            x       y       z     vdW  Elec       q    Type
REMARK                         _______ _______ _______ _____ _____    ______ ____
ROOT
ATOM      1  CA  UNL     1       6.048   5.745  18.011  0.00  0.00    +0.000 C 
ENDROOT
BRANCH   1   2
ATOM      2  C   UNL     1       6.065   5.144  16.618  0.00  0.00    +0.000 A 
ATOM      3  C   UNL     1       7.159   5.396  15.768  0.00  0.00    +0.000 A 
ATOM      4  C   UNL     1       7.200   4.864  14.477  0.00  0.00    +0.000 A 
ATOM      5  C   UNL     1       6.147   4.077  14.022  0.00  0.00    +0.000 A 
ATOM      6 CL   UNL     1       6.190   3.433  12.427  0.00  0.00    +0.000 Cl
ATOM      7  C   UNL     1       5.059   3.808  14.851  0.00  0.00    +0.000 A 
ATOM      8  C   UNL     1       5.018   4.339  16.144  0.00  0.00    +0.000 A 
ENDBRANCH   1   2
BRANCH   1  11
ATOM      9  C   UNL     1       3.890   5.598  19.157  0.00  0.00    +0.000 C 
ATOM     10  O   UNL     1       3.559   6.682  18.689  0.00  0.00    +0.000 OA
ATOM     11  N   UNL     1       5.102   5.050  18.881  0.00  0.00    +0.000 N 
ATOM     12  H   UNL     1       5.395   4.260  19.438  0.00  0.00    +0.000 HD
BRANCH   9  13
ATOM     13  O   UNL     1       3.189   4.846  20.031  0.00  0.00    +0.000 OA
BRANCH  13  15
ATOM     14  C   UNL     1       2.853   2.447  19.641  0.00  0.00    +0.000 C 
ATOM     15  C   UNL     1       2.251   3.855  19.523  0.00  0.00    +0.000 C 
ATOM     16  C   UNL     1       1.793   4.165  18.090  0.00  0.00    +0.000 C 
ATOM     17  C   UNL     1       1.017   3.929  20.438  0.00  0.00    +0.000 C 
ENDBRANCH  13  15
ENDBRANCH   9  13
ENDBRANCH   1  11
BRANCH   1  18
ATOM     18  C   UNL     1       7.437   5.846  18.685  0.00  0.00    +0.000 C 
ATOM     19  O   UNL     1       8.019   4.935  19.258  0.00  0.00    +0.000 OA
BRANCH  18  20
ATOM     20  OXT UNL     1       8.017   7.069  18.543  0.00  0.00    +0.000 OA
ATOM     21  HXT UNL     1       8.345   7.450  19.391  0.00  0.00    +0.000 HD
ENDBRANCH  18  20
ENDBRANCH   1  18
TORSDOF 6
ENDMDL
MODEL 3
REMARK VINA RESULT:      -6.6      0.940      1.047
REMARK  Name = 
REMARK  9 active torsions:
REMARK  status: ('A' for Active; 'I' for Inactive)
REMARK    1  A    between atoms: C_1  and  C_2
REMARK    2  A    between atoms: C_2  and  C_3
REMARK    3  A    between atoms: C_2  and  C_4
REMARK    4  A    between atoms: C_2  and  O_5
REMARK    5  A    between atoms: O_5  and  C_6
REMARK    6  A    between atoms: N_8  and  CA_9
REMARK    7  A    between atoms: CA_9  and  C_10
REMARK    8  A    between atoms: CA_9  and  C_13
REMARK    9  A    between atoms: C_10  and  OXT_12
REMARK                            x       y       z     vdW  Elec       q    Type
REMARK                         _______ _______ _______ _____ _____    ______ ____
ROOT
ATOM      1  CA  UNL     1       5.902   4.964  17.856  0.00  0.00    +0.000 C 
ENDROOT
BRANCH   1   2
ATOM      2  C   UNL     1       6.142   4.728  16.376  0.00  0.00    +0.000 A 
ATOM      3  C   UNL     1       5.383   3.755  15.698  0.00  0.00    +0.000 A 
ATOM      4  C   UNL     1       5.586   3.510  14.338  0.00  0.00    +0.000 A 
ATOM      5  C   UNL     1       6.551   4.232  13.643  0.00  0.00    +0.000 A 
ATOM      6 CL   UNL     1       6.812   3.920  11.971  0.00  0.00    +0.000 Cl
ATOM      7  C   UNL     1       7.307   5.205  14.294  0.00  0.00    +0.000 A 
ATOM      8  C   UNL     1       7.103   5.453  15.655  0.00  0.00    +0.000 A 
ENDBRANCH   1   2
BRANCH   1  11
ATOM      9  C   UNL     1       3.938   4.528  19.251  0.00  0.00    +0.000 C 
ATOM     10  O   UNL     1       3.931   5.697  19.621  0.00  0.00    +0.000 OA
ATOM     11  N   UNL     1       4.873   4.068  18.379  0.00  0.00    +0.000 N 
ATOM     12  H   UNL     1       4.949   3.068  18.260  0.00  0.00    +0.000 HD
BRANCH   9  13
ATOM     13  O   UNL     1       3.123   3.539  19.675  0.00  0.00    +0.000 OA
BRANCH  13  15
ATOM     14  C   UNL     1       1.308   2.025  19.017  0.00  0.00    +0.000 C 
ATOM     15  C   UNL     1       1.755   3.485  19.181  0.00  0.00    +0.000 C 
ATOM     16  C   UNL     1       1.570   4.291  17.887  0.00  0.00    +0.000 C 
ATOM     17  C   UNL     1       0.883   4.136  20.269  0.00  0.00    +0.000 C 
ENDBRANCH  13  15
ENDBRANCH   9  13
ENDBRANCH   1  11
BRANCH   1  18
ATOM     18  C   UNL     1       7.175   4.907  18.731  0.00  0.00    +0.000 C 
ATOM     19  O   UNL     1       7.321   5.457  19.815  0.00  0.00    +0.000 OA
BRANCH  18  20
ATOM     20  OXT UNL     1       8.154   4.119  18.208  0.00  0.00    +0.000 OA
ATOM     21  HXT UNL     1       9.065   4.444  18.397  0.00  0.00    +0.000 HD
ENDBRANCH  18  20
ENDBRANCH   1  18
TORSDOF 6
ENDMDL
MODEL 4
REMARK VINA RESULT:      -6.5      3.721      6.451
REMARK  Name = 
REMARK  9 active torsions:
REMARK  status: ('A' for Active; 'I' for Inactive)
REMARK    1  A    between atoms: C_1  and  C_2
REMARK    2  A    between atoms: C_2  and  C_3
REMARK    3  A    between atoms: C_2  and  C_4
REMARK    4  A    between atoms: C_2  and  O_5
REMARK    5  A    between atoms: O_5  and  C_6
REMARK    6  A    between atoms: N_8  and  CA_9
REMARK    7  A    between atoms: CA_9  and  C_10
REMARK    8  A    between atoms: CA_9  and  C_13
REMARK    9  A    between atoms: C_10  and  OXT_12
REMARK                            x       y       z     vdW  Elec       q    Type
REMARK                         _______ _______ _______ _____ _____    ______ ____
ROOT
ATOM      1  CA  UNL     1       2.595   5.649  19.477  0.00  0.00    +0.000 C 
ENDROOT
BRANCH   1   2
ATOM      2  C   UNL     1       2.123   7.085  19.348  0.00  0.00    +0.000 A 
ATOM      3  C   UNL     1       2.263   7.752  18.116  0.00  0.00    +0.000 A 
ATOM      4  C   UNL     1       1.845   9.076  17.967  0.00  0.00    +0.000 A 
ATOM      5  C   UNL     1       1.286   9.748  19.050  0.00  0.00    +0.000 A 
ATOM      6 CL   UNL     1       0.785  11.385  18.872  0.00  0.00    +0.000 Cl
ATOM      7  C   UNL     1       1.131   9.103  20.275  0.00  0.00    +0.000 A 
ATOM      8  C   UNL     1       1.547   7.777  20.424  0.00  0.00    +0.000 A 
ENDBRANCH   1   2
BRANCH   1  11
ATOM      9  C   UNL     1       4.781   4.719  18.886  0.00  0.00    +0.000 C 
ATOM     10  O   UNL     1       4.254   3.990  18.053  0.00  0.00    +0.000 OA
ATOM     11  N   UNL     1       4.044   5.575  19.641  0.00  0.00    +0.000 N 
ATOM     12  H   UNL     1       4.498   6.006  20.434  0.00  0.00    +0.000 HD
BRANCH   9  13
ATOM     13  O   UNL     1       6.085   4.744  19.232  0.00  0.00    +0.000 OA
BRANCH  13  15
ATOM     14  C   UNL     1       8.138   6.085  19.286  0.00  0.00    +0.000 C 
ATOM     15  C   UNL     1       7.024   5.494  18.410  0.00  0.00    +0.000 C 
ATOM     16  C   UNL     1       6.328   6.570  17.564  0.00  0.00    +0.000 C 
ATOM     17  C   UNL     1       7.657   4.475  17.448  0.00  0.00    +0.000 C 
ENDBRANCH  13  15
ENDBRANCH   9  13
ENDBRANCH   1  11
BRANCH   1  18
ATOM     18  C   UNL     1       1.878   4.833  20.578  0.00  0.00    +0.000 C 
ATOM     19  O   UNL     1       0.781   4.300  20.471  0.00  0.00    +0.000 OA
BRANCH  18  20
ATOM     20  OXT UNL     1       2.613   4.701  21.716  0.00  0.00    +0.000 OA
ATOM     21  HXT UNL     1       3.412   4.134  21.606  0.00  0.00    +0.000 HD
ENDBRANCH  18  20
ENDBRANCH   1  18
TORSDOF 6
ENDMDL
MODEL 5
REMARK VINA RESULT:      -6.5      0.959      1.366
REMARK  Name = 
REMARK  9 active torsions:
REMARK  status: ('A' for Active; 'I' for Inactive)
REMARK    1  A    between atoms: C_1  and  C_2
REMARK    2  A    between atoms: C_2  and  C_3
REMARK    3  A    between atoms: C_2  and  C_4
REMARK    4  A    between atoms: C_2  and  O_5
REMARK    5  A    between atoms: O_5  and  C_6
REMARK    6  A    between atoms: N_8  and  CA_9
REMARK    7  A    between atoms: CA_9  and  C_10
REMARK    8  A    between atoms: CA_9  and  C_13
REMARK    9  A    between atoms: C_10  and  OXT_12
REMARK                            x       y       z     vdW  Elec       q    Type
REMARK                         _______ _______ _______ _____ _____    ______ ____
ROOT
ATOM      1  CA  UNL     1       5.787   5.862  18.537  0.00  0.00    +0.000 C 
ENDROOT
BRANCH   1   2
ATOM      2  C   UNL     1       5.773   5.353  17.107  0.00  0.00    +0.000 A 
ATOM      3  C   UNL     1       6.212   4.043  16.834  0.00  0.00    +0.000 A 
ATOM      4  C   UNL     1       6.217   3.548  15.528  0.00  0.00    +0.000 A 
ATOM      5  C   UNL     1       5.787   4.358  14.482  0.00  0.00    +0.000 A 
ATOM      6 CL   UNL     1       5.807   3.755  12.871  0.00  0.00    +0.000 Cl
ATOM      7  C   UNL     1       5.340   5.654  14.733  0.00  0.00    +0.000 A 
ATOM      8  C   UNL     1       5.332   6.150  16.040  0.00  0.00    +0.000 A 
ENDBRANCH   1   2
BRANCH   1  11
ATOM      9  C   UNL     1       3.585   5.514  19.547  0.00  0.00    +0.000 C 
ATOM     10  O   UNL     1       3.164   6.525  18.995  0.00  0.00    +0.000 OA
ATOM     11  N   UNL     1       4.870   5.104  19.383  0.00  0.00    +0.000 N 
ATOM     12  H   UNL     1       5.212   4.385  20.005  0.00  0.00    +0.000 HD
BRANCH   9  13
ATOM     13  O   UNL     1       2.917   4.729  20.418  0.00  0.00    +0.000 OA
BRANCH  13  15
ATOM     14  C   UNL     1       1.229   3.031  20.955  0.00  0.00    +0.000 C 
ATOM     15  C   UNL     1       2.259   3.526  19.928  0.00  0.00    +0.000 C 
ATOM     16  C   UNL     1       3.261   2.427  19.545  0.00  0.00    +0.000 C 
ATOM     17  C   UNL     1       1.505   3.942  18.654  0.00  0.00    +0.000 C 
ENDBRANCH  13  15
ENDBRANCH   9  13
ENDBRANCH   1  11
BRANCH   1  18
ATOM     18  C   UNL     1       7.192   5.933  19.180  0.00  0.00    +0.000 C 
ATOM     19  O   UNL     1       7.567   5.284  20.147  0.00  0.00    +0.000 OA
BRANCH  18  20
ATOM     20  OXT UNL     1       8.041   6.776  18.530  0.00  0.00    +0.000 OA
ATOM     21  HXT UNL     1       7.613   7.280  17.798  0.00  0.00    +0.000 HD
ENDBRANCH  18  20
ENDBRANCH   1  18
TORSDOF 6
ENDMDL
MODEL 6
REMARK VINA RESULT:      -6.5      0.892      1.564
REMARK  Name = 
REMARK  9 active torsions:
REMARK  status: ('A' for Active; 'I' for Inactive)
REMARK    1  A    between atoms: C_1  and  C_2
REMARK    2  A    between atoms: C_2  and  C_3
REMARK    3  A    between atoms: C_2  and  C_4
REMARK    4  A    between atoms: C_2  and  O_5
REMARK    5  A    between atoms: O_5  and  C_6
REMARK    6  A    between atoms: N_8  and  CA_9
REMARK    7  A    between atoms: CA_9  and  C_10
REMARK    8  A    between atoms: CA_9  and  C_13
REMARK    9  A    between atoms: C_10  and  OXT_12
REMARK                            x       y       z     vdW  Elec       q    Type
REMARK                         _______ _______ _______ _____ _____    ______ ____
ROOT
ATOM      1  CA  UNL     1       5.830   5.922  18.370  0.00  0.00    +0.000 C 
ENDROOT
BRANCH   1   2
ATOM      2  C   UNL     1       5.808   5.374  16.955  0.00  0.00    +0.000 A 
ATOM      3  C   UNL     1       6.278   4.069  16.709  0.00  0.00    +0.000 A 
ATOM      4  C   UNL     1       6.277   3.540  15.417  0.00  0.00    +0.000 A 
ATOM      5  C   UNL     1       5.809   4.310  14.356  0.00  0.00    +0.000 A 
ATOM      6 CL   UNL     1       5.822   3.663  12.762  0.00  0.00    +0.000 Cl
ATOM      7  C   UNL     1       5.332   5.600  14.580  0.00  0.00    +0.000 A 
ATOM      8  C   UNL     1       5.331   6.130  15.873  0.00  0.00    +0.000 A 
ENDBRANCH   1   2
BRANCH   1  11
ATOM      9  C   UNL     1       3.662   5.560  19.449  0.00  0.00    +0.000 C 
ATOM     10  O   UNL     1       3.214   6.561  18.900  0.00  0.00    +0.000 OA
ATOM     11  N   UNL     1       4.946   5.162  19.250  0.00  0.00    +0.000 N 
ATOM     12  H   UNL     1       5.315   4.453  19.868  0.00  0.00    +0.000 HD
BRANCH   9  13
ATOM     13  O   UNL     1       3.030   4.776  20.346  0.00  0.00    +0.000 OA
BRANCH  13  15
ATOM     14  C   UNL     1       1.686   3.930  18.476  0.00  0.00    +0.000 C 
ATOM     15  C   UNL     1       2.252   3.639  19.873  0.00  0.00    +0.000 C 
ATOM     16  C   UNL     1       1.153   3.232  20.865  0.00  0.00    +0.000 C 
ATOM     17  C   UNL     1       3.240   2.466  19.757  0.00  0.00    +0.000 C 
ENDBRANCH  13  15
ENDBRANCH   9  13
ENDBRANCH   1  11
BRANCH   1  18
ATOM     18  C   UNL     1       7.241   6.048  18.988  0.00  0.00    +0.000 C 
ATOM     19  O   UNL     1       8.134   6.780  18.584  0.00  0.00    +0.000 OA
BRANCH  18  20
ATOM     20  OXT UNL     1       7.412   5.284  20.102  0.00  0.00    +0.000 OA
ATOM     21  HXT UNL     1       8.351   5.035  20.270  0.00  0.00    +0.000 HD
ENDBRANCH  18  20
ENDBRANCH   1  18
TORSDOF 6
ENDMDL
MODEL 7
REMARK VINA RESULT:      -6.5      3.708      6.380
REMARK  Name = 
REMARK  9 active torsions:
REMARK  status: ('A' for Active; 'I' for Inactive)
REMARK    1  A    between atoms: C_1  and  C_2
REMARK    2  A    between atoms: C_2  and  C_3
REMARK    3  A    between atoms: C_2  and  C_4
REMARK    4  A    between atoms: C_2  and  O_5
REMARK    5  A    between atoms: O_5  and  C_6
REMARK    6  A    between atoms: N_8  and  CA_9
REMARK    7  A    between atoms: CA_9  and  C_10
REMARK    8  A    between atoms: CA_9  and  C_13
REMARK    9  A    between atoms: C_10  and  OXT_12
REMARK                            x       y       z     vdW  Elec       q    Type
REMARK                         _______ _______ _______ _____ _____    ______ ____
ROOT
ATOM      1  CA  UNL     1       2.597   5.610  19.397  0.00  0.00    +0.000 C 
ENDROOT
BRANCH   1   2
ATOM      2  C   UNL     1       2.162   7.057  19.251  0.00  0.00    +0.000 A 
ATOM      3  C   UNL     1       1.587   7.721  20.351  0.00  0.00    +0.000 A 
ATOM      4  C   UNL     1       1.170   9.050  20.247  0.00  0.00    +0.000 A 
ATOM      5  C   UNL     1       1.322   9.727  19.041  0.00  0.00    +0.000 A 
ATOM      6 CL   UNL     1       0.795  11.359  18.906  0.00  0.00    +0.000 Cl
ATOM      7  C   UNL     1       1.897   9.090  17.943  0.00  0.00    +0.000 A 
ATOM      8  C   UNL     1       2.316   7.760  18.047  0.00  0.00    +0.000 A 
ENDBRANCH   1   2
BRANCH   1  11
ATOM      9  C   UNL     1       4.751   4.631  18.768  0.00  0.00    +0.000 C 
ATOM     10  O   UNL     1       4.194   3.920  17.938  0.00  0.00    +0.000 OA
ATOM     11  N   UNL     1       4.047   5.500  19.539  0.00  0.00    +0.000 N 
ATOM     12  H   UNL     1       4.523   5.914  20.328  0.00  0.00    +0.000 HD
BRANCH   9  13
ATOM     13  O   UNL     1       6.060   4.621  19.095  0.00  0.00    +0.000 OA
BRANCH  13  15
ATOM     14  C   UNL     1       8.119   5.950  19.220  0.00  0.00    +0.000 C 
ATOM     15  C   UNL     1       6.993   5.425  18.317  0.00  0.00    +0.000 C 
ATOM     16  C   UNL     1       6.291   6.559  17.556  0.00  0.00    +0.000 C 
ATOM     17  C   UNL     1       7.612   4.474  17.280  0.00  0.00    +0.000 C 
ENDBRANCH  13  15
ENDBRANCH   9  13
ENDBRANCH   1  11
BRANCH   1  18
ATOM     18  C   UNL     1       1.877   4.832  20.522  0.00  0.00    +0.000 C 
ATOM     19  O   UNL     1       0.777   4.303  20.432  0.00  0.00    +0.000 OA
BRANCH  18  20
ATOM     20  OXT UNL     1       2.612   4.730  21.664  0.00  0.00    +0.000 OA
ATOM     21  HXT UNL     1       2.380   3.945  22.213  0.00  0.00    +0.000 HD
ENDBRANCH  18  20
ENDBRANCH   1  18
TORSDOF 6
ENDMDL
MODEL 8
REMARK VINA RESULT:      -6.5      0.914      1.619
REMARK  Name = 
REMARK  9 active torsions:
REMARK  status: ('A' for Active; 'I' for Inactive)
REMARK    1  A    between atoms: C_1  and  C_2
REMARK    2  A    between atoms: C_2  and  C_3
REMARK    3  A    between atoms: C_2  and  C_4
REMARK    4  A    between atoms: C_2  and  O_5
REMARK    5  A    between atoms: O_5  and  C_6
REMARK    6  A    between atoms: N_8  and  CA_9
REMARK    7  A    between atoms: CA_9  and  C_10
REMARK    8  A    between atoms: CA_9  and  C_13
REMARK    9  A    between atoms: C_10  and  OXT_12
REMARK                            x       y       z     vdW  Elec       q    Type
REMARK                         _______ _______ _______ _____ _____    ______ ____
ROOT
ATOM      1  CA  UNL     1       5.857   5.901  18.395  0.00  0.00    +0.000 C 
ENDROOT
BRANCH   1   2
ATOM      2  C   UNL     1       5.849   5.330  16.988  0.00  0.00    +0.000 A 
ATOM      3  C   UNL     1       5.342   6.107  15.929  0.00  0.00    +0.000 A 
ATOM      4  C   UNL     1       5.315   5.608  14.625  0.00  0.00    +0.000 A 
ATOM      5  C   UNL     1       5.790   4.326  14.367  0.00  0.00    +0.000 A 
ATOM      6 CL   UNL     1       5.743   3.704  12.764  0.00  0.00    +0.000 Cl
ATOM      7  C   UNL     1       6.303   3.544  15.401  0.00  0.00    +0.000 A 
ATOM      8  C   UNL     1       6.333   4.044  16.706  0.00  0.00    +0.000 A 
ENDBRANCH   1   2
BRANCH   1  11
ATOM      9  C   UNL     1       3.685   5.535  19.463  0.00  0.00    +0.000 C 
ATOM     10  O   UNL     1       3.230   6.521  18.893  0.00  0.00    +0.000 OA
ATOM     11  N   UNL     1       4.974   5.147  19.282  0.00  0.00    +0.000 N 
ATOM     12  H   UNL     1       5.346   4.453  19.915  0.00  0.00    +0.000 HD
BRANCH   9  13
ATOM     13  O   UNL     1       3.053   4.760  20.369  0.00  0.00    +0.000 OA
BRANCH  13  15
ATOM     14  C   UNL     1       1.591   3.957  18.570  0.00  0.00    +0.000 C 
ATOM     15  C   UNL     1       2.267   3.625  19.909  0.00  0.00    +0.000 C 
ATOM     16  C   UNL     1       1.254   3.151  20.962  0.00  0.00    +0.000 C 
ATOM     17  C   UNL     1       3.268   2.481  19.671  0.00  0.00    +0.000 C 
ENDBRANCH  13  15
ENDBRANCH   9  13
ENDBRANCH   1  11
BRANCH   1  18
ATOM     18  C   UNL     1       7.263   6.050  19.020  0.00  0.00    +0.000 C 
ATOM     19  O   UNL     1       8.146   6.796  18.619  0.00  0.00    +0.000 OA
BRANCH  18  20
ATOM     20  OXT UNL     1       7.441   5.289  20.135  0.00  0.00    +0.000 OA
ATOM     21  HXT UNL     1       6.951   4.433  20.111  0.00  0.00    +0.000 HD
ENDBRANCH  18  20
ENDBRANCH   1  18
TORSDOF 6
ENDMDL
MODEL 9
REMARK VINA RESULT:      -6.4      0.953      1.485
REMARK  Name = 
REMARK  9 active torsions:
REMARK  status: ('A' for Active; 'I' for Inactive)
REMARK    1  A    between atoms: C_1  and  C_2
REMARK    2  A    between atoms: C_2  and  C_3
REMARK    3  A    between atoms: C_2  and  C_4
REMARK    4  A    between atoms: C_2  and  O_5
REMARK    5  A    between atoms: O_5  and  C_6
REMARK    6  A    between atoms: N_8  and  CA_9
REMARK    7  A    between atoms: CA_9  and  C_10
REMARK    8  A    between atoms: CA_9  and  C_13
REMARK    9  A    between atoms: C_10  and  OXT_12
REMARK                            x       y       z     vdW  Elec       q    Type
REMARK                         _______ _______ _______ _____ _____    ______ ____
ROOT
ATOM      1  CA  UNL     1       6.183   4.884  17.441  0.00  0.00    +0.000 C 
ENDROOT
BRANCH   1   2
ATOM      2  C   UNL     1       6.316   4.614  15.953  0.00  0.00    +0.000 A 
ATOM      3  C   UNL     1       7.356   5.227  15.228  0.00  0.00    +0.000 A 
ATOM      4  C   UNL     1       7.501   5.004  13.857  0.00  0.00    +0.000 A 
ATOM      5  C   UNL     1       6.605   4.168  13.196  0.00  0.00    +0.000 A 
ATOM      6 CL   UNL     1       6.774   3.905  11.504  0.00  0.00    +0.000 Cl
ATOM      7  C   UNL     1       5.575   3.546  13.897  0.00  0.00    +0.000 A 
ATOM      8  C   UNL     1       5.430   3.767  15.270  0.00  0.00    +0.000 A 
ENDBRANCH   1   2
BRANCH   1  11
ATOM      9  C   UNL     1       4.362   4.479  19.026  0.00  0.00    +0.000 C 
ATOM     10  O   UNL     1       4.429   5.641  19.412  0.00  0.00    +0.000 OA
ATOM     11  N   UNL     1       5.188   4.009  18.055  0.00  0.00    +0.000 N 
ATOM     12  H   UNL     1       5.220   3.009  17.914  0.00  0.00    +0.000 HD
BRANCH   9  13
ATOM     13  O   UNL     1       3.566   3.507  19.519  0.00  0.00    +0.000 OA
BRANCH  13  15
ATOM     14  C   UNL     1       1.630   2.075  19.053  0.00  0.00    +0.000 C 
ATOM     15  C   UNL     1       2.149   3.514  19.187  0.00  0.00    +0.000 C 
ATOM     16  C   UNL     1       1.847   4.352  17.935  0.00  0.00    +0.000 C 
ATOM     17  C   UNL     1       1.435   4.174  20.379  0.00  0.00    +0.000 C 
ENDBRANCH  13  15
ENDBRANCH   9  13
ENDBRANCH   1  11
BRANCH   1  18
ATOM     18  C   UNL     1       7.514   4.834  18.225  0.00  0.00    +0.000 C 
ATOM     19  O   UNL     1       8.463   4.104  17.973  0.00  0.00    +0.000 OA
BRANCH  18  20
ATOM     20  OXT UNL     1       7.578   5.741  19.238  0.00  0.00    +0.000 OA
ATOM     21  HXT UNL     1       8.484   5.852  19.612  0.00  0.00    +0.000 HD
ENDBRANCH  18  20
ENDBRANCH   1  18
TORSDOF 6
ENDMDL
