MODEL 1
REMARK VINA RESULT:      -8.2      0.000      0.000
REMARK  Name = 
REMARK  5 active torsions:
REMARK  status: ('A' for Active; 'I' for Inactive)
REMARK    1  A    between atoms: C_2  and  C_3
REMARK    2  A    between atoms: C_8  and  C_9
REMARK    3  A    between atoms: C_9  and  N_10
REMARK    4  A    between atoms: N_17  and  C_18
REMARK    5  A    between atoms: C_18  and  C_19
REMARK                            x       y       z     vdW  Elec       q    Type
REMARK                         _______ _______ _______ _____ _____    ______ ____
ROOT
ATOM      1  N   UNL     1       5.272   5.437  19.018  0.00  0.00    +0.000 NA
ATOM      2  C   UNL     1       6.642   5.508  19.544  0.00  0.00    +0.000 C 
ATOM      3  C   UNL     1       7.804   5.814  18.582  0.00  0.00    +0.000 C 
ATOM      4  C   UNL     1       8.025   7.314  18.427  0.00  0.00    +0.000 C 
ATOM      5  C   UNL     1       7.012   7.938  17.489  0.00  0.00    +0.000 C 
ATOM      6  C   UNL     1       6.001   6.916  16.954  0.00  0.00    +0.000 C 
ATOM      7  C   UNL     1       4.946   6.482  18.025  0.00  0.00    +0.000 C 
ATOM      8  N   UNL     1       6.698   5.763  16.363  0.00  0.00    +0.000 N 
ATOM      9  C   UNL     1       7.594   5.123  17.231  0.00  0.00    +0.000 C 
ATOM     10  O   UNL     1       8.102   4.024  17.036  0.00  0.00    +0.000 OA
ENDROOT
BRANCH   1  11
ATOM     11  C   UNL     1       4.901   4.074  18.579  0.00  0.00    +0.000 C 
BRANCH  11  17
ATOM     12  C   UNL     1       3.245   2.653  19.926  0.00  0.00    +0.000 A 
ATOM     13  C   UNL     1       1.932   2.234  20.193  0.00  0.00    +0.000 A 
ATOM     14  C   UNL     1       0.859   2.769  19.482  0.00  0.00    +0.000 A 
ATOM     15  C   UNL     1       1.090   3.726  18.498  0.00  0.00    +0.000 A 
ATOM     16  C   UNL     1       2.391   4.151  18.224  0.00  0.00    +0.000 A 
ATOM     17  C   UNL     1       3.486   3.632  18.939  0.00  0.00    +0.000 A 
BRANCH  12  19
ATOM     18  N   UNL     1       5.167   1.559  21.288  0.00  0.00    +0.000 NA
ATOM     19  C   UNL     1       4.308   2.031  20.668  0.00  0.00    +0.000 C 
ENDBRANCH  12  19
ENDBRANCH  11  17
ENDBRANCH   1  11
BRANCH   8  20
ATOM     20  C   UNL     1       5.905   5.024  15.357  0.00  0.00    +0.000 C 
BRANCH  20  21
ATOM     21  C   UNL     1       6.476   4.559  14.050  0.00  0.00    +0.000 A 
ATOM     22  C   UNL     1       6.039   3.597  13.158  0.00  0.00    +0.000 A 
ATOM     23  S   UNL     1       6.918   3.668  11.685  0.00  0.00    +0.000 S 
ATOM     24  C   UNL     1       7.796   4.997  12.299  0.00  0.00    +0.000 A 
ATOM     25  N   UNL     1       7.508   5.358  13.529  0.00  0.00    +0.000 NA
ENDBRANCH  20  21
ENDBRANCH   8  20
TORSDOF 5
ENDMDL
MODEL 2
REMARK VINA RESULT:      -7.6      1.075      1.125
REMARK  Name = 
REMARK  5 active torsions:
REMARK  status: ('A' for Active; 'I' for Inactive)
REMARK    1  A    between atoms: C_2  and  C_3
REMARK    2  A    between atoms: C_8  and  C_9
REMARK    3  A    between atoms: C_9  and  N_10
REMARK    4  A    between atoms: N_17  and  C_18
REMARK    5  A    between atoms: C_18  and  C_19
REMARK                            x       y       z     vdW  Elec       q    Type
REMARK                         _______ _______ _______ _____ _____    ______ ____
ROOT
ATOM      1  N   UNL     1       5.287   5.735  19.157  0.00  0.00    +0.000 NA
ATOM      2  C   UNL     1       6.669   5.654  19.649  0.00  0.00    +0.000 C 
ATOM      3  C   UNL     1       7.834   5.814  18.655  0.00  0.00    +0.000 C 
ATOM      4  C   UNL     1       8.221   7.277  18.475  0.00  0.00    +0.000 C 
ATOM      5  C   UNL     1       7.263   8.004  17.553  0.00  0.00    +0.000 C 
ATOM      6  C   UNL     1       6.128   7.099  17.057  0.00  0.00    +0.000 C 
ATOM      7  C   UNL     1       5.058   6.800  18.158  0.00  0.00    +0.000 C 
ATOM      8  N   UNL     1       6.674   5.867  16.464  0.00  0.00    +0.000 N 
ATOM      9  C   UNL     1       7.512   5.137  17.319  0.00  0.00    +0.000 C 
ATOM     10  O   UNL     1       7.885   3.986  17.127  0.00  0.00    +0.000 OA
ENDROOT
BRANCH   1  11
ATOM     11  C   UNL     1       4.751   4.419  18.745  0.00  0.00    +0.000 C 
BRANCH  11  17
ATOM     12  C   UNL     1       2.887   2.727  19.236  0.00  0.00    +0.000 A 
ATOM     13  C   UNL     1       1.633   2.420  19.785  0.00  0.00    +0.000 A 
ATOM     14  C   UNL     1       0.895   3.393  20.457  0.00  0.00    +0.000 A 
ATOM     15  C   UNL     1       1.406   4.681  20.587  0.00  0.00    +0.000 A 
ATOM     16  C   UNL     1       2.653   4.999  20.046  0.00  0.00    +0.000 A 
ATOM     17  C   UNL     1       3.418   4.028  19.373  0.00  0.00    +0.000 A 
BRANCH  12  19
ATOM     18  N   UNL     1       4.099   0.834  17.935  0.00  0.00    +0.000 NA
ATOM     19  C   UNL     1       3.576   1.688  18.520  0.00  0.00    +0.000 C 
ENDBRANCH  12  19
ENDBRANCH  11  17
ENDBRANCH   1  11
BRANCH   8  20
ATOM     20  C   UNL     1       5.777   5.214  15.488  0.00  0.00    +0.000 C 
BRANCH  20  21
ATOM     21  C   UNL     1       6.272   4.585  14.218  0.00  0.00    +0.000 A 
ATOM     22  C   UNL     1       5.724   3.600  13.417  0.00  0.00    +0.000 A 
ATOM     23  S   UNL     1       6.575   3.459  11.933  0.00  0.00    +0.000 S 
ATOM     24  C   UNL     1       7.592   4.741  12.420  0.00  0.00    +0.000 A 
ATOM     25  N   UNL     1       7.366   5.231  13.618  0.00  0.00    +0.000 NA
ENDBRANCH  20  21
ENDBRANCH   8  20
TORSDOF 5
ENDMDL
MODEL 3
REMARK VINA RESULT:      -7.4      1.091      1.787
REMARK  Name = 
REMARK  5 active torsions:
REMARK  status: ('A' for Active; 'I' for Inactive)
REMARK    1  A    between atoms: C_2  and  C_3
REMARK    2  A    between atoms: C_8  and  C_9
REMARK    3  A    between atoms: C_9  and  N_10
REMARK    4  A    between atoms: N_17  and  C_18
REMARK    5  A    between atoms: C_18  and  C_19
REMARK                            x       y       z     vdW  Elec       q    Type
REMARK                         _______ _______ _______ _____ _____    ______ ____
ROOT
ATOM      1  N   UNL     1       5.276   5.439  19.179  0.00  0.00    +0.000 NA
ATOM      2  C   UNL     1       6.658   5.547  19.666  0.00  0.00    +0.000 C 
ATOM      3  C   UNL     1       7.794   5.812  18.659  0.00  0.00    +0.000 C 
ATOM      4  C   UNL     1       7.997   7.304  18.423  0.00  0.00    +0.000 C 
ATOM      5  C   UNL     1       6.955   7.872  17.480  0.00  0.00    +0.000 C 
ATOM      6  C   UNL     1       5.940   6.817  17.025  0.00  0.00    +0.000 C 
ATOM      7  C   UNL     1       4.916   6.430  18.143  0.00  0.00    +0.000 C 
ATOM      8  N   UNL     1       6.632   5.640  16.475  0.00  0.00    +0.000 N 
ATOM      9  C   UNL     1       7.555   5.051  17.351  0.00  0.00    +0.000 C 
ATOM     10  O   UNL     1       8.067   3.948  17.200  0.00  0.00    +0.000 OA
ENDROOT
BRANCH   1  11
ATOM     11  C   UNL     1       4.906   4.053  18.820  0.00  0.00    +0.000 C 
BRANCH  11  17
ATOM     12  C   UNL     1       2.502   3.164  18.717  0.00  0.00    +0.000 A 
ATOM     13  C   UNL     1       1.334   2.729  19.361  0.00  0.00    +0.000 A 
ATOM     14  C   UNL     1       1.276   2.658  20.752  0.00  0.00    +0.000 A 
ATOM     15  C   UNL     1       2.386   3.020  21.510  0.00  0.00    +0.000 A 
ATOM     16  C   UNL     1       3.554   3.453  20.881  0.00  0.00    +0.000 A 
ATOM     17  C   UNL     1       3.636   3.522  19.477  0.00  0.00    +0.000 A 
BRANCH  12  19
ATOM     18  N   UNL     1       2.490   3.351  16.126  0.00  0.00    +0.000 NA
ATOM     19  C   UNL     1       2.480   3.254  17.282  0.00  0.00    +0.000 C 
ENDBRANCH  12  19
ENDBRANCH  11  17
ENDBRANCH   1  11
BRANCH   8  20
ATOM     20  C   UNL     1       5.820   4.845  15.529  0.00  0.00    +0.000 C 
BRANCH  20  21
ATOM     21  C   UNL     1       6.331   4.399  14.190  0.00  0.00    +0.000 A 
ATOM     22  C   UNL     1       5.839   3.469  13.293  0.00  0.00    +0.000 A 
ATOM     23  S   UNL     1       6.664   3.557  11.789  0.00  0.00    +0.000 S 
ATOM     24  C   UNL     1       7.593   4.853  12.400  0.00  0.00    +0.000 A 
ATOM     25  N   UNL     1       7.359   5.190  13.649  0.00  0.00    +0.000 NA
ENDBRANCH  20  21
ENDBRANCH   8  20
TORSDOF 5
ENDMDL
MODEL 4
REMARK VINA RESULT:      -7.3      3.118      7.002
REMARK  Name = 
REMARK  5 active torsions:
REMARK  status: ('A' for Active; 'I' for Inactive)
REMARK    1  A    between atoms: C_2  and  C_3
REMARK    2  A    between atoms: C_8  and  C_9
REMARK    3  A    between atoms: C_9  and  N_10
REMARK    4  A    between atoms: N_17  and  C_18
REMARK    5  A    between atoms: C_18  and  C_19
REMARK                            x       y       z     vdW  Elec       q    Type
REMARK                         _______ _______ _______ _____ _____    ______ ____
ROOT
ATOM      1  N   UNL     1       3.476   4.743  18.284  0.00  0.00    +0.000 NA
ATOM      2  C   UNL     1       2.376   4.023  17.627  0.00  0.00    +0.000 C 
ATOM      3  C   UNL     1       1.878   2.696  18.229  0.00  0.00    +0.000 C 
ATOM      4  C   UNL     1       0.801   2.926  19.282  0.00  0.00    +0.000 C 
ATOM      5  C   UNL     1       1.392   3.367  20.605  0.00  0.00    +0.000 C 
ATOM      6  C   UNL     1       2.919   3.502  20.549  0.00  0.00    +0.000 C 
ATOM      7  C   UNL     1       3.392   4.768  19.760  0.00  0.00    +0.000 C 
ATOM      8  N   UNL     1       3.527   2.266  20.031  0.00  0.00    +0.000 N 
ATOM      9  C   UNL     1       3.047   1.869  18.775  0.00  0.00    +0.000 C 
ATOM     10  O   UNL     1       3.563   1.018  18.059  0.00  0.00    +0.000 OA
ENDROOT
BRANCH   1  11
ATOM     11  C   UNL     1       4.805   4.336  17.777  0.00  0.00    +0.000 C 
BRANCH  11  17
ATOM     12  C   UNL     1       6.265   6.374  17.239  0.00  0.00    +0.000 A 
ATOM     13  C   UNL     1       7.356   7.205  17.534  0.00  0.00    +0.000 A 
ATOM     14  C   UNL     1       8.143   6.968  18.660  0.00  0.00    +0.000 A 
ATOM     15  C   UNL     1       7.844   5.900  19.500  0.00  0.00    +0.000 A 
ATOM     16  C   UNL     1       6.761   5.067  19.218  0.00  0.00    +0.000 A 
ATOM     17  C   UNL     1       5.948   5.295  18.092  0.00  0.00    +0.000 A 
BRANCH  12  19
ATOM     18  N   UNL     1       4.936   6.905  15.071  0.00  0.00    +0.000 NA
ATOM     19  C   UNL     1       5.521   6.650  16.040  0.00  0.00    +0.000 C 
ENDBRANCH  12  19
ENDBRANCH  11  17
ENDBRANCH   1  11
BRANCH   8  20
ATOM     20  C   UNL     1       4.932   2.061  20.442  0.00  0.00    +0.000 C 
BRANCH  20  21
ATOM     21  C   UNL     1       5.448   0.749  20.956  0.00  0.00    +0.000 A 
ATOM     22  C   UNL     1       5.601  -0.475  20.331  0.00  0.00    +0.000 A 
ATOM     23  S   UNL     1       6.501  -1.564  21.307  0.00  0.00    +0.000 S 
ATOM     24  C   UNL     1       6.674  -0.336  22.480  0.00  0.00    +0.000 A 
ATOM     25  N   UNL     1       6.076   0.803  22.212  0.00  0.00    +0.000 NA
ENDBRANCH  20  21
ENDBRANCH   8  20
TORSDOF 5
ENDMDL
MODEL 5
REMARK VINA RESULT:      -7.3      3.320      6.647
REMARK  Name = 
REMARK  5 active torsions:
REMARK  status: ('A' for Active; 'I' for Inactive)
REMARK    1  A    between atoms: C_2  and  C_3
REMARK    2  A    between atoms: C_8  and  C_9
REMARK    3  A    between atoms: C_9  and  N_10
REMARK    4  A    between atoms: N_17  and  C_18
REMARK    5  A    between atoms: C_18  and  C_19
REMARK                            x       y       z     vdW  Elec       q    Type
REMARK                         _______ _______ _______ _____ _____    ______ ____
ROOT
ATOM      1  N   UNL     1       3.413   3.137  17.293  0.00  0.00    +0.000 NA
ATOM      2  C   UNL     1       3.251   1.866  18.013  0.00  0.00    +0.000 C 
ATOM      3  C   UNL     1       2.595   1.868  19.406  0.00  0.00    +0.000 C 
ATOM      4  C   UNL     1       1.078   1.751  19.312  0.00  0.00    +0.000 C 
ATOM      5  C   UNL     1       0.433   3.073  18.947  0.00  0.00    +0.000 C 
ATOM      6  C   UNL     1       1.464   4.188  18.733  0.00  0.00    +0.000 C 
ATOM      7  C   UNL     1       2.250   4.044  17.387  0.00  0.00    +0.000 C 
ATOM      8  N   UNL     1       2.363   4.289  19.893  0.00  0.00    +0.000 N 
ATOM      9  C   UNL     1       3.027   3.096  20.214  0.00  0.00    +0.000 C 
ATOM     10  O   UNL     1       3.979   3.003  20.980  0.00  0.00    +0.000 OA
ENDROOT
BRANCH   1  11
ATOM     11  C   UNL     1       4.701   3.800  17.593  0.00  0.00    +0.000 C 
BRANCH  11  17
ATOM     12  C   UNL     1       6.875   4.641  16.523  0.00  0.00    +0.000 A 
ATOM     13  C   UNL     1       7.623   4.980  15.385  0.00  0.00    +0.000 A 
ATOM     14  C   UNL     1       7.082   4.824  14.109  0.00  0.00    +0.000 A 
ATOM     15  C   UNL     1       5.790   4.329  13.962  0.00  0.00    +0.000 A 
ATOM     16  C   UNL     1       5.036   3.988  15.086  0.00  0.00    +0.000 A 
ATOM     17  C   UNL     1       5.568   4.128  16.382  0.00  0.00    +0.000 A 
BRANCH  12  19
ATOM     18  N   UNL     1       7.936   5.027  18.862  0.00  0.00    +0.000 NA
ATOM     19  C   UNL     1       7.477   4.865  17.809  0.00  0.00    +0.000 C 
ENDBRANCH  12  19
ENDBRANCH  11  17
ENDBRANCH   1  11
BRANCH   8  20
ATOM     20  C   UNL     1       2.994   5.615  20.060  0.00  0.00    +0.000 C 
BRANCH  20  21
ATOM     21  C   UNL     1       2.294   6.900  19.725  0.00  0.00    +0.000 A 
ATOM     22  C   UNL     1       1.561   7.768  20.514  0.00  0.00    +0.000 A 
ATOM     23  S   UNL     1       1.221   9.230  19.680  0.00  0.00    +0.000 S 
ATOM     24  C   UNL     1       2.103   8.645  18.340  0.00  0.00    +0.000 A 
ATOM     25  N   UNL     1       2.590   7.430  18.458  0.00  0.00    +0.000 NA
ENDBRANCH  20  21
ENDBRANCH   8  20
TORSDOF 5
ENDMDL
MODEL 6
REMARK VINA RESULT:      -7.1      1.336      2.175
REMARK  Name = 
REMARK  5 active torsions:
REMARK  status: ('A' for Active; 'I' for Inactive)
REMARK    1  A    between atoms: C_2  and  C_3
REMARK    2  A    between atoms: C_8  and  C_9
REMARK    3  A    between atoms: C_9  and  N_10
REMARK    4  A    between atoms: N_17  and  C_18
REMARK    5  A    between atoms: C_18  and  C_19
REMARK                            x       y       z     vdW  Elec       q    Type
REMARK                         _______ _______ _______ _____ _____    ______ ____
ROOT
ATOM      1  N   UNL     1       4.952   5.440  18.959  0.00  0.00    +0.000 NA
ATOM      2  C   UNL     1       6.341   5.435  19.438  0.00  0.00    +0.000 C 
ATOM      3  C   UNL     1       7.488   5.624  18.426  0.00  0.00    +0.000 C 
ATOM      4  C   UNL     1       7.805   7.099  18.208  0.00  0.00    +0.000 C 
ATOM      5  C   UNL     1       6.804   7.758  17.280  0.00  0.00    +0.000 C 
ATOM      6  C   UNL     1       5.708   6.791  16.818  0.00  0.00    +0.000 C 
ATOM      7  C   UNL     1       4.663   6.470  17.938  0.00  0.00    +0.000 C 
ATOM      8  N   UNL     1       6.303   5.571  16.249  0.00  0.00    +0.000 N 
ATOM      9  C   UNL     1       7.183   4.902  17.111  0.00  0.00    +0.000 C 
ATOM     10  O   UNL     1       7.607   3.764  16.942  0.00  0.00    +0.000 OA
ENDROOT
BRANCH   1  11
ATOM     11  C   UNL     1       4.474   4.091  18.585  0.00  0.00    +0.000 C 
BRANCH  11  17
ATOM     12  C   UNL     1       2.035   3.542  19.158  0.00  0.00    +0.000 A 
ATOM     13  C   UNL     1       1.076   3.033  20.047  0.00  0.00    +0.000 A 
ATOM     14  C   UNL     1       1.462   2.492  21.273  0.00  0.00    +0.000 A 
ATOM     15  C   UNL     1       2.809   2.456  21.619  0.00  0.00    +0.000 A 
ATOM     16  C   UNL     1       3.773   2.959  20.744  0.00  0.00    +0.000 A 
ATOM     17  C   UNL     1       3.405   3.499  19.497  0.00  0.00    +0.000 A 
BRANCH  12  19
ATOM     18  N   UNL     1       1.153   4.594  16.953  0.00  0.00    +0.000 NA
ATOM     19  C   UNL     1       1.566   4.122  17.930  0.00  0.00    +0.000 C 
ENDBRANCH  12  19
ENDBRANCH  11  17
ENDBRANCH   1  11
BRANCH   8  20
ATOM     20  C   UNL     1       5.427   4.854  15.298  0.00  0.00    +0.000 C 
BRANCH  20  21
ATOM     21  C   UNL     1       5.877   4.439  13.928  0.00  0.00    +0.000 A 
ATOM     22  C   UNL     1       7.122   4.482  13.328  0.00  0.00    +0.000 A 
ATOM     23  S   UNL     1       7.128   3.618  11.844  0.00  0.00    +0.000 S 
ATOM     24  C   UNL     1       5.493   3.201  12.105  0.00  0.00    +0.000 A 
ATOM     25  N   UNL     1       4.941   3.693  13.192  0.00  0.00    +0.000 NA
ENDBRANCH  20  21
ENDBRANCH   8  20
TORSDOF 5
ENDMDL
MODEL 7
REMARK VINA RESULT:      -7.1      3.790      5.846
REMARK  Name = 
REMARK  5 active torsions:
REMARK  status: ('A' for Active; 'I' for Inactive)
REMARK    1  A    between atoms: C_2  and  C_3
REMARK    2  A    between atoms: C_8  and  C_9
REMARK    3  A    between atoms: C_9  and  N_10
REMARK    4  A    between atoms: N_17  and  C_18
REMARK    5  A    between atoms: C_18  and  C_19
REMARK                            x       y       z     vdW  Elec       q    Type
REMARK                         _______ _______ _______ _____ _____    ______ ____
ROOT
ATOM      1  N   UNL     1       2.108   5.554  20.542  0.00  0.00    +0.000 NA
ATOM      2  C   UNL     1       1.013   4.582  20.420  0.00  0.00    +0.000 C 
ATOM      3  C   UNL     1       1.109   3.467  19.361  0.00  0.00    +0.000 C 
ATOM      4  C   UNL     1       1.837   2.242  19.901  0.00  0.00    +0.000 C 
ATOM      5  C   UNL     1       3.340   2.438  19.910  0.00  0.00    +0.000 C 
ATOM      6  C   UNL     1       3.752   3.826  19.405  0.00  0.00    +0.000 C 
ATOM      7  C   UNL     1       3.460   4.964  20.438  0.00  0.00    +0.000 C 
ATOM      8  N   UNL     1       3.145   4.099  18.093  0.00  0.00    +0.000 N 
ATOM      9  C   UNL     1       1.747   3.991  18.070  0.00  0.00    +0.000 C 
ATOM     10  O   UNL     1       1.023   4.392  17.166  0.00  0.00    +0.000 OA
ENDROOT
BRANCH   1  11
ATOM     11  C   UNL     1       1.917   6.740  19.679  0.00  0.00    +0.000 C 
BRANCH  11  17
ATOM     12  C   UNL     1       1.244   9.214  19.718  0.00  0.00    +0.000 A 
ATOM     13  C   UNL     1       0.740  10.330  20.403  0.00  0.00    +0.000 A 
ATOM     14  C   UNL     1       0.326  10.220  21.730  0.00  0.00    +0.000 A 
ATOM     15  C   UNL     1       0.411   8.993  22.381  0.00  0.00    +0.000 A 
ATOM     16  C   UNL     1       0.911   7.876  21.711  0.00  0.00    +0.000 A 
ATOM     17  C   UNL     1       1.324   7.964  20.368  0.00  0.00    +0.000 A 
BRANCH  12  19
ATOM     18  N   UNL     1       2.088   9.553  17.285  0.00  0.00    +0.000 NA
ATOM     19  C   UNL     1       1.692   9.407  18.366  0.00  0.00    +0.000 C 
ENDBRANCH  12  19
ENDBRANCH  11  17
ENDBRANCH   1  11
BRANCH   8  20
ATOM     20  C   UNL     1       3.875   5.095  17.280  0.00  0.00    +0.000 C 
BRANCH  20  21
ATOM     21  C   UNL     1       5.059   4.742  16.428  0.00  0.00    +0.000 A 
ATOM     22  C   UNL     1       5.203   4.675  15.055  0.00  0.00    +0.000 A 
ATOM     23  S   UNL     1       6.851   4.495  14.609  0.00  0.00    +0.000 S 
ATOM     24  C   UNL     1       7.282   4.560  16.259  0.00  0.00    +0.000 A 
ATOM     25  N   UNL     1       6.285   4.664  17.110  0.00  0.00    +0.000 NA
ENDBRANCH  20  21
ENDBRANCH   8  20
TORSDOF 5
ENDMDL
MODEL 8
REMARK VINA RESULT:      -7.1      3.908      6.041
REMARK  Name = 
REMARK  5 active torsions:
REMARK  status: ('A' for Active; 'I' for Inactive)
REMARK    1  A    between atoms: C_2  and  C_3
REMARK    2  A    between atoms: C_8  and  C_9
REMARK    3  A    between atoms: C_9  and  N_10
REMARK    4  A    between atoms: N_17  and  C_18
REMARK    5  A    between atoms: C_18  and  C_19
REMARK                            x       y       z     vdW  Elec       q    Type
REMARK                         _______ _______ _______ _____ _____    ______ ____
ROOT
ATOM      1  N   UNL     1       2.287   5.452  20.443  0.00  0.00    +0.000 NA
ATOM      2  C   UNL     1       1.152   4.521  20.386  0.00  0.00    +0.000 C 
ATOM      3  C   UNL     1       1.149   3.400  19.330  0.00  0.00    +0.000 C 
ATOM      4  C   UNL     1       1.859   2.151  19.836  0.00  0.00    +0.000 C 
ATOM      5  C   UNL     1       3.366   2.291  19.762  0.00  0.00    +0.000 C 
ATOM      6  C   UNL     1       3.801   3.662  19.228  0.00  0.00    +0.000 C 
ATOM      7  C   UNL     1       3.609   4.813  20.269  0.00  0.00    +0.000 C 
ATOM      8  N   UNL     1       3.133   3.952  17.949  0.00  0.00    +0.000 N 
ATOM      9  C   UNL     1       1.733   3.896  18.004  0.00  0.00    +0.000 C 
ATOM     10  O   UNL     1       0.976   4.319  17.138  0.00  0.00    +0.000 OA
ENDROOT
BRANCH   1  11
ATOM     11  C   UNL     1       2.092   6.642  19.585  0.00  0.00    +0.000 C 
BRANCH  11  17
ATOM     12  C   UNL     1       1.344   9.095  19.622  0.00  0.00    +0.000 A 
ATOM     13  C   UNL     1       0.790  10.191  20.300  0.00  0.00    +0.000 A 
ATOM     14  C   UNL     1       0.347  10.060  21.615  0.00  0.00    +0.000 A 
ATOM     15  C   UNL     1       0.453   8.832  22.262  0.00  0.00    +0.000 A 
ATOM     16  C   UNL     1       1.002   7.734  21.598  0.00  0.00    +0.000 A 
ATOM     17  C   UNL     1       1.445   7.843  20.267  0.00  0.00    +0.000 A 
BRANCH  12  19
ATOM     18  N   UNL     1       2.222   9.450  17.203  0.00  0.00    +0.000 NA
ATOM     19  C   UNL     1       1.819   9.309  18.282  0.00  0.00    +0.000 C 
ENDBRANCH  12  19
ENDBRANCH  11  17
ENDBRANCH   1  11
BRANCH   8  20
ATOM     20  C   UNL     1       3.854   4.917  17.092  0.00  0.00    +0.000 C 
BRANCH  20  21
ATOM     21  C   UNL     1       5.293   5.283  17.308  0.00  0.00    +0.000 A 
ATOM     22  C   UNL     1       5.870   6.356  17.962  0.00  0.00    +0.000 A 
ATOM     23  S   UNL     1       7.563   6.134  18.149  0.00  0.00    +0.000 S 
ATOM     24  C   UNL     1       7.424   4.610  17.392  0.00  0.00    +0.000 A 
ATOM     25  N   UNL     1       6.221   4.281  16.978  0.00  0.00    +0.000 NA
ENDBRANCH  20  21
ENDBRANCH   8  20
TORSDOF 5
ENDMDL
MODEL 9
REMARK VINA RESULT:      -7.0      3.547      6.843
REMARK  Name = 
REMARK  5 active torsions:
REMARK  status: ('A' for Active; 'I' for Inactive)
REMARK    1  A    between atoms: C_2  and  C_3
REMARK    2  A    between atoms: C_8  and  C_9
REMARK    3  A    between atoms: C_9  and  N_10
REMARK    4  A    between atoms: N_17  and  C_18
REMARK    5  A    between atoms: C_18  and  C_19
REMARK                            x       y       z     vdW  Elec       q    Type
REMARK                         _______ _______ _______ _____ _____    ______ ____
ROOT
ATOM      1  N   UNL     1       3.613   3.718  16.966  0.00  0.00    +0.000 NA
ATOM      2  C   UNL     1       4.431   2.966  17.926  0.00  0.00    +0.000 C 
ATOM      3  C   UNL     1       4.363   3.328  19.421  0.00  0.00    +0.000 C 
ATOM      4  C   UNL     1       3.243   2.578  20.130  0.00  0.00    +0.000 C 
ATOM      5  C   UNL     1       1.888   3.203  19.861  0.00  0.00    +0.000 C 
ATOM      6  C   UNL     1       1.978   4.411  18.921  0.00  0.00    +0.000 C 
ATOM      7  C   UNL     1       2.241   4.010  17.432  0.00  0.00    +0.000 C 
ATOM      8  N   UNL     1       2.969   5.379  19.418  0.00  0.00    +0.000 N 
ATOM      9  C   UNL     1       4.250   4.844  19.613  0.00  0.00    +0.000 C 
ATOM     10  O   UNL     1       5.269   5.501  19.796  0.00  0.00    +0.000 OA
ENDROOT
BRANCH   1  11
ATOM     11  C   UNL     1       4.314   4.904  16.425  0.00  0.00    +0.000 C 
BRANCH  11  17
ATOM     12  C   UNL     1       6.647   5.063  15.371  0.00  0.00    +0.000 A 
ATOM     13  C   UNL     1       7.517   4.831  14.295  0.00  0.00    +0.000 A 
ATOM     14  C   UNL     1       7.069   4.177  13.149  0.00  0.00    +0.000 A 
ATOM     15  C   UNL     1       5.747   3.750  13.069  0.00  0.00    +0.000 A 
ATOM     16  C   UNL     1       4.871   3.974  14.132  0.00  0.00    +0.000 A 
ATOM     17  C   UNL     1       5.307   4.623  15.303  0.00  0.00    +0.000 A 
BRANCH  12  19
ATOM     18  N   UNL     1       7.613   6.348  17.411  0.00  0.00    +0.000 NA
ATOM     19  C   UNL     1       7.163   5.779  16.506  0.00  0.00    +0.000 C 
ENDBRANCH  12  19
ENDBRANCH  11  17
ENDBRANCH   1  11
BRANCH   8  20
ATOM     20  C   UNL     1       2.752   6.765  18.953  0.00  0.00    +0.000 C 
BRANCH  20  21
ATOM     21  C   UNL     1       1.859   7.736  19.669  0.00  0.00    +0.000 A 
ATOM     22  C   UNL     1       1.420   7.771  20.979  0.00  0.00    +0.000 A 
ATOM     23  S   UNL     1       0.644   9.260  21.337  0.00  0.00    +0.000 S 
ATOM     24  C   UNL     1       0.975   9.789  19.748  0.00  0.00    +0.000 A 
ATOM     25  N   UNL     1       1.581   8.922  18.967  0.00  0.00    +0.000 NA
ENDBRANCH  20  21
ENDBRANCH   8  20
TORSDOF 5
ENDMDL
