MODEL 1
REMARK VINA RESULT:      -8.6      0.000      0.000
REMARK  Name = 
REMARK  6 active torsions:
REMARK  status: ('A' for Active; 'I' for Inactive)
REMARK    1  A    between atoms: C_2  and  C_3
REMARK    2  A    between atoms: N_7  and  S_8
REMARK    3  A    between atoms: S_8  and  C_11
REMARK    4  A    between atoms: C_14  and  N_15
REMARK    5  A    between atoms: C_16  and  C_18
REMARK    6  A    between atoms: C_18  and  C_19
REMARK                            x       y       z     vdW  Elec       q    Type
REMARK                         _______ _______ _______ _____ _____    ______ ____
ROOT
ATOM      1  C   UNL     1       2.291   4.455  18.841  0.00  0.00    +0.000 A 
ATOM      2  C   UNL     1       2.031   4.324  20.202  0.00  0.00    +0.000 A 
ATOM      3  C   UNL     1       1.803   5.452  20.982  0.00  0.00    +0.000 A 
ATOM      4  C   UNL     1       1.905   6.730  20.436  0.00  0.00    +0.000 A 
ATOM      5  C   UNL     1       2.182   6.859  19.065  0.00  0.00    +0.000 A 
ATOM      6  C   UNL     1       2.381   5.722  18.263  0.00  0.00    +0.000 A 
ENDROOT
BRANCH   4   7
ATOM      7  N   UNL     1       1.746   7.895  21.219  0.00  0.00    +0.000 N 
ATOM      8  C   UNL     1       0.532   8.396  21.676  0.00  0.00    +0.000 C 
ATOM      9  O   UNL     1      -0.574   7.881  21.511  0.00  0.00    +0.000 OA
ATOM     10  H   UNL     1       2.594   8.340  21.546  0.00  0.00    +0.000 HD
BRANCH   8  11
ATOM     11  C   UNL     1       0.640   9.706  22.440  0.00  0.00    +0.000 C 
BRANCH  11  12
ATOM     12  C   UNL     1      -0.339  10.742  21.942  0.00  0.00    +0.000 A 
ATOM     13  C   UNL     1      -1.288  11.308  22.810  0.00  0.00    +0.000 A 
ATOM     14  C   UNL     1      -2.225  12.228  22.336  0.00  0.00    +0.000 A 
ATOM     15  C   UNL     1      -2.211  12.595  20.994  0.00  0.00    +0.000 A 
ATOM     16  F   UNL     1      -3.137  13.458  20.553  0.00  0.00    +0.000 F 
ATOM     17  C   UNL     1      -1.257  12.069  20.128  0.00  0.00    +0.000 A 
ATOM     18 CL   UNL     1      -1.228  12.524  18.469  0.00  0.00    +0.000 Cl
ATOM     19  C   UNL     1      -0.315  11.151  20.600  0.00  0.00    +0.000 A 
ENDBRANCH  11  12
ENDBRANCH   8  11
ENDBRANCH   4   7
BRANCH   1  20
ATOM     20  S   UNL     1       2.519   2.975  17.897  0.00  0.00    +0.000 S 
ATOM     21  O   UNL     1       2.207   3.266  16.515  0.00  0.00    +0.000 OA
ATOM     22  O   UNL     1       1.848   1.892  18.592  0.00  0.00    +0.000 OA
BRANCH  20  27
ATOM     23  C   UNL     1       6.381   5.755  17.882  0.00  0.00    +0.000 A 
ATOM     24  C   UNL     1       6.152   5.363  19.185  0.00  0.00    +0.000 A 
ATOM     25  N   UNL     1       5.346   4.244  19.336  0.00  0.00    +0.000 NA
ATOM     26  C   UNL     1       4.965   3.822  18.156  0.00  0.00    +0.000 A 
ATOM     27  N   UNL     1       4.172   2.652  18.079  0.00  0.00    +0.000 N 
ATOM     28  S   UNL     1       5.618   4.653  16.811  0.00  0.00    +0.000 S 
ATOM     29  H   UNL     1       4.433   1.987  17.357  0.00  0.00    +0.000 HD
BRANCH  23  31
ATOM     30  N   UNL     1       7.765   7.814  17.148  0.00  0.00    +0.000 NA
ATOM     31  C   UNL     1       7.152   6.888  17.495  0.00  0.00    +0.000 C 
ENDBRANCH  23  31
ENDBRANCH  20  27
ENDBRANCH   1  20
TORSDOF 6
ENDMDL
MODEL 2
REMARK VINA RESULT:      -8.6      1.058      1.650
REMARK  Name = 
REMARK  6 active torsions:
REMARK  status: ('A' for Active; 'I' for Inactive)
REMARK    1  A    between atoms: C_2  and  C_3
REMARK    2  A    between atoms: N_7  and  S_8
REMARK    3  A    between atoms: S_8  and  C_11
REMARK    4  A    between atoms: C_14  and  N_15
REMARK    5  A    between atoms: C_16  and  C_18
REMARK    6  A    between atoms: C_18  and  C_19
REMARK                            x       y       z     vdW  Elec       q    Type
REMARK                         _______ _______ _______ _____ _____    ______ ____
ROOT
ATOM      1  C   UNL     1       2.284   4.450  18.904  0.00  0.00    +0.000 A 
ATOM      2  C   UNL     1       2.386   5.692  18.283  0.00  0.00    +0.000 A 
ATOM      3  C   UNL     1       2.260   6.858  19.027  0.00  0.00    +0.000 A 
ATOM      4  C   UNL     1       1.957   6.809  20.386  0.00  0.00    +0.000 A 
ATOM      5  C   UNL     1       1.841   5.555  21.008  0.00  0.00    +0.000 A 
ATOM      6  C   UNL     1       1.999   4.371  20.268  0.00  0.00    +0.000 A 
ENDROOT
BRANCH   4   7
ATOM      7  N   UNL     1       1.756   7.979  21.153  0.00  0.00    +0.000 N 
ATOM      8  C   UNL     1       0.529   8.421  21.637  0.00  0.00    +0.000 C 
ATOM      9  O   UNL     1      -0.550   7.843  21.515  0.00  0.00    +0.000 OA
ATOM     10  H   UNL     1       2.587   8.476  21.446  0.00  0.00    +0.000 HD
BRANCH   8  11
ATOM     11  C   UNL     1       0.586   9.750  22.373  0.00  0.00    +0.000 C 
BRANCH  11  12
ATOM     12  C   UNL     1      -0.506  10.696  21.933  0.00  0.00    +0.000 A 
ATOM     13  C   UNL     1      -0.647  11.048  20.581  0.00  0.00    +0.000 A 
ATOM     14  C   UNL     1      -1.625  11.962  20.183  0.00  0.00    +0.000 A 
ATOM     15  C   UNL     1      -2.473  12.520  21.134  0.00  0.00    +0.000 A 
ATOM     16  F   UNL     1      -3.386  13.417  20.736  0.00  0.00    +0.000 F 
ATOM     17  C   UNL     1      -2.368  12.155  22.474  0.00  0.00    +0.000 A 
ATOM     18 CL   UNL     1      -3.419  12.834  23.656  0.00  0.00    +0.000 Cl
ATOM     19  C   UNL     1      -1.393  11.238  22.874  0.00  0.00    +0.000 A 
ENDBRANCH  11  12
ENDBRANCH   8  11
ENDBRANCH   4   7
BRANCH   1  20
ATOM     20  S   UNL     1       2.508   3.005  17.907  0.00  0.00    +0.000 S 
ATOM     21  O   UNL     1       2.203   3.349  16.536  0.00  0.00    +0.000 OA
ATOM     22  O   UNL     1       1.829   1.901  18.559  0.00  0.00    +0.000 OA
BRANCH  20  27
ATOM     23  C   UNL     1       6.396   5.749  17.864  0.00  0.00    +0.000 A 
ATOM     24  C   UNL     1       6.169   5.365  19.169  0.00  0.00    +0.000 A 
ATOM     25  N   UNL     1       5.354   4.254  19.328  0.00  0.00    +0.000 NA
ATOM     26  C   UNL     1       4.964   3.831  18.151  0.00  0.00    +0.000 A 
ATOM     27  N   UNL     1       4.159   2.668  18.083  0.00  0.00    +0.000 N 
ATOM     28  S   UNL     1       5.618   4.650  16.800  0.00  0.00    +0.000 S 
ATOM     29  H   UNL     1       4.411   1.997  17.363  0.00  0.00    +0.000 HD
BRANCH  23  31
ATOM     30  N   UNL     1       7.792   7.812  17.164  0.00  0.00    +0.000 NA
ATOM     31  C   UNL     1       7.175   6.873  17.468  0.00  0.00    +0.000 C 
ENDBRANCH  23  31
ENDBRANCH  20  27
ENDBRANCH   1  20
TORSDOF 6
ENDMDL
MODEL 3
REMARK VINA RESULT:      -8.5      1.235      1.664
REMARK  Name = 
REMARK  6 active torsions:
REMARK  status: ('A' for Active; 'I' for Inactive)
REMARK    1  A    between atoms: C_2  and  C_3
REMARK    2  A    between atoms: N_7  and  S_8
REMARK    3  A    between atoms: S_8  and  C_11
REMARK    4  A    between atoms: C_14  and  N_15
REMARK    5  A    between atoms: C_16  and  C_18
REMARK    6  A    between atoms: C_18  and  C_19
REMARK                            x       y       z     vdW  Elec       q    Type
REMARK                         _______ _______ _______ _____ _____    ______ ____
ROOT
ATOM      1  C   UNL     1       2.339   4.397  18.935  0.00  0.00    +0.000 A 
ATOM      2  C   UNL     1       2.382   5.562  18.173  0.00  0.00    +0.000 A 
ATOM      3  C   UNL     1       2.221   6.801  18.781  0.00  0.00    +0.000 A 
ATOM      4  C   UNL     1       1.941   6.897  20.143  0.00  0.00    +0.000 A 
ATOM      5  C   UNL     1       1.884   5.720  20.906  0.00  0.00    +0.000 A 
ATOM      6  C   UNL     1       2.077   4.465  20.304  0.00  0.00    +0.000 A 
ENDROOT
BRANCH   4   7
ATOM      7  N   UNL     1       1.705   8.139  20.774  0.00  0.00    +0.000 N 
ATOM      8  C   UNL     1       0.509   8.522  21.372  0.00  0.00    +0.000 C 
ATOM      9  O   UNL     1      -0.500   7.827  21.486  0.00  0.00    +0.000 OA
ATOM     10  H   UNL     1       2.502   8.754  20.875  0.00  0.00    +0.000 HD
BRANCH   8  11
ATOM     11  C   UNL     1       0.504   9.942  21.915  0.00  0.00    +0.000 C 
BRANCH  11  12
ATOM     12  C   UNL     1       0.271  10.968  20.833  0.00  0.00    +0.000 A 
ATOM     13  C   UNL     1       1.041  12.143  20.781  0.00  0.00    +0.000 A 
ATOM     14  C   UNL     1       0.790  13.115  19.810  0.00  0.00    +0.000 A 
ATOM     15  C   UNL     1      -0.224  12.911  18.880  0.00  0.00    +0.000 A 
ATOM     16  F   UNL     1      -0.468  13.869  17.973  0.00  0.00    +0.000 F 
ATOM     17  C   UNL     1      -0.973  11.738  18.896  0.00  0.00    +0.000 A 
ATOM     18 CL   UNL     1      -2.224  11.476  17.744  0.00  0.00    +0.000 Cl
ATOM     19  C   UNL     1      -0.722  10.762  19.865  0.00  0.00    +0.000 A 
ENDBRANCH  11  12
ENDBRANCH   8  11
ENDBRANCH   4   7
BRANCH   1  20
ATOM     20  S   UNL     1       2.605   2.856  18.105  0.00  0.00    +0.000 S 
ATOM     21  O   UNL     1       2.280   3.031  16.707  0.00  0.00    +0.000 OA
ATOM     22  O   UNL     1       1.967   1.812  18.885  0.00  0.00    +0.000 OA
BRANCH  20  27
ATOM     23  C   UNL     1       6.381   5.744  17.906  0.00  0.00    +0.000 A 
ATOM     24  C   UNL     1       6.167   5.428  19.231  0.00  0.00    +0.000 A 
ATOM     25  N   UNL     1       5.395   4.297  19.454  0.00  0.00    +0.000 NA
ATOM     26  C   UNL     1       5.025   3.791  18.303  0.00  0.00    +0.000 A 
ATOM     27  N   UNL     1       4.268   2.595  18.302  0.00  0.00    +0.000 N 
ATOM     28  S   UNL     1       5.651   4.555  16.908  0.00  0.00    +0.000 S 
ATOM     29  H   UNL     1       4.548   1.894  17.623  0.00  0.00    +0.000 HD
BRANCH  23  31
ATOM     30  N   UNL     1       7.748   7.780  17.081  0.00  0.00    +0.000 NA
ATOM     31  C   UNL     1       7.118   6.873  17.446  0.00  0.00    +0.000 C 
ENDBRANCH  23  31
ENDBRANCH  20  27
ENDBRANCH   1  20
TORSDOF 6
ENDMDL
MODEL 4
REMARK VINA RESULT:      -8.4      5.665      9.377
REMARK  Name = 
REMARK  6 active torsions:
REMARK  status: ('A' for Active; 'I' for Inactive)
REMARK    1  A    between atoms: C_2  and  C_3
REMARK    2  A    between atoms: N_7  and  S_8
REMARK    3  A    between atoms: S_8  and  C_11
REMARK    4  A    between atoms: C_14  and  N_15
REMARK    5  A    between atoms: C_16  and  C_18
REMARK    6  A    between atoms: C_18  and  C_19
REMARK                            x       y       z     vdW  Elec       q    Type
REMARK                         _______ _______ _______ _____ _____    ______ ____
ROOT
ATOM      1  C   UNL     1       1.047   9.594  19.423  0.00  0.00    +0.000 A 
ATOM      2  C   UNL     1       1.638   9.378  18.182  0.00  0.00    +0.000 A 
ATOM      3  C   UNL     1       2.349   8.209  17.940  0.00  0.00    +0.000 A 
ATOM      4  C   UNL     1       2.548   7.272  18.952  0.00  0.00    +0.000 A 
ATOM      5  C   UNL     1       1.962   7.499  20.208  0.00  0.00    +0.000 A 
ATOM      6  C   UNL     1       1.214   8.664  20.450  0.00  0.00    +0.000 A 
ENDROOT
BRANCH   4   7
ATOM      7  N   UNL     1       3.324   6.108  18.754  0.00  0.00    +0.000 N 
ATOM      8  C   UNL     1       2.830   4.873  18.345  0.00  0.00    +0.000 C 
ATOM      9  O   UNL     1       1.663   4.621  18.048  0.00  0.00    +0.000 OA
ATOM     10  H   UNL     1       4.327   6.215  18.828  0.00  0.00    +0.000 HD
BRANCH   8  11
ATOM     11  C   UNL     1       3.873   3.770  18.280  0.00  0.00    +0.000 C 
BRANCH  11  12
ATOM     12  C   UNL     1       4.962   4.068  17.276  0.00  0.00    +0.000 A 
ATOM     13  C   UNL     1       6.208   4.564  17.696  0.00  0.00    +0.000 A 
ATOM     14  C   UNL     1       7.195   4.888  16.763  0.00  0.00    +0.000 A 
ATOM     15  C   UNL     1       6.945   4.706  15.407  0.00  0.00    +0.000 A 
ATOM     16  F   UNL     1       7.895   5.048  14.525  0.00  0.00    +0.000 F 
ATOM     17  C   UNL     1       5.729   4.183  14.976  0.00  0.00    +0.000 A 
ATOM     18 CL   UNL     1       5.415   3.947  13.301  0.00  0.00    +0.000 Cl
ATOM     19  C   UNL     1       4.740   3.855  15.908  0.00  0.00    +0.000 A 
ENDBRANCH  11  12
ENDBRANCH   8  11
ENDBRANCH   4   7
BRANCH   1  20
ATOM     20  S   UNL     1       0.110  11.080  19.647  0.00  0.00    +0.000 S 
ATOM     21  O   UNL     1       0.616  11.763  20.816  0.00  0.00    +0.000 OA
ATOM     22  O   UNL     1      -1.296  10.742  19.540  0.00  0.00    +0.000 OA
BRANCH  20  27
ATOM     23  C   UNL     1       2.044  15.366  18.916  0.00  0.00    +0.000 A 
ATOM     24  C   UNL     1       2.980  14.418  18.556  0.00  0.00    +0.000 A 
ATOM     25  N   UNL     1       2.475  13.151  18.305  0.00  0.00    +0.000 NA
ATOM     26  C   UNL     1       1.179  13.155  18.496  0.00  0.00    +0.000 A 
ATOM     27  N   UNL     1       0.454  11.966  18.243  0.00  0.00    +0.000 N 
ATOM     28  S   UNL     1       0.477  14.668  18.876  0.00  0.00    +0.000 S 
ATOM     29  H   UNL     1      -0.418  12.078  17.734  0.00  0.00    +0.000 HD
BRANCH  23  31
ATOM     30  N   UNL     1       2.558  17.836  19.490  0.00  0.00    +0.000 NA
ATOM     31  C   UNL     1       2.340  16.720  19.245  0.00  0.00    +0.000 C 
ENDBRANCH  23  31
ENDBRANCH  20  27
ENDBRANCH   1  20
TORSDOF 6
ENDMDL
MODEL 5
REMARK VINA RESULT:      -8.3      5.279      9.807
REMARK  Name = 
REMARK  6 active torsions:
REMARK  status: ('A' for Active; 'I' for Inactive)
REMARK    1  A    between atoms: C_2  and  C_3
REMARK    2  A    between atoms: N_7  and  S_8
REMARK    3  A    between atoms: S_8  and  C_11
REMARK    4  A    between atoms: C_14  and  N_15
REMARK    5  A    between atoms: C_16  and  C_18
REMARK    6  A    between atoms: C_18  and  C_19
REMARK                            x       y       z     vdW  Elec       q    Type
REMARK                         _______ _______ _______ _____ _____    ______ ____
ROOT
ATOM      1  C   UNL     1       1.029   9.809  19.120  0.00  0.00    +0.000 A 
ATOM      2  C   UNL     1       1.700   9.524  17.934  0.00  0.00    +0.000 A 
ATOM      3  C   UNL     1       2.421   8.344  17.805  0.00  0.00    +0.000 A 
ATOM      4  C   UNL     1       2.548   7.463  18.877  0.00  0.00    +0.000 A 
ATOM      5  C   UNL     1       1.882   7.760  20.077  0.00  0.00    +0.000 A 
ATOM      6  C   UNL     1       1.124   8.937  20.205  0.00  0.00    +0.000 A 
ENDROOT
BRANCH   4   7
ATOM      7  N   UNL     1       3.330   6.290  18.796  0.00  0.00    +0.000 N 
ATOM      8  C   UNL     1       2.841   5.015  18.533  0.00  0.00    +0.000 C 
ATOM      9  O   UNL     1       1.671   4.723  18.286  0.00  0.00    +0.000 OA
ATOM     10  H   UNL     1       4.334   6.411  18.841  0.00  0.00    +0.000 HD
BRANCH   8  11
ATOM     11  C   UNL     1       3.892   3.917  18.572  0.00  0.00    +0.000 C 
BRANCH  11  12
ATOM     12  C   UNL     1       4.979   4.128  17.545  0.00  0.00    +0.000 A 
ATOM     13  C   UNL     1       6.275   4.504  17.939  0.00  0.00    +0.000 A 
ATOM     14  C   UNL     1       7.265   4.748  16.985  0.00  0.00    +0.000 A 
ATOM     15  C   UNL     1       6.967   4.606  15.634  0.00  0.00    +0.000 A 
ATOM     16  F   UNL     1       7.923   4.871  14.732  0.00  0.00    +0.000 F 
ATOM     17  C   UNL     1       5.699   4.200  15.228  0.00  0.00    +0.000 A 
ATOM     18 CL   UNL     1       5.325   4.014  13.559  0.00  0.00    +0.000 Cl
ATOM     19  C   UNL     1       4.707   3.952  16.181  0.00  0.00    +0.000 A 
ENDBRANCH  11  12
ENDBRANCH   8  11
ENDBRANCH   4   7
BRANCH   1  20
ATOM     20  S   UNL     1       0.086  11.305  19.198  0.00  0.00    +0.000 S 
ATOM     21  O   UNL     1      -1.317  10.960  19.150  0.00  0.00    +0.000 OA
ATOM     22  O   UNL     1       0.649  12.240  18.242  0.00  0.00    +0.000 OA
BRANCH  20  27
ATOM     23  C   UNL     1      -2.448  12.143  23.138  0.00  0.00    +0.000 A 
ATOM     24  C   UNL     1      -1.656  11.038  23.377  0.00  0.00    +0.000 A 
ATOM     25  N   UNL     1      -0.570  10.891  22.527  0.00  0.00    +0.000 NA
ATOM     26  C   UNL     1      -0.568  11.868  21.653  0.00  0.00    +0.000 A 
ATOM     27  N   UNL     1       0.492  11.937  20.718  0.00  0.00    +0.000 N 
ATOM     28  S   UNL     1      -1.777  13.061  21.853  0.00  0.00    +0.000 S 
ATOM     29  H   UNL     1       0.890  12.859  20.567  0.00  0.00    +0.000 HD
BRANCH  23  31
ATOM     30  N   UNL     1      -4.594  12.771  24.440  0.00  0.00    +0.000 NA
ATOM     31  C   UNL     1      -3.625  12.475  23.867  0.00  0.00    +0.000 C 
ENDBRANCH  23  31
ENDBRANCH  20  27
ENDBRANCH   1  20
TORSDOF 6
ENDMDL
MODEL 6
REMARK VINA RESULT:      -8.3      1.387      1.549
REMARK  Name = 
REMARK  6 active torsions:
REMARK  status: ('A' for Active; 'I' for Inactive)
REMARK    1  A    between atoms: C_2  and  C_3
REMARK    2  A    between atoms: N_7  and  S_8
REMARK    3  A    between atoms: S_8  and  C_11
REMARK    4  A    between atoms: C_14  and  N_15
REMARK    5  A    between atoms: C_16  and  C_18
REMARK    6  A    between atoms: C_18  and  C_19
REMARK                            x       y       z     vdW  Elec       q    Type
REMARK                         _______ _______ _______ _____ _____    ______ ____
ROOT
ATOM      1  C   UNL     1       2.329   4.398  18.910  0.00  0.00    +0.000 A 
ATOM      2  C   UNL     1       2.053   4.429  20.275  0.00  0.00    +0.000 A 
ATOM      3  C   UNL     1       1.786   5.637  20.907  0.00  0.00    +0.000 A 
ATOM      4  C   UNL     1       1.862   6.840  20.209  0.00  0.00    +0.000 A 
ATOM      5  C   UNL     1       2.154   6.807  18.835  0.00  0.00    +0.000 A 
ATOM      6  C   UNL     1       2.394   5.587  18.182  0.00  0.00    +0.000 A 
ENDROOT
BRANCH   4   7
ATOM      7  N   UNL     1       1.663   8.088  20.841  0.00  0.00    +0.000 N 
ATOM      8  C   UNL     1       0.472   8.513  21.421  0.00  0.00    +0.000 C 
ATOM      9  O   UNL     1      -0.565   7.857  21.514  0.00  0.00    +0.000 OA
ATOM     10  H   UNL     1       2.481   8.672  20.958  0.00  0.00    +0.000 HD
BRANCH   8  11
ATOM     11  C   UNL     1       0.511   9.930  21.969  0.00  0.00    +0.000 C 
BRANCH  11  12
ATOM     12  C   UNL     1       0.192  10.963  20.914  0.00  0.00    +0.000 A 
ATOM     13  C   UNL     1      -0.567  10.620  19.783  0.00  0.00    +0.000 A 
ATOM     14  C   UNL     1      -0.818  11.562  18.783  0.00  0.00    +0.000 A 
ATOM     15  C   UNL     1      -0.320  12.854  18.916  0.00  0.00    +0.000 A 
ATOM     16  F   UNL     1      -0.548  13.737  17.932  0.00  0.00    +0.000 F 
ATOM     17  C   UNL     1       0.405  13.220  20.047  0.00  0.00    +0.000 A 
ATOM     18 CL   UNL     1       1.018  14.818  20.222  0.00  0.00    +0.000 Cl
ATOM     19  C   UNL     1       0.655  12.279  21.050  0.00  0.00    +0.000 A 
ENDBRANCH  11  12
ENDBRANCH   8  11
ENDBRANCH   4   7
BRANCH   1  20
ATOM     20  S   UNL     1       2.608   2.820  18.158  0.00  0.00    +0.000 S 
ATOM     21  O   UNL     1       2.292   2.927  16.751  0.00  0.00    +0.000 OA
ATOM     22  O   UNL     1       1.968   1.812  18.982  0.00  0.00    +0.000 OA
BRANCH  20  27
ATOM     23  C   UNL     1       6.367   5.728  17.915  0.00  0.00    +0.000 A 
ATOM     24  C   UNL     1       6.140   5.447  19.247  0.00  0.00    +0.000 A 
ATOM     25  N   UNL     1       5.374   4.317  19.494  0.00  0.00    +0.000 NA
ATOM     26  C   UNL     1       5.020   3.777  18.354  0.00  0.00    +0.000 A 
ATOM     27  N   UNL     1       4.270   2.576  18.379  0.00  0.00    +0.000 N 
ATOM     28  S   UNL     1       5.655   4.505  16.944  0.00  0.00    +0.000 S 
ATOM     29  H   UNL     1       4.562   1.858  17.723  0.00  0.00    +0.000 HD
BRANCH  23  31
ATOM     30  N   UNL     1       7.723   7.742  17.022  0.00  0.00    +0.000 NA
ATOM     31  C   UNL     1       7.101   6.848  17.432  0.00  0.00    +0.000 C 
ENDBRANCH  23  31
ENDBRANCH  20  27
ENDBRANCH   1  20
TORSDOF 6
ENDMDL
MODEL 7
REMARK VINA RESULT:      -8.2      5.173      9.599
REMARK  Name = 
REMARK  6 active torsions:
REMARK  status: ('A' for Active; 'I' for Inactive)
REMARK    1  A    between atoms: C_2  and  C_3
REMARK    2  A    between atoms: N_7  and  S_8
REMARK    3  A    between atoms: S_8  and  C_11
REMARK    4  A    between atoms: C_14  and  N_15
REMARK    5  A    between atoms: C_16  and  C_18
REMARK    6  A    between atoms: C_18  and  C_19
REMARK                            x       y       z     vdW  Elec       q    Type
REMARK                         _______ _______ _______ _____ _____    ______ ____
ROOT
ATOM      1  C   UNL     1       1.491   8.226  20.261  0.00  0.00    +0.000 A 
ATOM      2  C   UNL     1       1.519   6.943  20.800  0.00  0.00    +0.000 A 
ATOM      3  C   UNL     1       2.081   5.895  20.082  0.00  0.00    +0.000 A 
ATOM      4  C   UNL     1       2.558   6.092  18.787  0.00  0.00    +0.000 A 
ATOM      5  C   UNL     1       2.517   7.385  18.241  0.00  0.00    +0.000 A 
ATOM      6  C   UNL     1       1.978   8.456  18.973  0.00  0.00    +0.000 A 
ENDROOT
BRANCH   4   7
ATOM      7  N   UNL     1       3.073   5.031  18.008  0.00  0.00    +0.000 N 
ATOM      8  C   UNL     1       4.271   4.366  18.248  0.00  0.00    +0.000 C 
ATOM      9  O   UNL     1       5.034   4.565  19.192  0.00  0.00    +0.000 OA
ATOM     10  H   UNL     1       2.471   4.673  17.278  0.00  0.00    +0.000 HD
BRANCH   8  11
ATOM     11  C   UNL     1       4.622   3.310  17.213  0.00  0.00    +0.000 C 
BRANCH  11  12
ATOM     12  C   UNL     1       5.529   3.846  16.132  0.00  0.00    +0.000 A 
ATOM     13  C   UNL     1       6.541   4.772  16.439  0.00  0.00    +0.000 A 
ATOM     14  C   UNL     1       7.346   5.305  15.431  0.00  0.00    +0.000 A 
ATOM     15  C   UNL     1       7.150   4.907  14.112  0.00  0.00    +0.000 A 
ATOM     16  F   UNL     1       7.915   5.452  13.155  0.00  0.00    +0.000 F 
ATOM     17  C   UNL     1       6.176   3.966  13.795  0.00  0.00    +0.000 A 
ATOM     18 CL   UNL     1       5.933   3.462  12.168  0.00  0.00    +0.000 Cl
ATOM     19  C   UNL     1       5.370   3.428  14.803  0.00  0.00    +0.000 A 
ENDBRANCH  11  12
ENDBRANCH   8  11
ENDBRANCH   4   7
BRANCH   1  20
ATOM     20  S   UNL     1       0.808   9.525  21.251  0.00  0.00    +0.000 S 
ATOM     21  O   UNL     1       1.701   9.765  22.363  0.00  0.00    +0.000 OA
ATOM     22  O   UNL     1      -0.592   9.224  21.481  0.00  0.00    +0.000 OA
BRANCH  20  27
ATOM     23  C   UNL     1      -2.557  11.449  18.490  0.00  0.00    +0.000 A 
ATOM     24  C   UNL     1      -2.362  12.295  19.564  0.00  0.00    +0.000 A 
ATOM     25  N   UNL     1      -1.163  12.128  20.241  0.00  0.00    +0.000 NA
ATOM     26  C   UNL     1      -0.484  11.154  19.687  0.00  0.00    +0.000 A 
ATOM     27  N   UNL     1       0.802  10.851  20.196  0.00  0.00    +0.000 N 
ATOM     28  S   UNL     1      -1.170  10.460  18.282  0.00  0.00    +0.000 S 
ATOM     29  H   UNL     1       1.526  10.691  19.502  0.00  0.00    +0.000 HD
BRANCH  23  31
ATOM     30  N   UNL     1      -4.654  11.414  16.977  0.00  0.00    +0.000 NA
ATOM     31  C   UNL     1      -3.722  11.425  17.673  0.00  0.00    +0.000 C 
ENDBRANCH  23  31
ENDBRANCH  20  27
ENDBRANCH   1  20
TORSDOF 6
ENDMDL
MODEL 8
REMARK VINA RESULT:      -8.2      5.827      9.421
REMARK  Name = 
REMARK  6 active torsions:
REMARK  status: ('A' for Active; 'I' for Inactive)
REMARK    1  A    between atoms: C_2  and  C_3
REMARK    2  A    between atoms: N_7  and  S_8
REMARK    3  A    between atoms: S_8  and  C_11
REMARK    4  A    between atoms: C_14  and  N_15
REMARK    5  A    between atoms: C_16  and  C_18
REMARK    6  A    between atoms: C_18  and  C_19
REMARK                            x       y       z     vdW  Elec       q    Type
REMARK                         _______ _______ _______ _____ _____    ______ ____
ROOT
ATOM      1  C   UNL     1       1.372   9.483  19.279  0.00  0.00    +0.000 A 
ATOM      2  C   UNL     1       1.496   8.429  20.181  0.00  0.00    +0.000 A 
ATOM      3  C   UNL     1       2.117   7.248  19.795  0.00  0.00    +0.000 A 
ATOM      4  C   UNL     1       2.559   7.069  18.485  0.00  0.00    +0.000 A 
ATOM      5  C   UNL     1       2.421   8.128  17.574  0.00  0.00    +0.000 A 
ATOM      6  C   UNL     1       1.822   9.338  17.966  0.00  0.00    +0.000 A 
ENDROOT
BRANCH   4   7
ATOM      7  N   UNL     1       3.133   5.854  18.047  0.00  0.00    +0.000 N 
ATOM      8  C   UNL     1       4.126   5.148  18.717  0.00  0.00    +0.000 C 
ATOM      9  O   UNL     1       4.619   5.443  19.805  0.00  0.00    +0.000 OA
ATOM     10  H   UNL     1       2.717   5.425  17.231  0.00  0.00    +0.000 HD
BRANCH   8  11
ATOM     11  C   UNL     1       4.615   3.907  17.988  0.00  0.00    +0.000 C 
BRANCH  11  12
ATOM     12  C   UNL     1       5.496   4.245  16.808  0.00  0.00    +0.000 A 
ATOM     13  C   UNL     1       6.630   5.059  16.969  0.00  0.00    +0.000 A 
ATOM     14  C   UNL     1       7.413   5.412  15.869  0.00  0.00    +0.000 A 
ATOM     15  C   UNL     1       7.073   4.943  14.604  0.00  0.00    +0.000 A 
ATOM     16  F   UNL     1       7.822   5.316  13.556  0.00  0.00    +0.000 F 
ATOM     17  C   UNL     1       5.973   4.108  14.432  0.00  0.00    +0.000 A 
ATOM     18 CL   UNL     1       5.550   3.518  12.872  0.00  0.00    +0.000 Cl
ATOM     19  C   UNL     1       5.188   3.751  15.532  0.00  0.00    +0.000 A 
ENDBRANCH  11  12
ENDBRANCH   8  11
ENDBRANCH   4   7
BRANCH   1  20
ATOM     20  S   UNL     1       0.617  10.978  19.852  0.00  0.00    +0.000 S 
ATOM     21  O   UNL     1       1.455  11.541  20.888  0.00  0.00    +0.000 OA
ATOM     22  O   UNL     1      -0.785  10.704  20.105  0.00  0.00    +0.000 OA
BRANCH  20  27
ATOM     23  C   UNL     1       2.490  15.260  18.954  0.00  0.00    +0.000 A 
ATOM     24  C   UNL     1       3.257  14.321  18.295  0.00  0.00    +0.000 A 
ATOM     25  N   UNL     1       2.647  13.091  18.094  0.00  0.00    +0.000 NA
ATOM     26  C   UNL     1       1.446  13.113  18.616  0.00  0.00    +0.000 A 
ATOM     27  N   UNL     1       0.627  11.967  18.475  0.00  0.00    +0.000 N 
ATOM     28  S   UNL     1       0.935  14.607  19.273  0.00  0.00    +0.000 S 
ATOM     29  H   UNL     1      -0.341  12.142  18.221  0.00  0.00    +0.000 HD
BRANCH  23  31
ATOM     30  N   UNL     1       3.291  17.635  19.593  0.00  0.00    +0.000 NA
ATOM     31  C   UNL     1       2.921  16.574  19.291  0.00  0.00    +0.000 C 
ENDBRANCH  23  31
ENDBRANCH  20  27
ENDBRANCH   1  20
TORSDOF 6
ENDMDL
MODEL 9
REMARK VINA RESULT:      -8.0      5.629      8.959
REMARK  Name = 
REMARK  6 active torsions:
REMARK  status: ('A' for Active; 'I' for Inactive)
REMARK    1  A    between atoms: C_2  and  C_3
REMARK    2  A    between atoms: N_7  and  S_8
REMARK    3  A    between atoms: S_8  and  C_11
REMARK    4  A    between atoms: C_14  and  N_15
REMARK    5  A    between atoms: C_16  and  C_18
REMARK    6  A    between atoms: C_18  and  C_19
REMARK                            x       y       z     vdW  Elec       q    Type
REMARK                         _______ _______ _______ _____ _____    ______ ____
ROOT
ATOM      1  C   UNL     1       0.757  10.040  19.411  0.00  0.00    +0.000 A 
ATOM      2  C   UNL     1       0.831   9.234  20.543  0.00  0.00    +0.000 A 
ATOM      3  C   UNL     1       1.495   8.014  20.491  0.00  0.00    +0.000 A 
ATOM      4  C   UNL     1       2.030   7.544  19.293  0.00  0.00    +0.000 A 
ATOM      5  C   UNL     1       1.942   8.353  18.149  0.00  0.00    +0.000 A 
ATOM      6  C   UNL     1       1.301   9.602  18.202  0.00  0.00    +0.000 A 
ENDROOT
BRANCH   4   7
ATOM      7  N   UNL     1       2.650   6.278  19.195  0.00  0.00    +0.000 N 
ATOM      8  C   UNL     1       2.215   5.119  19.830  0.00  0.00    +0.000 C 
ATOM      9  O   UNL     1       1.208   5.009  20.527  0.00  0.00    +0.000 OA
ATOM     10  H   UNL     1       3.414   6.197  18.536  0.00  0.00    +0.000 HD
BRANCH   8  11
ATOM     11  C   UNL     1       3.108   3.909  19.610  0.00  0.00    +0.000 C 
BRANCH  11  12
ATOM     12  C   UNL     1       4.255   4.205  18.673  0.00  0.00    +0.000 A 
ATOM     13  C   UNL     1       4.196   3.818  17.323  0.00  0.00    +0.000 A 
ATOM     14  C   UNL     1       5.278   4.047  16.471  0.00  0.00    +0.000 A 
ATOM     15  C   UNL     1       6.419   4.674  16.961  0.00  0.00    +0.000 A 
ATOM     16  F   UNL     1       7.458   4.860  16.134  0.00  0.00    +0.000 F 
ATOM     17  C   UNL     1       6.480   5.095  18.286  0.00  0.00    +0.000 A 
ATOM     18 CL   UNL     1       7.885   5.878  18.898  0.00  0.00    +0.000 Cl
ATOM     19  C   UNL     1       5.398   4.869  19.141  0.00  0.00    +0.000 A 
ENDBRANCH  11  12
ENDBRANCH   8  11
ENDBRANCH   4   7
BRANCH   1  20
ATOM     20  S   UNL     1      -0.056  11.606  19.561  0.00  0.00    +0.000 S 
ATOM     21  O   UNL     1       0.411  12.245  20.771  0.00  0.00    +0.000 OA
ATOM     22  O   UNL     1      -1.474  11.396  19.339  0.00  0.00    +0.000 OA
BRANCH  20  27
ATOM     23  C   UNL     1       2.874  15.312  18.992  0.00  0.00    +0.000 A 
ATOM     24  C   UNL     1       3.541  14.182  18.564  0.00  0.00    +0.000 A 
ATOM     25  N   UNL     1       2.733  13.094  18.265  0.00  0.00    +0.000 NA
ATOM     26  C   UNL     1       1.481  13.409  18.487  0.00  0.00    +0.000 A 
ATOM     27  N   UNL     1       0.480  12.451  18.194  0.00  0.00    +0.000 N 
ATOM     28  S   UNL     1       1.182  15.026  18.956  0.00  0.00    +0.000 S 
ATOM     29  H   UNL     1      -0.342  12.803  17.713  0.00  0.00    +0.000 HD
BRANCH  23  31
ATOM     30  N   UNL     1       4.026  17.510  19.720  0.00  0.00    +0.000 NA
ATOM     31  C   UNL     1       3.500  16.530  19.378  0.00  0.00    +0.000 C 
ENDBRANCH  23  31
ENDBRANCH  20  27
ENDBRANCH   1  20
TORSDOF 6
ENDMDL
