MODEL 1
REMARK VINA RESULT:      -7.5      0.000      0.000
REMARK  Name = 
REMARK  2 active torsions:
REMARK  status: ('A' for Active; 'I' for Inactive)
REMARK    1  A    between atoms: C_7  and  C_8
REMARK    2  A    between atoms: N_13  and  C_14
REMARK                            x       y       z     vdW  Elec       q    Type
REMARK                         _______ _______ _______ _____ _____    ______ ____
ROOT
ATOM      1  C   UNL     1      -3.857  11.289  17.217  0.00  0.00    +0.000 A 
ATOM      2  C   UNL     1      -3.368  10.483  16.159  0.00  0.00    +0.000 A 
ATOM      3  N   UNL     1      -2.114  10.053  16.369  0.00  0.00    +0.000 NA
ATOM      4  N   UNL     1      -1.823  10.582  17.584  0.00  0.00    +0.000 N 
ATOM      5  C   UNL     1      -0.601  10.442  18.246  0.00  0.00    +0.000 A 
ATOM      6  N   UNL     1       0.404   9.750  17.598  0.00  0.00    +0.000 N 
ATOM      7  N   UNL     1      -0.481  10.986  19.424  0.00  0.00    +0.000 NA
ATOM      8  C   UNL     1      -1.542  11.665  19.994  0.00  0.00    +0.000 A 
ATOM      9  N   UNL     1      -1.367  12.181  21.264  0.00  0.00    +0.000 N 
ATOM     10  C   UNL     1      -2.451  12.839  21.993  0.00  0.00    +0.000 C 
ATOM     11  C   UNL     1      -2.206  14.337  22.181  0.00  0.00    +0.000 C 
ATOM     12  C   UNL     1      -1.088  14.604  23.184  0.00  0.00    +0.000 C 
ATOM     13  O   UNL     1       0.231  14.627  22.646  0.00  0.00    +0.000 OA
ATOM     14  C   UNL     1       0.549  13.670  21.634  0.00  0.00    +0.000 C 
ATOM     15  C   UNL     1      -0.030  12.270  21.864  0.00  0.00    +0.000 C 
ATOM     16  N   UNL     1      -2.684  11.837  19.376  0.00  0.00    +0.000 NA
ATOM     17  C   UNL     1      -2.841  11.293  18.145  0.00  0.00    +0.000 A 
ATOM     18  H   UNL     1       0.124   9.324  16.715  0.00  0.00    +0.000 HD
ENDROOT
BRANCH   1  25
ATOM     19  O   UNL     1      -7.357  10.298  21.097  0.00  0.00    +0.000 OA
ATOM     20  C   UNL     1      -7.097  10.976  20.120  0.00  0.00    +0.000 C 
ATOM     21  N   UNL     1      -7.909  11.921  19.549  0.00  0.00    +0.000 N 
ATOM     22  C   UNL     1      -7.354  12.438  18.409  0.00  0.00    +0.000 C 
ATOM     23  O   UNL     1      -7.835  13.249  17.642  0.00  0.00    +0.000 OA
ATOM     24  C   UNL     1      -6.028  11.759  18.295  0.00  0.00    +0.000 C 
ATOM     25  C   UNL     1      -5.121  11.952  17.327  0.00  0.00    +0.000 C 
ATOM     26  N   UNL     1      -5.946  10.915  19.366  0.00  0.00    +0.000 N 
ATOM     27  H   UNL     1      -8.828  12.144  19.890  0.00  0.00    +0.000 HD
ATOM     28  H   UNL     1      -5.205  10.237  19.508  0.00  0.00    +0.000 HD
ENDBRANCH   1  25
BRANCH   6  29
ATOM     29  C   UNL     1       1.488   9.170  18.384  0.00  0.00    +0.000 C 
ATOM     30  C   UNL     1       1.830   7.710  18.284  0.00  0.00    +0.000 C 
ATOM     31  C   UNL     1       2.765   8.740  17.722  0.00  0.00    +0.000 C 
ENDBRANCH   6  29
TORSDOF 2
ENDMDL
MODEL 2
REMARK VINA RESULT:      -7.3      2.780      4.406
REMARK  Name = 
REMARK  2 active torsions:
REMARK  status: ('A' for Active; 'I' for Inactive)
REMARK    1  A    between atoms: C_7  and  C_8
REMARK    2  A    between atoms: N_13  and  C_14
REMARK                            x       y       z     vdW  Elec       q    Type
REMARK                         _______ _______ _______ _____ _____    ______ ____
ROOT
ATOM      1  C   UNL     1      -6.705  13.196  19.816  0.00  0.00    +0.000 A 
ATOM      2  C   UNL     1      -7.585  12.769  18.791  0.00  0.00    +0.000 A 
ATOM      3  N   UNL     1      -6.954  12.119  17.800  0.00  0.00    +0.000 NA
ATOM      4  N   UNL     1      -5.665  12.124  18.223  0.00  0.00    +0.000 N 
ATOM      5  C   UNL     1      -4.589  11.582  17.515  0.00  0.00    +0.000 A 
ATOM      6  N   UNL     1      -4.847  11.038  16.272  0.00  0.00    +0.000 N 
ATOM      7  N   UNL     1      -3.409  11.638  18.065  0.00  0.00    +0.000 NA
ATOM      8  C   UNL     1      -3.243  12.207  19.315  0.00  0.00    +0.000 A 
ATOM      9  N   UNL     1      -1.976  12.196  19.863  0.00  0.00    +0.000 N 
ATOM     10  C   UNL     1      -1.707  12.691  21.214  0.00  0.00    +0.000 C 
ATOM     11  C   UNL     1      -0.865  13.967  21.213  0.00  0.00    +0.000 C 
ATOM     12  C   UNL     1       0.578  13.691  20.801  0.00  0.00    +0.000 C 
ATOM     13  O   UNL     1       0.837  13.721  19.402  0.00  0.00    +0.000 OA
ATOM     14  C   UNL     1      -0.152  13.163  18.534  0.00  0.00    +0.000 C 
ATOM     15  C   UNL     1      -0.802  11.872  19.043  0.00  0.00    +0.000 C 
ATOM     16  N   UNL     1      -4.233  12.751  19.979  0.00  0.00    +0.000 NA
ATOM     17  C   UNL     1      -5.472  12.720  19.433  0.00  0.00    +0.000 A 
ATOM     18  H   UNL     1      -5.835  11.005  16.020  0.00  0.00    +0.000 HD
ENDROOT
BRANCH   1  25
ATOM     19  O   UNL     1      -4.960  11.852  24.657  0.00  0.00    +0.000 OA
ATOM     20  C   UNL     1      -5.573  12.669  23.995  0.00  0.00    +0.000 C 
ATOM     21  N   UNL     1      -6.225  13.775  24.473  0.00  0.00    +0.000 N 
ATOM     22  C   UNL     1      -6.892  14.437  23.476  0.00  0.00    +0.000 C 
ATOM     23  O   UNL     1      -7.605  15.416  23.573  0.00  0.00    +0.000 OA
ATOM     24  C   UNL     1      -6.573  13.667  22.236  0.00  0.00    +0.000 C 
ATOM     25  C   UNL     1      -7.005  13.946  20.998  0.00  0.00    +0.000 C 
ATOM     26  N   UNL     1      -5.766  12.638  22.632  0.00  0.00    +0.000 N 
ATOM     27  H   UNL     1      -6.266  14.019  25.448  0.00  0.00    +0.000 HD
ATOM     28  H   UNL     1      -5.468  11.877  22.029  0.00  0.00    +0.000 HD
ENDBRANCH   1  25
BRANCH   6  29
ATOM     29  C   UNL     1      -3.914  10.065  15.715  0.00  0.00    +0.000 C 
ATOM     30  C   UNL     1      -3.715   9.936  14.230  0.00  0.00    +0.000 C 
ATOM     31  C   UNL     1      -2.628  10.517  15.085  0.00  0.00    +0.000 C 
ENDBRANCH   6  29
TORSDOF 2
ENDMDL
MODEL 3
REMARK VINA RESULT:      -7.2      2.840      6.020
REMARK  Name = 
REMARK  2 active torsions:
REMARK  status: ('A' for Active; 'I' for Inactive)
REMARK    1  A    between atoms: C_7  and  C_8
REMARK    2  A    between atoms: N_13  and  C_14
REMARK                            x       y       z     vdW  Elec       q    Type
REMARK                         _______ _______ _______ _____ _____    ______ ____
ROOT
ATOM      1  C   UNL     1      -5.808  11.906  17.966  0.00  0.00    +0.000 A 
ATOM      2  C   UNL     1      -7.187  12.040  18.265  0.00  0.00    +0.000 A 
ATOM      3  N   UNL     1      -7.414  12.340  19.553  0.00  0.00    +0.000 NA
ATOM      4  N   UNL     1      -6.159  12.416  20.061  0.00  0.00    +0.000 N 
ATOM      5  C   UNL     1      -5.851  12.683  21.398  0.00  0.00    +0.000 A 
ATOM      6  N   UNL     1      -6.903  12.841  22.279  0.00  0.00    +0.000 N 
ATOM      7  N   UNL     1      -4.593  12.752  21.731  0.00  0.00    +0.000 NA
ATOM      8  C   UNL     1      -3.605  12.577  20.779  0.00  0.00    +0.000 A 
ATOM      9  N   UNL     1      -2.291  12.706  21.186  0.00  0.00    +0.000 N 
ATOM     10  C   UNL     1      -1.173  12.627  20.245  0.00  0.00    +0.000 C 
ATOM     11  C   UNL     1      -0.315  11.380  20.458  0.00  0.00    +0.000 C 
ATOM     12  C   UNL     1       0.501  11.469  21.744  0.00  0.00    +0.000 C 
ATOM     13  O   UNL     1      -0.154  11.013  22.923  0.00  0.00    +0.000 OA
ATOM     14  C   UNL     1      -1.541  11.322  23.070  0.00  0.00    +0.000 C 
ATOM     15  C   UNL     1      -1.942  12.728  22.612  0.00  0.00    +0.000 C 
ATOM     16  N   UNL     1      -3.872  12.292  19.529  0.00  0.00    +0.000 NA
ATOM     17  C   UNL     1      -5.170  12.203  19.149  0.00  0.00    +0.000 A 
ATOM     18  H   UNL     1      -7.826  12.832  21.845  0.00  0.00    +0.000 HD
ENDROOT
BRANCH   1  25
ATOM     19  O   UNL     1      -1.024   9.610  17.618  0.00  0.00    +0.000 OA
ATOM     20  C   UNL     1      -2.003  10.001  17.010  0.00  0.00    +0.000 C 
ATOM     21  N   UNL     1      -2.164  10.008  15.649  0.00  0.00    +0.000 N 
ATOM     22  C   UNL     1      -3.345  10.598  15.285  0.00  0.00    +0.000 C 
ATOM     23  O   UNL     1      -3.763  10.810  14.164  0.00  0.00    +0.000 OA
ATOM     24  C   UNL     1      -4.001  10.955  16.579  0.00  0.00    +0.000 C 
ATOM     25  C   UNL     1      -5.191  11.556  16.724  0.00  0.00    +0.000 C 
ATOM     26  N   UNL     1      -3.141  10.549  17.559  0.00  0.00    +0.000 N 
ATOM     27  H   UNL     1      -1.463   9.686  15.004  0.00  0.00    +0.000 HD
ATOM     28  H   UNL     1      -3.259  10.749  18.548  0.00  0.00    +0.000 HD
ENDBRANCH   1  25
BRANCH   6  29
ATOM     29  C   UNL     1      -6.684  13.568  23.525  0.00  0.00    +0.000 C 
ATOM     30  C   UNL     1      -7.202  14.967  23.713  0.00  0.00    +0.000 C 
ATOM     31  C   UNL     1      -7.823  13.829  24.467  0.00  0.00    +0.000 C 
ENDBRANCH   6  29
TORSDOF 2
ENDMDL
MODEL 4
REMARK VINA RESULT:      -7.1      5.002      8.269
REMARK  Name = 
REMARK  2 active torsions:
REMARK  status: ('A' for Active; 'I' for Inactive)
REMARK    1  A    between atoms: C_7  and  C_8
REMARK    2  A    between atoms: N_13  and  C_14
REMARK                            x       y       z     vdW  Elec       q    Type
REMARK                         _______ _______ _______ _____ _____    ______ ____
ROOT
ATOM      1  C   UNL     1       2.104   8.538  18.695  0.00  0.00    +0.000 A 
ATOM      2  C   UNL     1       2.798   9.226  17.668  0.00  0.00    +0.000 A 
ATOM      3  N   UNL     1       3.614   8.425  16.964  0.00  0.00    +0.000 NA
ATOM      4  N   UNL     1       3.412   7.217  17.548  0.00  0.00    +0.000 N 
ATOM      5  C   UNL     1       4.063   6.035  17.186  0.00  0.00    +0.000 A 
ATOM      6  N   UNL     1       5.016   6.107  16.188  0.00  0.00    +0.000 N 
ATOM      7  N   UNL     1       3.742   4.944  17.822  0.00  0.00    +0.000 NA
ATOM      8  C   UNL     1       2.777   4.968  18.812  0.00  0.00    +0.000 A 
ATOM      9  N   UNL     1       2.449   3.770  19.418  0.00  0.00    +0.000 N 
ATOM     10  C   UNL     1       1.381   3.668  20.413  0.00  0.00    +0.000 C 
ATOM     11  C   UNL     1       1.911   3.351  21.811  0.00  0.00    +0.000 C 
ATOM     12  C   UNL     1       2.425   1.918  21.908  0.00  0.00    +0.000 C 
ATOM     13  O   UNL     1       3.784   1.722  21.532  0.00  0.00    +0.000 OA
ATOM     14  C   UNL     1       4.272   2.459  20.409  0.00  0.00    +0.000 C 
ATOM     15  C   UNL     1       3.289   2.580  19.240  0.00  0.00    +0.000 C 
ATOM     16  N   UNL     1       2.179   6.071  19.189  0.00  0.00    +0.000 NA
ATOM     17  C   UNL     1       2.496   7.226  18.556  0.00  0.00    +0.000 A 
ATOM     18  H   UNL     1       5.095   7.021  15.742  0.00  0.00    +0.000 HD
ENDROOT
BRANCH   1  25
ATOM     19  O   UNL     1      -1.607  12.174  17.556  0.00  0.00    +0.000 OA
ATOM     20  C   UNL     1      -1.136  11.444  18.409  0.00  0.00    +0.000 C 
ATOM     21  N   UNL     1      -1.518  11.380  19.723  0.00  0.00    +0.000 N 
ATOM     22  C   UNL     1      -0.727  10.519  20.436  0.00  0.00    +0.000 C 
ATOM     23  O   UNL     1      -0.765  10.277  21.626  0.00  0.00    +0.000 OA
ATOM     24  C   UNL     1       0.222   9.959  19.427  0.00  0.00    +0.000 C 
ATOM     25  C   UNL     1       1.190   9.062  19.663  0.00  0.00    +0.000 C 
ATOM     26  N   UNL     1      -0.102  10.550  18.239  0.00  0.00    +0.000 N 
ATOM     27  H   UNL     1      -2.241  11.955  20.121  0.00  0.00    +0.000 HD
ATOM     28  H   UNL     1       0.434  10.452  17.382  0.00  0.00    +0.000 HD
ENDBRANCH   1  25
BRANCH   6  29
ATOM     29  C   UNL     1       5.370   4.897  15.455  0.00  0.00    +0.000 C 
ATOM     30  C   UNL     1       6.466   4.899  14.427  0.00  0.00    +0.000 C 
ATOM     31  C   UNL     1       6.663   4.187  15.732  0.00  0.00    +0.000 C 
ENDBRANCH   6  29
TORSDOF 2
ENDMDL
MODEL 5
REMARK VINA RESULT:      -7.0      2.662      6.592
REMARK  Name = 
REMARK  2 active torsions:
REMARK  status: ('A' for Active; 'I' for Inactive)
REMARK    1  A    between atoms: C_7  and  C_8
REMARK    2  A    between atoms: N_13  and  C_14
REMARK                            x       y       z     vdW  Elec       q    Type
REMARK                         _______ _______ _______ _____ _____    ______ ____
ROOT
ATOM      1  C   UNL     1      -2.462  10.615  17.364  0.00  0.00    +0.000 A 
ATOM      2  C   UNL     1      -3.114  10.512  16.110  0.00  0.00    +0.000 A 
ATOM      3  N   UNL     1      -4.297  11.149  16.085  0.00  0.00    +0.000 NA
ATOM      4  N   UNL     1      -4.373  11.672  17.334  0.00  0.00    +0.000 N 
ATOM      5  C   UNL     1      -5.448  12.417  17.825  0.00  0.00    +0.000 A 
ATOM      6  N   UNL     1      -6.536  12.599  16.992  0.00  0.00    +0.000 N 
ATOM      7  N   UNL     1      -5.365  12.878  19.041  0.00  0.00    +0.000 NA
ATOM      8  C   UNL     1      -4.236  12.642  19.805  0.00  0.00    +0.000 A 
ATOM      9  N   UNL     1      -4.189  13.195  21.070  0.00  0.00    +0.000 N 
ATOM     10  C   UNL     1      -3.008  13.081  21.926  0.00  0.00    +0.000 C 
ATOM     11  C   UNL     1      -3.256  12.203  23.152  0.00  0.00    +0.000 C 
ATOM     12  C   UNL     1      -4.178  12.885  24.158  0.00  0.00    +0.000 C 
ATOM     13  O   UNL     1      -5.573  12.692  23.947  0.00  0.00    +0.000 OA
ATOM     14  C   UNL     1      -6.045  12.701  22.599  0.00  0.00    +0.000 C 
ATOM     15  C   UNL     1      -5.395  13.753  21.694  0.00  0.00    +0.000 C 
ATOM     16  N   UNL     1      -3.233  11.918  19.376  0.00  0.00    +0.000 NA
ATOM     17  C   UNL     1      -3.290  11.413  18.119  0.00  0.00    +0.000 A 
ATOM     18  H   UNL     1      -6.411  12.238  16.047  0.00  0.00    +0.000 HD
ENDROOT
BRANCH   1  25
ATOM     19  O   UNL     1       1.763  13.496  18.823  0.00  0.00    +0.000 OA
ATOM     20  C   UNL     1       1.298  12.379  18.698  0.00  0.00    +0.000 C 
ATOM     21  N   UNL     1       1.956  11.196  18.913  0.00  0.00    +0.000 N 
ATOM     22  C   UNL     1       1.173  10.119  18.595  0.00  0.00    +0.000 C 
ATOM     23  O   UNL     1       1.471   8.941  18.620  0.00  0.00    +0.000 OA
ATOM     24  C   UNL     1      -0.132  10.714  18.176  0.00  0.00    +0.000 C 
ATOM     25  C   UNL     1      -1.219  10.038  17.776  0.00  0.00    +0.000 C 
ATOM     26  N   UNL     1       0.022  12.067  18.283  0.00  0.00    +0.000 N 
ATOM     27  H   UNL     1       2.919  11.140  19.198  0.00  0.00    +0.000 HD
ATOM     28  H   UNL     1      -0.660  12.750  17.967  0.00  0.00    +0.000 HD
ENDBRANCH   1  25
BRANCH   6  29
ATOM     29  C   UNL     1      -7.440  13.717  17.240  0.00  0.00    +0.000 C 
ATOM     30  C   UNL     1      -6.971  15.141  17.126  0.00  0.00    +0.000 C 
ATOM     31  C   UNL     1      -7.917  14.578  16.106  0.00  0.00    +0.000 C 
ENDBRANCH   6  29
TORSDOF 2
ENDMDL
MODEL 6
REMARK VINA RESULT:      -7.0      4.813      7.732
REMARK  Name = 
REMARK  2 active torsions:
REMARK  status: ('A' for Active; 'I' for Inactive)
REMARK    1  A    between atoms: C_7  and  C_8
REMARK    2  A    between atoms: N_13  and  C_14
REMARK                            x       y       z     vdW  Elec       q    Type
REMARK                         _______ _______ _______ _____ _____    ______ ____
ROOT
ATOM      1  C   UNL     1       0.960   8.700  20.700  0.00  0.00    +0.000 A 
ATOM      2  C   UNL     1       0.151   8.150  21.725  0.00  0.00    +0.000 A 
ATOM      3  N   UNL     1      -0.582   9.077  22.364  0.00  0.00    +0.000 NA
ATOM      4  N   UNL     1      -0.239  10.218  21.715  0.00  0.00    +0.000 N 
ATOM      5  C   UNL     1      -0.720  11.492  22.027  0.00  0.00    +0.000 A 
ATOM      6  N   UNL     1      -1.577  11.607  23.105  0.00  0.00    +0.000 N 
ATOM      7  N   UNL     1      -0.319  12.491  21.293  0.00  0.00    +0.000 NA
ATOM      8  C   UNL     1       0.544  12.281  20.233  0.00  0.00    +0.000 A 
ATOM      9  N   UNL     1       0.897  13.374  19.465  0.00  0.00    +0.000 N 
ATOM     10  C   UNL     1       1.733  13.249  18.271  0.00  0.00    +0.000 C 
ATOM     11  C   UNL     1       3.108  13.893  18.448  0.00  0.00    +0.000 C 
ATOM     12  C   UNL     1       3.017  15.416  18.481  0.00  0.00    +0.000 C 
ATOM     13  O   UNL     1       2.770  15.992  19.760  0.00  0.00    +0.000 OA
ATOM     14  C   UNL     1       1.851  15.317  20.622  0.00  0.00    +0.000 C 
ATOM     15  C   UNL     1       0.616  14.739  19.924  0.00  0.00    +0.000 C 
ATOM     16  N   UNL     1       1.033  11.100  19.945  0.00  0.00    +0.000 NA
ATOM     17  C   UNL     1       0.646  10.040  20.694  0.00  0.00    +0.000 A 
ATOM     18  H   UNL     1      -1.850  10.720  23.527  0.00  0.00    +0.000 HD
ENDROOT
BRANCH   1  25
ATOM     19  O   UNL     1       2.429   3.629  21.344  0.00  0.00    +0.000 OA
ATOM     20  C   UNL     1       2.525   4.629  20.656  0.00  0.00    +0.000 C 
ATOM     21  N   UNL     1       3.323   4.781  19.553  0.00  0.00    +0.000 N 
ATOM     22  C   UNL     1       3.264   6.058  19.062  0.00  0.00    +0.000 C 
ATOM     23  O   UNL     1       3.887   6.534  18.133  0.00  0.00    +0.000 OA
ATOM     24  C   UNL     1       2.281   6.755  19.945  0.00  0.00    +0.000 C 
ATOM     25  C   UNL     1       1.894   8.035  19.843  0.00  0.00    +0.000 C 
ATOM     26  N   UNL     1       1.874   5.825  20.859  0.00  0.00    +0.000 N 
ATOM     27  H   UNL     1       3.930   4.061  19.201  0.00  0.00    +0.000 HD
ATOM     28  H   UNL     1       1.284   6.027  21.661  0.00  0.00    +0.000 HD
ENDBRANCH   1  25
BRANCH   6  29
ATOM     29  C   UNL     1      -2.460  12.765  23.189  0.00  0.00    +0.000 C 
ATOM     30  C   UNL     1      -3.847  12.732  22.609  0.00  0.00    +0.000 C 
ATOM     31  C   UNL     1      -3.656  12.748  24.096  0.00  0.00    +0.000 C 
ENDBRANCH   6  29
TORSDOF 2
ENDMDL
MODEL 7
REMARK VINA RESULT:      -6.8      1.216      1.284
REMARK  Name = 
REMARK  2 active torsions:
REMARK  status: ('A' for Active; 'I' for Inactive)
REMARK    1  A    between atoms: C_7  and  C_8
REMARK    2  A    between atoms: N_13  and  C_14
REMARK                            x       y       z     vdW  Elec       q    Type
REMARK                         _______ _______ _______ _____ _____    ______ ____
ROOT
ATOM      1  C   UNL     1      -3.992  11.322  17.649  0.00  0.00    +0.000 A 
ATOM      2  C   UNL     1      -3.655  10.215  16.832  0.00  0.00    +0.000 A 
ATOM      3  N   UNL     1      -2.365   9.860  16.941  0.00  0.00    +0.000 NA
ATOM      4  N   UNL     1      -1.895  10.746  17.854  0.00  0.00    +0.000 N 
ATOM      5  C   UNL     1      -0.572  10.810  18.299  0.00  0.00    +0.000 A 
ATOM      6  N   UNL     1       0.338   9.936  17.736  0.00  0.00    +0.000 N 
ATOM      7  N   UNL     1      -0.276  11.701  19.203  0.00  0.00    +0.000 NA
ATOM      8  C   UNL     1      -1.253  12.539  19.708  0.00  0.00    +0.000 A 
ATOM      9  N   UNL     1      -0.887  13.430  20.698  0.00  0.00    +0.000 N 
ATOM     10  C   UNL     1      -1.859  14.300  21.361  0.00  0.00    +0.000 C 
ATOM     11  C   UNL     1      -1.654  15.776  21.020  0.00  0.00    +0.000 C 
ATOM     12  C   UNL     1      -0.394  16.336  21.671  0.00  0.00    +0.000 C 
ATOM     13  O   UNL     1       0.811  16.172  20.929  0.00  0.00    +0.000 OA
ATOM     14  C   UNL     1       0.994  14.938  20.232  0.00  0.00    +0.000 C 
ATOM     15  C   UNL     1       0.527  13.691  20.991  0.00  0.00    +0.000 C 
ATOM     16  N   UNL     1      -2.491  12.517  19.280  0.00  0.00    +0.000 NA
ATOM     17  C   UNL     1      -2.832  11.611  18.333  0.00  0.00    +0.000 A 
ATOM     18  H   UNL     1      -0.069   9.253  17.097  0.00  0.00    +0.000 HD
ENDROOT
BRANCH   1  25
ATOM     19  O   UNL     1      -6.482  12.094  22.285  0.00  0.00    +0.000 OA
ATOM     20  C   UNL     1      -6.492  12.305  21.086  0.00  0.00    +0.000 C 
ATOM     21  N   UNL     1      -7.476  12.949  20.383  0.00  0.00    +0.000 N 
ATOM     22  C   UNL     1      -7.221  12.938  19.037  0.00  0.00    +0.000 C 
ATOM     23  O   UNL     1      -7.916  13.373  18.139  0.00  0.00    +0.000 OA
ATOM     24  C   UNL     1      -5.905  12.243  18.909  0.00  0.00    +0.000 C 
ATOM     25  C   UNL     1      -5.247  12.000  17.767  0.00  0.00    +0.000 C 
ATOM     26  N   UNL     1      -5.531  11.913  20.180  0.00  0.00    +0.000 N 
ATOM     27  H   UNL     1      -8.313  13.313  20.804  0.00  0.00    +0.000 HD
ATOM     28  H   UNL     1      -4.728  11.336  20.412  0.00  0.00    +0.000 HD
ENDBRANCH   1  25
BRANCH   6  29
ATOM     29  C   UNL     1       1.566   9.625  18.459  0.00  0.00    +0.000 C 
ATOM     30  C   UNL     1       1.757   8.298  19.139  0.00  0.00    +0.000 C 
ATOM     31  C   UNL     1       2.546   8.631  17.907  0.00  0.00    +0.000 C 
ENDBRANCH   6  29
TORSDOF 2
ENDMDL
MODEL 8
REMARK VINA RESULT:      -6.7      1.195      1.267
REMARK  Name = 
REMARK  2 active torsions:
REMARK  status: ('A' for Active; 'I' for Inactive)
REMARK    1  A    between atoms: C_7  and  C_8
REMARK    2  A    between atoms: N_13  and  C_14
REMARK                            x       y       z     vdW  Elec       q    Type
REMARK                         _______ _______ _______ _____ _____    ______ ____
ROOT
ATOM      1  C   UNL     1      -3.393  11.173  17.358  0.00  0.00    +0.000 A 
ATOM      2  C   UNL     1      -2.715  10.181  16.607  0.00  0.00    +0.000 A 
ATOM      3  N   UNL     1      -1.587   9.758  17.201  0.00  0.00    +0.000 NA
ATOM      4  N   UNL     1      -1.573  10.482  18.348  0.00  0.00    +0.000 N 
ATOM      5  C   UNL     1      -0.569  10.423  19.318  0.00  0.00    +0.000 A 
ATOM      6  N   UNL     1       0.514   9.600  19.073  0.00  0.00    +0.000 N 
ATOM      7  N   UNL     1      -0.708  11.160  20.384  0.00  0.00    +0.000 NA
ATOM      8  C   UNL     1      -1.826  11.958  20.543  0.00  0.00    +0.000 A 
ATOM      9  N   UNL     1      -1.938  12.681  21.715  0.00  0.00    +0.000 N 
ATOM     10  C   UNL     1      -3.120  13.488  22.023  0.00  0.00    +0.000 C 
ATOM     11  C   UNL     1      -2.822  14.987  22.025  0.00  0.00    +0.000 C 
ATOM     12  C   UNL     1      -1.974  15.392  23.227  0.00  0.00    +0.000 C 
ATOM     13  O   UNL     1      -0.564  15.284  23.053  0.00  0.00    +0.000 OA
ATOM     14  C   UNL     1      -0.073  14.157  22.325  0.00  0.00    +0.000 C 
ATOM     15  C   UNL     1      -0.791  12.835  22.618  0.00  0.00    +0.000 C 
ATOM     16  N   UNL     1      -2.762  12.053  19.631  0.00  0.00    +0.000 NA
ATOM     17  C   UNL     1      -2.644  11.309  18.505  0.00  0.00    +0.000 A 
ATOM     18  H   UNL     1       0.434   9.036  18.228  0.00  0.00    +0.000 HD
ENDROOT
BRANCH   1  25
ATOM     19  O   UNL     1      -7.647  11.368  20.544  0.00  0.00    +0.000 OA
ATOM     20  C   UNL     1      -7.146  11.752  19.503  0.00  0.00    +0.000 C 
ATOM     21  N   UNL     1      -7.749  12.534  18.553  0.00  0.00    +0.000 N 
ATOM     22  C   UNL     1      -6.942  12.710  17.460  0.00  0.00    +0.000 C 
ATOM     23  O   UNL     1      -7.195  13.301  16.429  0.00  0.00    +0.000 OA
ATOM     24  C   UNL     1      -5.682  11.983  17.803  0.00  0.00    +0.000 C 
ATOM     25  C   UNL     1      -4.593  11.881  17.029  0.00  0.00    +0.000 C 
ATOM     26  N   UNL     1      -5.882  11.455  19.047  0.00  0.00    +0.000 N 
ATOM     27  H   UNL     1      -8.694  12.870  18.626  0.00  0.00    +0.000 HD
ATOM     28  H   UNL     1      -5.242  10.815  19.509  0.00  0.00    +0.000 HD
ENDBRANCH   1  25
BRANCH   6  29
ATOM     29  C   UNL     1       1.321   9.135  20.195  0.00  0.00    +0.000 C 
ATOM     30  C   UNL     1       0.772   8.161  21.200  0.00  0.00    +0.000 C 
ATOM     31  C   UNL     1       1.833   7.725  20.233  0.00  0.00    +0.000 C 
ENDBRANCH   6  29
TORSDOF 2
ENDMDL
MODEL 9
REMARK VINA RESULT:      -6.7      2.783      4.386
REMARK  Name = 
REMARK  2 active torsions:
REMARK  status: ('A' for Active; 'I' for Inactive)
REMARK    1  A    between atoms: C_7  and  C_8
REMARK    2  A    between atoms: N_13  and  C_14
REMARK                            x       y       z     vdW  Elec       q    Type
REMARK                         _______ _______ _______ _____ _____    ______ ____
ROOT
ATOM      1  C   UNL     1      -6.576  12.157  20.379  0.00  0.00    +0.000 A 
ATOM      2  C   UNL     1      -7.328  11.803  19.232  0.00  0.00    +0.000 A 
ATOM      3  N   UNL     1      -6.564  11.623  18.143  0.00  0.00    +0.000 NA
ATOM      4  N   UNL     1      -5.315  11.848  18.623  0.00  0.00    +0.000 N 
ATOM      5  C   UNL     1      -4.145  11.807  17.860  0.00  0.00    +0.000 A 
ATOM      6  N   UNL     1      -4.270  11.562  16.506  0.00  0.00    +0.000 N 
ATOM      7  N   UNL     1      -3.013  12.018  18.470  0.00  0.00    +0.000 NA
ATOM      8  C   UNL     1      -2.984  12.259  19.831  0.00  0.00    +0.000 A 
ATOM      9  N   UNL     1      -1.749  12.430  20.427  0.00  0.00    +0.000 N 
ATOM     10  C   UNL     1      -1.600  12.604  21.873  0.00  0.00    +0.000 C 
ATOM     11  C   UNL     1      -1.122  14.007  22.248  0.00  0.00    +0.000 C 
ATOM     12  C   UNL     1       0.336  14.230  21.859  0.00  0.00    +0.000 C 
ATOM     13  O   UNL     1       0.557  14.694  20.531  0.00  0.00    +0.000 OA
ATOM     14  C   UNL     1      -0.264  14.148  19.496  0.00  0.00    +0.000 C 
ATOM     15  C   UNL     1      -0.545  12.647  19.617  0.00  0.00    +0.000 C 
ATOM     16  N   UNL     1      -4.071  12.336  20.558  0.00  0.00    +0.000 NA
ATOM     17  C   UNL     1      -5.267  12.132  19.954  0.00  0.00    +0.000 A 
ATOM     18  H   UNL     1      -5.218  11.344  16.200  0.00  0.00    +0.000 HD
ENDROOT
BRANCH   1  25
ATOM     19  O   UNL     1      -4.809  16.288  23.224  0.00  0.00    +0.000 OA
ATOM     20  C   UNL     1      -5.589  15.355  23.176  0.00  0.00    +0.000 C 
ATOM     21  N   UNL     1      -6.450  14.966  24.167  0.00  0.00    +0.000 N 
ATOM     22  C   UNL     1      -7.126  13.824  23.827  0.00  0.00    +0.000 C 
ATOM     23  O   UNL     1      -7.917  13.192  24.500  0.00  0.00    +0.000 OA
ATOM     24  C   UNL     1      -6.652  13.504  22.447  0.00  0.00    +0.000 C 
ATOM     25  C   UNL     1      -7.044  12.465  21.697  0.00  0.00    +0.000 C 
ATOM     26  N   UNL     1      -5.749  14.478  22.126  0.00  0.00    +0.000 N 
ATOM     27  H   UNL     1      -6.515  15.424  25.060  0.00  0.00    +0.000 HD
ATOM     28  H   UNL     1      -5.173  14.475  21.290  0.00  0.00    +0.000 HD
ENDBRANCH   1  25
BRANCH   6  29
ATOM     29  C   UNL     1      -3.122  11.045  15.769  0.00  0.00    +0.000 C 
ATOM     30  C   UNL     1      -2.812   9.574  15.738  0.00  0.00    +0.000 C 
ATOM     31  C   UNL     1      -3.319  10.260  14.504  0.00  0.00    +0.000 C 
ENDBRANCH   6  29
TORSDOF 2
ENDMDL
