MODEL 1
REMARK VINA RESULT:      -8.1      0.000      0.000
REMARK  Name = 
REMARK  6 active torsions:
REMARK  status: ('A' for Active; 'I' for Inactive)
REMARK    1  A    between atoms: C_1  and  O_2
REMARK    2  A    between atoms: O_2  and  C_3
REMARK    3  A    between atoms: C_6  and  N_7
REMARK    4  A    between atoms: C_9  and  C_10
REMARK    5  A    between atoms: C_10  and  O_11
REMARK    6  A    between atoms: O_11  and  C_12
REMARK                            x       y       z     vdW  Elec       q    Type
REMARK                         _______ _______ _______ _____ _____    ______ ____
ROOT
ATOM      1  N   UNL     1       8.428   8.906  18.333  0.00  0.00    +0.000 N 
ATOM      2  C   UNL     1       8.514   7.740  19.055  0.00  0.00    +0.000 A 
ATOM      3  C   UNL     1       7.857   6.796  18.295  0.00  0.00    +0.000 A 
ATOM      4  N   UNL     1       7.369   7.399  17.171  0.00  0.00    +0.000 NA
ATOM      5  N   UNL     1       7.714   8.676  17.200  0.00  0.00    +0.000 NA
ENDROOT
BRANCH   1   9
ATOM      6  C   UNL     1       9.991  12.713  19.314  0.00  0.00    +0.000 A 
ATOM      7  C   UNL     1       9.283  12.528  18.125  0.00  0.00    +0.000 A 
ATOM      8  C   UNL     1       8.758  11.276  17.793  0.00  0.00    +0.000 A 
ATOM      9  C   UNL     1       8.957  10.193  18.645  0.00  0.00    +0.000 A 
ATOM     10  C   UNL     1       9.674  10.370  19.832  0.00  0.00    +0.000 A 
ATOM     11  C   UNL     1      10.197  11.629  20.164  0.00  0.00    +0.000 A 
BRANCH   6  13
ATOM     12  C   UNL     1      11.871  14.117  19.598  0.00  0.00    +0.000 C 
ATOM     13  O   UNL     1      10.456  13.980  19.518  0.00  0.00    +0.000 OA
ENDBRANCH   6  13
ENDBRANCH   1   9
BRANCH   3  14
ATOM     14  C   UNL     1       7.681   5.335  18.535  0.00  0.00    +0.000 C 
BRANCH  14  15
ATOM     15  O   UNL     1       6.952   4.757  17.452  0.00  0.00    +0.000 OA
BRANCH  15  16
ATOM     16  C   UNL     1       5.622   4.502  17.624  0.00  0.00    +0.000 A 
ATOM     17  C   UNL     1       4.969   4.139  16.440  0.00  0.00    +0.000 A 
ATOM     18  C   UNL     1       3.626   3.779  16.448  0.00  0.00    +0.000 A 
ATOM     19  C   UNL     1       2.933   3.829  17.646  0.00  0.00    +0.000 A 
ATOM     20  O   UNL     1       1.625   3.323  17.649  0.00  0.00    +0.000 OA
ATOM     21  C   UNL     1       1.033   3.145  18.886  0.00  0.00    +0.000 A 
ATOM     22  O   UNL     1       0.217   2.263  19.120  0.00  0.00    +0.000 OA
ATOM     23  C   UNL     1       1.402   4.141  19.906  0.00  0.00    +0.000 A 
ATOM     24  C   UNL     1       2.647   4.629  19.928  0.00  0.00    +0.000 A 
ATOM     25  C   UNL     1       3.532   4.313  18.813  0.00  0.00    +0.000 A 
ATOM     26  C   UNL     1       4.900   4.608  18.817  0.00  0.00    +0.000 A 
ENDBRANCH  15  16
ENDBRANCH  14  15
ENDBRANCH   3  14
TORSDOF 5
ENDMDL
MODEL 2
REMARK VINA RESULT:      -8.0      1.635      2.095
REMARK  Name = 
REMARK  6 active torsions:
REMARK  status: ('A' for Active; 'I' for Inactive)
REMARK    1  A    between atoms: C_1  and  O_2
REMARK    2  A    between atoms: O_2  and  C_3
REMARK    3  A    between atoms: C_6  and  N_7
REMARK    4  A    between atoms: C_9  and  C_10
REMARK    5  A    between atoms: C_10  and  O_11
REMARK    6  A    between atoms: O_11  and  C_12
REMARK                            x       y       z     vdW  Elec       q    Type
REMARK                         _______ _______ _______ _____ _____    ______ ____
ROOT
ATOM      1  N   UNL     1       8.455   9.208  18.301  0.00  0.00    +0.000 N 
ATOM      2  C   UNL     1       7.539   8.841  17.345  0.00  0.00    +0.000 A 
ATOM      3  C   UNL     1       7.324   7.495  17.549  0.00  0.00    +0.000 A 
ATOM      4  N   UNL     1       8.118   7.074  18.577  0.00  0.00    +0.000 NA
ATOM      5  N   UNL     1       8.803   8.114  19.027  0.00  0.00    +0.000 NA
ENDROOT
BRANCH   1   9
ATOM      6  C   UNL     1      10.108  13.038  19.008  0.00  0.00    +0.000 A 
ATOM      7  C   UNL     1      10.508  11.946  19.780  0.00  0.00    +0.000 A 
ATOM      8  C   UNL     1       9.973  10.674  19.552  0.00  0.00    +0.000 A 
ATOM      9  C   UNL     1       9.014  10.495  18.558  0.00  0.00    +0.000 A 
ATOM     10  C   UNL     1       8.602  11.587  17.789  0.00  0.00    +0.000 A 
ATOM     11  C   UNL     1       9.144  12.861  18.018  0.00  0.00    +0.000 A 
BRANCH   6  13
ATOM     12  C   UNL     1      10.668  14.576  20.714  0.00  0.00    +0.000 C 
ATOM     13  O   UNL     1      10.701  14.223  19.335  0.00  0.00    +0.000 OA
ENDBRANCH   6  13
ENDBRANCH   1   9
BRANCH   3  14
ATOM     14  C   UNL     1       6.385   6.565  16.859  0.00  0.00    +0.000 C 
BRANCH  14  15
ATOM     15  O   UNL     1       5.059   6.778  17.342  0.00  0.00    +0.000 OA
BRANCH  15  16
ATOM     16  C   UNL     1       4.461   5.788  18.066  0.00  0.00    +0.000 A 
ATOM     17  C   UNL     1       5.338   4.759  18.429  0.00  0.00    +0.000 A 
ATOM     18  C   UNL     1       4.907   3.705  19.227  0.00  0.00    +0.000 A 
ATOM     19  C   UNL     1       3.580   3.668  19.620  0.00  0.00    +0.000 A 
ATOM     20  O   UNL     1       3.213   2.675  20.540  0.00  0.00    +0.000 OA
ATOM     21  C   UNL     1       1.961   2.797  21.115  0.00  0.00    +0.000 A 
ATOM     22  O   UNL     1       1.704   2.419  22.251  0.00  0.00    +0.000 OA
ATOM     23  C   UNL     1       0.921   3.360  20.238  0.00  0.00    +0.000 A 
ATOM     24  C   UNL     1       1.247   4.315  19.362  0.00  0.00    +0.000 A 
ATOM     25  C   UNL     1       2.660   4.615  19.161  0.00  0.00    +0.000 A 
ATOM     26  C   UNL     1       3.109   5.712  18.417  0.00  0.00    +0.000 A 
ENDBRANCH  15  16
ENDBRANCH  14  15
ENDBRANCH   3  14
TORSDOF 5
ENDMDL
MODEL 3
REMARK VINA RESULT:      -7.8      4.076      7.035
REMARK  Name = 
REMARK  6 active torsions:
REMARK  status: ('A' for Active; 'I' for Inactive)
REMARK    1  A    between atoms: C_1  and  O_2
REMARK    2  A    between atoms: O_2  and  C_3
REMARK    3  A    between atoms: C_6  and  N_7
REMARK    4  A    between atoms: C_9  and  C_10
REMARK    5  A    between atoms: C_10  and  O_11
REMARK    6  A    between atoms: O_11  and  C_12
REMARK                            x       y       z     vdW  Elec       q    Type
REMARK                         _______ _______ _______ _____ _____    ______ ____
ROOT
ATOM      1  N   UNL     1       2.045   6.183  19.388  0.00  0.00    +0.000 N 
ATOM      2  C   UNL     1       2.200   5.539  18.184  0.00  0.00    +0.000 A 
ATOM      3  C   UNL     1       2.505   4.235  18.509  0.00  0.00    +0.000 A 
ATOM      4  N   UNL     1       2.561   4.123  19.869  0.00  0.00    +0.000 NA
ATOM      5  N   UNL     1       2.285   5.305  20.397  0.00  0.00    +0.000 NA
ENDROOT
BRANCH   1   9
ATOM      6  C   UNL     1       1.067  10.239  20.089  0.00  0.00    +0.000 A 
ATOM      7  C   UNL     1       0.989   9.308  21.126  0.00  0.00    +0.000 A 
ATOM      8  C   UNL     1       1.315   7.966  20.907  0.00  0.00    +0.000 A 
ATOM      9  C   UNL     1       1.703   7.545  19.638  0.00  0.00    +0.000 A 
ATOM     10  C   UNL     1       1.773   8.472  18.593  0.00  0.00    +0.000 A 
ATOM     11  C   UNL     1       1.448   9.818  18.817  0.00  0.00    +0.000 A 
BRANCH   6  13
ATOM     12  C   UNL     1       1.512  12.550  19.863  0.00  0.00    +0.000 C 
ATOM     13  O   UNL     1       0.717  11.514  20.431  0.00  0.00    +0.000 OA
ENDBRANCH   6  13
ENDBRANCH   1   9
BRANCH   3  14
ATOM     14  C   UNL     1       2.717   3.057  17.620  0.00  0.00    +0.000 C 
BRANCH  14  15
ATOM     15  O   UNL     1       4.114   2.778  17.521  0.00  0.00    +0.000 OA
BRANCH  15  16
ATOM     16  C   UNL     1       4.983   3.825  17.413  0.00  0.00    +0.000 A 
ATOM     17  C   UNL     1       5.066   4.345  16.116  0.00  0.00    +0.000 A 
ATOM     18  C   UNL     1       5.854   5.458  15.844  0.00  0.00    +0.000 A 
ATOM     19  C   UNL     1       6.592   6.017  16.874  0.00  0.00    +0.000 A 
ATOM     20  O   UNL     1       7.259   7.220  16.603  0.00  0.00    +0.000 OA
ATOM     21  C   UNL     1       7.781   7.898  17.690  0.00  0.00    +0.000 A 
ATOM     22  O   UNL     1       7.872   9.117  17.741  0.00  0.00    +0.000 OA
ATOM     23  C   UNL     1       8.290   7.042  18.775  0.00  0.00    +0.000 A 
ATOM     24  C   UNL     1       7.662   5.896  19.058  0.00  0.00    +0.000 A 
ATOM     25  C   UNL     1       6.623   5.435  18.145  0.00  0.00    +0.000 A 
ATOM     26  C   UNL     1       5.777   4.358  18.434  0.00  0.00    +0.000 A 
ENDBRANCH  15  16
ENDBRANCH  14  15
ENDBRANCH   3  14
TORSDOF 5
ENDMDL
MODEL 4
REMARK VINA RESULT:      -7.8      1.098      1.520
REMARK  Name = 
REMARK  6 active torsions:
REMARK  status: ('A' for Active; 'I' for Inactive)
REMARK    1  A    between atoms: C_1  and  O_2
REMARK    2  A    between atoms: O_2  and  C_3
REMARK    3  A    between atoms: C_6  and  N_7
REMARK    4  A    between atoms: C_9  and  C_10
REMARK    5  A    between atoms: C_10  and  O_11
REMARK    6  A    between atoms: O_11  and  C_12
REMARK                            x       y       z     vdW  Elec       q    Type
REMARK                         _______ _______ _______ _____ _____    ______ ____
ROOT
ATOM      1  N   UNL     1       8.693   9.347  18.439  0.00  0.00    +0.000 N 
ATOM      2  C   UNL     1       8.666   8.084  18.979  0.00  0.00    +0.000 A 
ATOM      3  C   UNL     1       7.873   7.344  18.128  0.00  0.00    +0.000 A 
ATOM      4  N   UNL     1       7.418   8.160  17.132  0.00  0.00    +0.000 NA
ATOM      5  N   UNL     1       7.914   9.372  17.326  0.00  0.00    +0.000 NA
ENDROOT
BRANCH   1   9
ATOM      6  C   UNL     1      10.773  12.782  19.772  0.00  0.00    +0.000 A 
ATOM      7  C   UNL     1      10.272  11.861  20.694  0.00  0.00    +0.000 A 
ATOM      8  C   UNL     1       9.587  10.720  20.264  0.00  0.00    +0.000 A 
ATOM      9  C   UNL     1       9.383  10.505  18.904  0.00  0.00    +0.000 A 
ATOM     10  C   UNL     1       9.875  11.429  17.977  0.00  0.00    +0.000 A 
ATOM     11  C   UNL     1      10.564  12.571  18.411  0.00  0.00    +0.000 A 
BRANCH   6  13
ATOM     12  C   UNL     1      10.657  15.055  20.406  0.00  0.00    +0.000 C 
ATOM     13  O   UNL     1      11.416  13.854  20.319  0.00  0.00    +0.000 OA
ENDBRANCH   6  13
ENDBRANCH   1   9
BRANCH   3  14
ATOM     14  C   UNL     1       7.534   5.893  18.163  0.00  0.00    +0.000 C 
BRANCH  14  15
ATOM     15  O   UNL     1       6.515   5.616  17.202  0.00  0.00    +0.000 OA
BRANCH  15  16
ATOM     16  C   UNL     1       5.308   5.158  17.644  0.00  0.00    +0.000 A 
ATOM     17  C   UNL     1       4.276   6.096  17.513  0.00  0.00    +0.000 A 
ATOM     18  C   UNL     1       2.969   5.769  17.852  0.00  0.00    +0.000 A 
ATOM     19  C   UNL     1       2.711   4.509  18.365  0.00  0.00    +0.000 A 
ATOM     20  O   UNL     1       1.367   4.159  18.560  0.00  0.00    +0.000 OA
ATOM     21  C   UNL     1       1.105   2.829  18.830  0.00  0.00    +0.000 A 
ATOM     22  O   UNL     1       0.076   2.263  18.486  0.00  0.00    +0.000 OA
ATOM     23  C   UNL     1       2.132   2.139  19.630  0.00  0.00    +0.000 A 
ATOM     24  C   UNL     1       3.420   2.448  19.452  0.00  0.00    +0.000 A 
ATOM     25  C   UNL     1       3.745   3.604  18.625  0.00  0.00    +0.000 A 
ATOM     26  C   UNL     1       5.049   3.909  18.219  0.00  0.00    +0.000 A 
ENDBRANCH  15  16
ENDBRANCH  14  15
ENDBRANCH   3  14
TORSDOF 5
ENDMDL
MODEL 5
REMARK VINA RESULT:      -7.8      4.116      6.804
REMARK  Name = 
REMARK  6 active torsions:
REMARK  status: ('A' for Active; 'I' for Inactive)
REMARK    1  A    between atoms: C_1  and  O_2
REMARK    2  A    between atoms: O_2  and  C_3
REMARK    3  A    between atoms: C_6  and  N_7
REMARK    4  A    between atoms: C_9  and  C_10
REMARK    5  A    between atoms: C_10  and  O_11
REMARK    6  A    between atoms: O_11  and  C_12
REMARK                            x       y       z     vdW  Elec       q    Type
REMARK                         _______ _______ _______ _____ _____    ______ ____
ROOT
ATOM      1  N   UNL     1       1.899   6.496  19.495  0.00  0.00    +0.000 N 
ATOM      2  C   UNL     1       2.093   5.537  18.530  0.00  0.00    +0.000 A 
ATOM      3  C   UNL     1       2.197   4.349  19.218  0.00  0.00    +0.000 A 
ATOM      4  N   UNL     1       2.101   4.605  20.556  0.00  0.00    +0.000 NA
ATOM      5  N   UNL     1       1.923   5.907  20.718  0.00  0.00    +0.000 NA
ENDROOT
BRANCH   1   9
ATOM      6  C   UNL     1       1.282  10.659  19.058  0.00  0.00    +0.000 A 
ATOM      7  C   UNL     1       1.810   9.912  18.003  0.00  0.00    +0.000 A 
ATOM      8  C   UNL     1       2.013   8.534  18.135  0.00  0.00    +0.000 A 
ATOM      9  C   UNL     1       1.706   7.900  19.336  0.00  0.00    +0.000 A 
ATOM     10  C   UNL     1       1.186   8.646  20.398  0.00  0.00    +0.000 A 
ATOM     11  C   UNL     1       0.981  10.027  20.262  0.00  0.00    +0.000 A 
BRANCH   6  13
ATOM     12  C   UNL     1       2.337  12.702  18.509  0.00  0.00    +0.000 C 
ATOM     13  O   UNL     1       1.139  11.992  18.804  0.00  0.00    +0.000 OA
ENDBRANCH   6  13
ENDBRANCH   1   9
BRANCH   3  14
ATOM     14  C   UNL     1       2.349   2.959  18.701  0.00  0.00    +0.000 C 
BRANCH  14  15
ATOM     15  O   UNL     1       3.733   2.609  18.666  0.00  0.00    +0.000 OA
BRANCH  15  16
ATOM     16  C   UNL     1       4.635   3.554  18.272  0.00  0.00    +0.000 A 
ATOM     17  C   UNL     1       4.659   3.755  16.886  0.00  0.00    +0.000 A 
ATOM     18  C   UNL     1       5.473   4.730  16.322  0.00  0.00    +0.000 A 
ATOM     19  C   UNL     1       6.295   5.472  17.153  0.00  0.00    +0.000 A 
ATOM     20  O   UNL     1       6.993   6.543  16.574  0.00  0.00    +0.000 OA
ATOM     21  C   UNL     1       7.607   7.424  17.444  0.00  0.00    +0.000 A 
ATOM     22  O   UNL     1       7.751   8.616  17.204  0.00  0.00    +0.000 OA
ATOM     23  C   UNL     1       8.148   6.817  18.673  0.00  0.00    +0.000 A 
ATOM     24  C   UNL     1       7.493   5.804  19.247  0.00  0.00    +0.000 A 
ATOM     25  C   UNL     1       6.382   5.200  18.522  0.00  0.00    +0.000 A 
ATOM     26  C   UNL     1       5.512   4.266  19.097  0.00  0.00    +0.000 A 
ENDBRANCH  15  16
ENDBRANCH  14  15
ENDBRANCH   3  14
TORSDOF 5
ENDMDL
MODEL 6
REMARK VINA RESULT:      -7.7      1.643     10.238
REMARK  Name = 
REMARK  6 active torsions:
REMARK  status: ('A' for Active; 'I' for Inactive)
REMARK    1  A    between atoms: C_1  and  O_2
REMARK    2  A    between atoms: O_2  and  C_3
REMARK    3  A    between atoms: C_6  and  N_7
REMARK    4  A    between atoms: C_9  and  C_10
REMARK    5  A    between atoms: C_10  and  O_11
REMARK    6  A    between atoms: O_11  and  C_12
REMARK                            x       y       z     vdW  Elec       q    Type
REMARK                         _______ _______ _______ _____ _____    ______ ____
ROOT
ATOM      1  N   UNL     1       5.713   5.727  17.347  0.00  0.00    +0.000 N 
ATOM      2  C   UNL     1       6.311   6.573  18.249  0.00  0.00    +0.000 A 
ATOM      3  C   UNL     1       7.381   7.121  17.576  0.00  0.00    +0.000 A 
ATOM      4  N   UNL     1       7.430   6.586  16.321  0.00  0.00    +0.000 NA
ATOM      5  N   UNL     1       6.421   5.740  16.188  0.00  0.00    +0.000 NA
ENDROOT
BRANCH   1   9
ATOM      6  C   UNL     1       2.281   3.294  17.801  0.00  0.00    +0.000 A 
ATOM      7  C   UNL     1       2.178   4.683  17.908  0.00  0.00    +0.000 A 
ATOM      8  C   UNL     1       3.305   5.497  17.754  0.00  0.00    +0.000 A 
ATOM      9  C   UNL     1       4.549   4.920  17.512  0.00  0.00    +0.000 A 
ATOM     10  C   UNL     1       4.659   3.529  17.414  0.00  0.00    +0.000 A 
ATOM     11  C   UNL     1       3.526   2.716  17.565  0.00  0.00    +0.000 A 
BRANCH   6  13
ATOM     12  C   UNL     1       0.495   2.755  19.252  0.00  0.00    +0.000 C 
ATOM     13  O   UNL     1       1.111   2.614  17.976  0.00  0.00    +0.000 OA
ENDBRANCH   6  13
ENDBRANCH   1   9
BRANCH   3  14
ATOM     14  C   UNL     1       8.357   8.156  18.021  0.00  0.00    +0.000 C 
BRANCH  14  15
ATOM     15  O   UNL     1       7.822   9.456  17.778  0.00  0.00    +0.000 OA
BRANCH  15  16
ATOM     16  C   UNL     1       8.504  10.541  18.247  0.00  0.00    +0.000 A 
ATOM     17  C   UNL     1       9.298  10.257  19.365  0.00  0.00    +0.000 A 
ATOM     18  C   UNL     1      10.111  11.235  19.927  0.00  0.00    +0.000 A 
ATOM     19  C   UNL     1      10.088  12.510  19.388  0.00  0.00    +0.000 A 
ATOM     20  O   UNL     1      11.023  13.431  19.882  0.00  0.00    +0.000 OA
ATOM     21  C   UNL     1      11.164  14.611  19.175  0.00  0.00    +0.000 A 
ATOM     22  O   UNL     1      12.219  15.226  19.096  0.00  0.00    +0.000 OA
ATOM     23  C   UNL     1       9.926  15.126  18.565  0.00  0.00    +0.000 A 
ATOM     24  C   UNL     1       9.026  14.266  18.077  0.00  0.00    +0.000 A 
ATOM     25  C   UNL     1       9.207  12.846  18.356  0.00  0.00    +0.000 A 
ATOM     26  C   UNL     1       8.441  11.846  17.746  0.00  0.00    +0.000 A 
ENDBRANCH  15  16
ENDBRANCH  14  15
ENDBRANCH   3  14
TORSDOF 5
ENDMDL
MODEL 7
REMARK VINA RESULT:      -7.7      4.309      7.272
REMARK  Name = 
REMARK  6 active torsions:
REMARK  status: ('A' for Active; 'I' for Inactive)
REMARK    1  A    between atoms: C_1  and  O_2
REMARK    2  A    between atoms: O_2  and  C_3
REMARK    3  A    between atoms: C_6  and  N_7
REMARK    4  A    between atoms: C_9  and  C_10
REMARK    5  A    between atoms: C_10  and  O_11
REMARK    6  A    between atoms: O_11  and  C_12
REMARK                            x       y       z     vdW  Elec       q    Type
REMARK                         _______ _______ _______ _____ _____    ______ ____
ROOT
ATOM      1  N   UNL     1       1.830   6.397  19.866  0.00  0.00    +0.000 N 
ATOM      2  C   UNL     1       2.134   5.905  18.620  0.00  0.00    +0.000 A 
ATOM      3  C   UNL     1       2.305   4.550  18.798  0.00  0.00    +0.000 A 
ATOM      4  N   UNL     1       2.139   4.256  20.121  0.00  0.00    +0.000 NA
ATOM      5  N   UNL     1       1.855   5.378  20.764  0.00  0.00    +0.000 NA
ENDROOT
BRANCH   1   9
ATOM      6  C   UNL     1       0.921  10.355  21.053  0.00  0.00    +0.000 A 
ATOM      7  C   UNL     1       1.185  10.065  19.713  0.00  0.00    +0.000 A 
ATOM      8  C   UNL     1       1.481   8.760  19.309  0.00  0.00    +0.000 A 
ATOM      9  C   UNL     1       1.535   7.737  20.252  0.00  0.00    +0.000 A 
ATOM     10  C   UNL     1       1.281   8.024  21.597  0.00  0.00    +0.000 A 
ATOM     11  C   UNL     1       0.981   9.334  21.999  0.00  0.00    +0.000 A 
BRANCH   6  13
ATOM     12  C   UNL     1      -0.502  11.915  22.114  0.00  0.00    +0.000 C 
ATOM     13  O   UNL     1       0.651  11.666  21.318  0.00  0.00    +0.000 OA
ENDBRANCH   6  13
ENDBRANCH   1   9
BRANCH   3  14
ATOM     14  C   UNL     1       2.584   3.485  17.793  0.00  0.00    +0.000 C 
BRANCH  14  15
ATOM     15  O   UNL     1       3.976   3.167  17.806  0.00  0.00    +0.000 OA
BRANCH  15  16
ATOM     16  C   UNL     1       4.878   4.179  17.647  0.00  0.00    +0.000 A 
ATOM     17  C   UNL     1       4.888   4.716  16.354  0.00  0.00    +0.000 A 
ATOM     18  C   UNL     1       5.700   5.799  16.039  0.00  0.00    +0.000 A 
ATOM     19  C   UNL     1       6.534   6.311  17.018  0.00  0.00    +0.000 A 
ATOM     20  O   UNL     1       7.230   7.490  16.714  0.00  0.00    +0.000 OA
ATOM     21  C   UNL     1       7.858   8.128  17.768  0.00  0.00    +0.000 A 
ATOM     22  O   UNL     1       8.004   9.342  17.828  0.00  0.00    +0.000 OA
ATOM     23  C   UNL     1       8.409   7.235  18.802  0.00  0.00    +0.000 A 
ATOM     24  C   UNL     1       7.756   6.112  19.116  0.00  0.00    +0.000 A 
ATOM     25  C   UNL     1       6.634   5.708  18.276  0.00  0.00    +0.000 A 
ATOM     26  C   UNL     1       5.767   4.663  18.613  0.00  0.00    +0.000 A 
ENDBRANCH  15  16
ENDBRANCH  14  15
ENDBRANCH   3  14
TORSDOF 5
ENDMDL
MODEL 8
REMARK VINA RESULT:      -7.7      1.634     10.372
REMARK  Name = 
REMARK  6 active torsions:
REMARK  status: ('A' for Active; 'I' for Inactive)
REMARK    1  A    between atoms: C_1  and  O_2
REMARK    2  A    between atoms: O_2  and  C_3
REMARK    3  A    between atoms: C_6  and  N_7
REMARK    4  A    between atoms: C_9  and  C_10
REMARK    5  A    between atoms: C_10  and  O_11
REMARK    6  A    between atoms: O_11  and  C_12
REMARK                            x       y       z     vdW  Elec       q    Type
REMARK                         _______ _______ _______ _____ _____    ______ ____
ROOT
ATOM      1  N   UNL     1       5.945   5.868  18.213  0.00  0.00    +0.000 N 
ATOM      2  C   UNL     1       6.217   7.089  17.644  0.00  0.00    +0.000 A 
ATOM      3  C   UNL     1       7.502   7.391  18.037  0.00  0.00    +0.000 A 
ATOM      4  N   UNL     1       7.963   6.390  18.843  0.00  0.00    +0.000 NA
ATOM      5  N   UNL     1       7.015   5.472  18.950  0.00  0.00    +0.000 NA
ENDROOT
BRANCH   1   9
ATOM      6  C   UNL     1       2.439   3.525  17.861  0.00  0.00    +0.000 A 
ATOM      7  C   UNL     1       2.592   4.405  18.933  0.00  0.00    +0.000 A 
ATOM      8  C   UNL     1       3.744   5.189  19.057  0.00  0.00    +0.000 A 
ATOM      9  C   UNL     1       4.762   5.078  18.113  0.00  0.00    +0.000 A 
ATOM     10  C   UNL     1       4.618   4.190  17.043  0.00  0.00    +0.000 A 
ATOM     11  C   UNL     1       3.460   3.408  16.920  0.00  0.00    +0.000 A 
BRANCH   6  13
ATOM     12  C   UNL     1       0.753   2.470  19.138  0.00  0.00    +0.000 C 
ATOM     13  O   UNL     1       1.274   2.815  17.859  0.00  0.00    +0.000 OA
ENDBRANCH   6  13
ENDBRANCH   1   9
BRANCH   3  14
ATOM     14  C   UNL     1       8.359   8.557  17.676  0.00  0.00    +0.000 C 
BRANCH  14  15
ATOM     15  O   UNL     1       8.709   9.278  18.857  0.00  0.00    +0.000 OA
BRANCH  15  16
ATOM     16  C   UNL     1       9.245  10.526  18.725  0.00  0.00    +0.000 A 
ATOM     17  C   UNL     1       8.553  11.334  17.815  0.00  0.00    +0.000 A 
ATOM     18  C   UNL     1       8.925  12.658  17.611  0.00  0.00    +0.000 A 
ATOM     19  C   UNL     1      10.024  13.152  18.295  0.00  0.00    +0.000 A 
ATOM     20  O   UNL     1      10.284  14.525  18.181  0.00  0.00    +0.000 OA
ATOM     21  C   UNL     1      11.218  15.053  19.053  0.00  0.00    +0.000 A 
ATOM     22  O   UNL     1      11.170  16.200  19.476  0.00  0.00    +0.000 OA
ATOM     23  C   UNL     1      12.333  14.153  19.396  0.00  0.00    +0.000 A 
ATOM     24  C   UNL     1      12.104  12.842  19.522  0.00  0.00    +0.000 A 
ATOM     25  C   UNL     1      10.805  12.326  19.109  0.00  0.00    +0.000 A 
ATOM     26  C   UNL     1      10.389  11.014  19.366  0.00  0.00    +0.000 A 
ENDBRANCH  15  16
ENDBRANCH  14  15
ENDBRANCH   3  14
TORSDOF 5
ENDMDL
MODEL 9
REMARK VINA RESULT:      -7.6      1.835     10.001
REMARK  Name = 
REMARK  6 active torsions:
REMARK  status: ('A' for Active; 'I' for Inactive)
REMARK    1  A    between atoms: C_1  and  O_2
REMARK    2  A    between atoms: O_2  and  C_3
REMARK    3  A    between atoms: C_6  and  N_7
REMARK    4  A    between atoms: C_9  and  C_10
REMARK    5  A    between atoms: C_10  and  O_11
REMARK    6  A    between atoms: O_11  and  C_12
REMARK                            x       y       z     vdW  Elec       q    Type
REMARK                         _______ _______ _______ _____ _____    ______ ____
ROOT
ATOM      1  N   UNL     1       5.842   5.622  18.148  0.00  0.00    +0.000 N 
ATOM      2  C   UNL     1       6.012   6.897  17.667  0.00  0.00    +0.000 A 
ATOM      3  C   UNL     1       7.312   7.230  17.979  0.00  0.00    +0.000 A 
ATOM      4  N   UNL     1       7.882   6.190  18.655  0.00  0.00    +0.000 NA
ATOM      5  N   UNL     1       6.987   5.220  18.758  0.00  0.00    +0.000 NA
ENDROOT
BRANCH   1   9
ATOM      6  C   UNL     1       2.454   3.097  17.913  0.00  0.00    +0.000 A 
ATOM      7  C   UNL     1       2.304   4.484  17.853  0.00  0.00    +0.000 A 
ATOM      8  C   UNL     1       3.417   5.328  17.925  0.00  0.00    +0.000 A 
ATOM      9  C   UNL     1       4.690   4.784  18.078  0.00  0.00    +0.000 A 
ATOM     10  C   UNL     1       4.845   3.397  18.147  0.00  0.00    +0.000 A 
ATOM     11  C   UNL     1       3.727   2.553  18.072  0.00  0.00    +0.000 A 
BRANCH   6  13
ATOM     12  C   UNL     1       0.483   2.392  19.010  0.00  0.00    +0.000 C 
ATOM     13  O   UNL     1       1.291   2.387  17.837  0.00  0.00    +0.000 OA
ENDBRANCH   6  13
ENDBRANCH   1   9
BRANCH   3  14
ATOM     14  C   UNL     1       8.084   8.463  17.651  0.00  0.00    +0.000 C 
BRANCH  14  15
ATOM     15  O   UNL     1       8.855   8.860  18.785  0.00  0.00    +0.000 OA
BRANCH  15  16
ATOM     16  C   UNL     1       9.036  10.192  19.018  0.00  0.00    +0.000 A 
ATOM     17  C   UNL     1       8.936  10.976  17.862  0.00  0.00    +0.000 A 
ATOM     18  C   UNL     1       9.026  12.362  17.932  0.00  0.00    +0.000 A 
ATOM     19  C   UNL     1       9.262  12.951  19.162  0.00  0.00    +0.000 A 
ATOM     20  O   UNL     1       9.203  14.351  19.223  0.00  0.00    +0.000 OA
ATOM     21  C   UNL     1       9.189  14.917  20.485  0.00  0.00    +0.000 A 
ATOM     22  O   UNL     1       8.610  15.963  20.746  0.00  0.00    +0.000 OA
ATOM     23  C   UNL     1       9.984  14.203  21.499  0.00  0.00    +0.000 A 
ATOM     24  C   UNL     1      10.045  12.869  21.467  0.00  0.00    +0.000 A 
ATOM     25  C   UNL     1       9.494  12.180  20.305  0.00  0.00    +0.000 A 
ATOM     26  C   UNL     1       9.334  10.791  20.247  0.00  0.00    +0.000 A 
ENDBRANCH  15  16
ENDBRANCH  14  15
ENDBRANCH   3  14
TORSDOF 5
ENDMDL
