MODEL 1
REMARK VINA RESULT:      -7.8      0.000      0.000
REMARK  Name = 
REMARK  6 active torsions:
REMARK  status: ('A' for Active; 'I' for Inactive)
REMARK    1  A    between atoms: C_1  and  O_2
REMARK    2  A    between atoms: O_2  and  C_3
REMARK    3  A    between atoms: C_6  and  C_7
REMARK    4  A    between atoms: C_12  and  O_13
REMARK    5  A    between atoms: O_13  and  C_14
REMARK    6  A    between atoms: C_15  and  O_16
REMARK                            x       y       z     vdW  Elec       q    Type
REMARK                         _______ _______ _______ _____ _____    ______ ____
ROOT
ATOM      1  C   UNL     1       3.768   4.605  18.005  0.00  0.00    +0.000 C 
ATOM      2  C   UNL     1       3.306   5.788  18.423  0.00  0.00    +0.000 C 
ATOM      3  C   UNL     1       3.404   7.126  17.743  0.00  0.00    +0.000 C 
ATOM      4  C   UNL     1       2.362   7.928  18.453  0.00  0.00    +0.000 A 
ATOM      5  C   UNL     1       1.647   9.025  18.010  0.00  0.00    +0.000 A 
ATOM      6  C   UNL     1       0.836   9.684  18.935  0.00  0.00    +0.000 A 
ATOM      7  C   UNL     1       0.897   9.336  20.297  0.00  0.00    +0.000 A 
ATOM      8  C   UNL     1       1.501   8.151  20.708  0.00  0.00    +0.000 A 
ATOM      9  C   UNL     1       2.140   7.414  19.729  0.00  0.00    +0.000 A 
ATOM     10  C   UNL     1       2.590   6.010  19.728  0.00  0.00    +0.000 C 
ATOM     11  O   UNL     1       2.371   5.186  20.593  0.00  0.00    +0.000 OA
ENDROOT
BRANCH   1  15
ATOM     12  C   UNL     1       6.940   5.052  15.194  0.00  0.00    +0.000 A 
ATOM     13  C   UNL     1       7.112   5.306  16.552  0.00  0.00    +0.000 A 
ATOM     14  C   UNL     1       6.079   5.058  17.454  0.00  0.00    +0.000 A 
ATOM     15  C   UNL     1       4.849   4.563  17.012  0.00  0.00    +0.000 A 
ATOM     16  C   UNL     1       4.680   4.258  15.652  0.00  0.00    +0.000 A 
ATOM     17  C   UNL     1       5.733   4.511  14.743  0.00  0.00    +0.000 A 
BRANCH  12  19
ATOM     18  C   UNL     1       7.882   5.246  13.022  0.00  0.00    +0.000 C 
ATOM     19  O   UNL     1       8.003   5.428  14.424  0.00  0.00    +0.000 OA
ENDBRANCH  12  19
ENDBRANCH   1  15
BRANCH   6  20
ATOM     20  O   UNL     1       0.018  10.673  18.453  0.00  0.00    +0.000 OA
ATOM     21  C   UNL     1      -1.156  10.154  17.808  0.00  0.00    +0.000 C 
ENDBRANCH   6  20
BRANCH   7  22
ATOM     22  O   UNL     1       0.371  10.163  21.251  0.00  0.00    +0.000 OA
ATOM     23  H   UNL     1       0.209  11.018  20.807  0.00  0.00    +0.000 HD
ENDBRANCH   7  22
TORSDOF 4
ENDMDL
MODEL 2
REMARK VINA RESULT:      -7.4      2.753      7.674
REMARK  Name = 
REMARK  6 active torsions:
REMARK  status: ('A' for Active; 'I' for Inactive)
REMARK    1  A    between atoms: C_1  and  O_2
REMARK    2  A    between atoms: O_2  and  C_3
REMARK    3  A    between atoms: C_6  and  C_7
REMARK    4  A    between atoms: C_12  and  O_13
REMARK    5  A    between atoms: O_13  and  C_14
REMARK    6  A    between atoms: C_15  and  O_16
REMARK                            x       y       z     vdW  Elec       q    Type
REMARK                         _______ _______ _______ _____ _____    ______ ____
ROOT
ATOM      1  C   UNL     1       2.159   8.881  17.490  0.00  0.00    +0.000 C 
ATOM      2  C   UNL     1       2.603   7.813  18.161  0.00  0.00    +0.000 C 
ATOM      3  C   UNL     1       2.120   7.267  19.477  0.00  0.00    +0.000 C 
ATOM      4  C   UNL     1       2.676   5.880  19.476  0.00  0.00    +0.000 A 
ATOM      5  C   UNL     1       2.220   4.752  20.132  0.00  0.00    +0.000 A 
ATOM      6  C   UNL     1       3.017   3.608  20.081  0.00  0.00    +0.000 A 
ATOM      7  C   UNL     1       4.311   3.677  19.530  0.00  0.00    +0.000 A 
ATOM      8  C   UNL     1       4.701   4.763  18.751  0.00  0.00    +0.000 A 
ATOM      9  C   UNL     1       3.805   5.810  18.663  0.00  0.00    +0.000 A 
ATOM     10  C   UNL     1       3.739   6.934  17.711  0.00  0.00    +0.000 C 
ATOM     11  O   UNL     1       4.433   7.082  16.726  0.00  0.00    +0.000 OA
ENDROOT
BRANCH   1  15
ATOM     12  C   UNL     1      -0.249  12.017  19.079  0.00  0.00    +0.000 A 
ATOM     13  C   UNL     1      -0.789  10.800  18.675  0.00  0.00    +0.000 A 
ATOM     14  C   UNL     1       0.040   9.764  18.249  0.00  0.00    +0.000 A 
ATOM     15  C   UNL     1       1.426   9.932  18.208  0.00  0.00    +0.000 A 
ATOM     16  C   UNL     1       1.986  11.138  18.657  0.00  0.00    +0.000 A 
ATOM     17  C   UNL     1       1.138  12.184  19.089  0.00  0.00    +0.000 A 
BRANCH  12  19
ATOM     18  C   UNL     1      -2.164  12.618  20.350  0.00  0.00    +0.000 C 
ATOM     19  O   UNL     1      -1.186  12.964  19.382  0.00  0.00    +0.000 OA
ENDBRANCH  12  19
ENDBRANCH   1  15
BRANCH   6  20
ATOM     20  O   UNL     1       2.489   2.455  20.603  0.00  0.00    +0.000 OA
ATOM     21  C   UNL     1       1.543   2.707  21.654  0.00  0.00    +0.000 C 
ENDBRANCH   6  20
BRANCH   7  22
ATOM     22  O   UNL     1       5.218   2.678  19.757  0.00  0.00    +0.000 OA
ATOM     23  H   UNL     1       6.100   3.088  19.664  0.00  0.00    +0.000 HD
ENDBRANCH   7  22
TORSDOF 4
ENDMDL
MODEL 3
REMARK VINA RESULT:      -7.2      2.750      7.598
REMARK  Name = 
REMARK  6 active torsions:
REMARK  status: ('A' for Active; 'I' for Inactive)
REMARK    1  A    between atoms: C_1  and  O_2
REMARK    2  A    between atoms: O_2  and  C_3
REMARK    3  A    between atoms: C_6  and  C_7
REMARK    4  A    between atoms: C_12  and  O_13
REMARK    5  A    between atoms: O_13  and  C_14
REMARK    6  A    between atoms: C_15  and  O_16
REMARK                            x       y       z     vdW  Elec       q    Type
REMARK                         _______ _______ _______ _____ _____    ______ ____
ROOT
ATOM      1  C   UNL     1       2.146   8.875  17.656  0.00  0.00    +0.000 C 
ATOM      2  C   UNL     1       2.620   7.796  18.289  0.00  0.00    +0.000 C 
ATOM      3  C   UNL     1       2.238   7.263  19.643  0.00  0.00    +0.000 C 
ATOM      4  C   UNL     1       2.759   5.862  19.598  0.00  0.00    +0.000 A 
ATOM      5  C   UNL     1       2.334   4.745  20.292  0.00  0.00    +0.000 A 
ATOM      6  C   UNL     1       3.096   3.583  20.177  0.00  0.00    +0.000 A 
ATOM      7  C   UNL     1       4.339   3.621  19.517  0.00  0.00    +0.000 A 
ATOM      8  C   UNL     1       4.688   4.697  18.706  0.00  0.00    +0.000 A 
ATOM      9  C   UNL     1       3.813   5.765  18.691  0.00  0.00    +0.000 A 
ATOM     10  C   UNL     1       3.692   6.891  17.746  0.00  0.00    +0.000 C 
ATOM     11  O   UNL     1       4.304   7.022  16.706  0.00  0.00    +0.000 OA
ENDROOT
BRANCH   1  15
ATOM     12  C   UNL     1       0.788  12.043  20.161  0.00  0.00    +0.000 A 
ATOM     13  C   UNL     1       1.742  12.241  19.168  0.00  0.00    +0.000 A 
ATOM     14  C   UNL     1       2.092  11.204  18.306  0.00  0.00    +0.000 A 
ATOM     15  C   UNL     1       1.502   9.943  18.431  0.00  0.00    +0.000 A 
ATOM     16  C   UNL     1       0.505   9.744  19.399  0.00  0.00    +0.000 A 
ATOM     17  C   UNL     1       0.154  10.802  20.269  0.00  0.00    +0.000 A 
BRANCH  12  19
ATOM     18  C   UNL     1      -0.375  13.009  21.994  0.00  0.00    +0.000 C 
ATOM     19  O   UNL     1       0.615  13.119  20.984  0.00  0.00    +0.000 OA
ENDBRANCH  12  19
ENDBRANCH   1  15
BRANCH   6  20
ATOM     20  O   UNL     1       2.587   2.443  20.744  0.00  0.00    +0.000 OA
ATOM     21  C   UNL     1       1.464   2.706  21.601  0.00  0.00    +0.000 C 
ENDBRANCH   6  20
BRANCH   7  22
ATOM     22  O   UNL     1       5.238   2.601  19.669  0.00  0.00    +0.000 OA
ATOM     23  H   UNL     1       6.028   2.859  19.154  0.00  0.00    +0.000 HD
ENDBRANCH   7  22
TORSDOF 4
ENDMDL
MODEL 4
REMARK VINA RESULT:      -7.1      0.813      1.321
REMARK  Name = 
REMARK  6 active torsions:
REMARK  status: ('A' for Active; 'I' for Inactive)
REMARK    1  A    between atoms: C_1  and  O_2
REMARK    2  A    between atoms: O_2  and  C_3
REMARK    3  A    between atoms: C_6  and  C_7
REMARK    4  A    between atoms: C_12  and  O_13
REMARK    5  A    between atoms: O_13  and  C_14
REMARK    6  A    between atoms: C_15  and  O_16
REMARK                            x       y       z     vdW  Elec       q    Type
REMARK                         _______ _______ _______ _____ _____    ______ ____
ROOT
ATOM      1  C   UNL     1       3.555   5.491  18.208  0.00  0.00    +0.000 C 
ATOM      2  C   UNL     1       2.952   6.617  18.603  0.00  0.00    +0.000 C 
ATOM      3  C   UNL     1       2.922   7.955  17.916  0.00  0.00    +0.000 C 
ATOM      4  C   UNL     1       1.775   8.639  18.588  0.00  0.00    +0.000 A 
ATOM      5  C   UNL     1       0.957   9.648  18.115  0.00  0.00    +0.000 A 
ATOM      6  C   UNL     1       0.050  10.217  19.009  0.00  0.00    +0.000 A 
ATOM      7  C   UNL     1       0.108   9.883  20.376  0.00  0.00    +0.000 A 
ATOM      8  C   UNL     1       0.827   8.775  20.814  0.00  0.00    +0.000 A 
ATOM      9  C   UNL     1       1.573   8.110  19.860  0.00  0.00    +0.000 A 
ATOM     10  C   UNL     1       2.176   6.764  19.885  0.00  0.00    +0.000 C 
ATOM     11  O   UNL     1       2.023   5.925  20.749  0.00  0.00    +0.000 OA
ENDROOT
BRANCH   1  15
ATOM     12  C   UNL     1       6.853   5.145  15.531  0.00  0.00    +0.000 A 
ATOM     13  C   UNL     1       5.644   4.493  15.306  0.00  0.00    +0.000 A 
ATOM     14  C   UNL     1       4.558   4.704  16.152  0.00  0.00    +0.000 A 
ATOM     15  C   UNL     1       4.664   5.565  17.249  0.00  0.00    +0.000 A 
ATOM     16  C   UNL     1       5.863   6.265  17.458  0.00  0.00    +0.000 A 
ATOM     17  C   UNL     1       6.961   6.045  16.595  0.00  0.00    +0.000 A 
BRANCH  12  19
ATOM     18  C   UNL     1       7.660   5.051  13.299  0.00  0.00    +0.000 C 
ATOM     19  O   UNL     1       7.850   4.770  14.676  0.00  0.00    +0.000 OA
ENDBRANCH  12  19
ENDBRANCH   1  15
BRANCH   6  20
ATOM     20  O   UNL     1      -0.858  11.106  18.496  0.00  0.00    +0.000 OA
ATOM     21  C   UNL     1      -1.862  10.469  17.691  0.00  0.00    +0.000 C 
ENDBRANCH   6  20
BRANCH   7  22
ATOM     22  O   UNL     1      -0.536  10.651  21.307  0.00  0.00    +0.000 OA
ATOM     23  H   UNL     1       0.067  11.393  21.509  0.00  0.00    +0.000 HD
ENDBRANCH   7  22
TORSDOF 4
ENDMDL
MODEL 5
REMARK VINA RESULT:      -6.9      1.514      2.620
REMARK  Name = 
REMARK  6 active torsions:
REMARK  status: ('A' for Active; 'I' for Inactive)
REMARK    1  A    between atoms: C_1  and  O_2
REMARK    2  A    between atoms: O_2  and  C_3
REMARK    3  A    between atoms: C_6  and  C_7
REMARK    4  A    between atoms: C_12  and  O_13
REMARK    5  A    between atoms: O_13  and  C_14
REMARK    6  A    between atoms: C_15  and  O_16
REMARK                            x       y       z     vdW  Elec       q    Type
REMARK                         _______ _______ _______ _____ _____    ______ ____
ROOT
ATOM      1  C   UNL     1       2.610   6.563  19.173  0.00  0.00    +0.000 C 
ATOM      2  C   UNL     1       1.994   7.749  19.105  0.00  0.00    +0.000 C 
ATOM      3  C   UNL     1       1.660   8.562  17.885  0.00  0.00    +0.000 C 
ATOM      4  C   UNL     1       0.632   9.516  18.402  0.00  0.00    +0.000 A 
ATOM      5  C   UNL     1      -0.378  10.170  17.723  0.00  0.00    +0.000 A 
ATOM      6  C   UNL     1      -1.110  11.130  18.422  0.00  0.00    +0.000 A 
ATOM      7  C   UNL     1      -0.702  11.526  19.709  0.00  0.00    +0.000 A 
ATOM      8  C   UNL     1       0.216  10.770  20.434  0.00  0.00    +0.000 A 
ATOM      9  C   UNL     1       0.789   9.701  19.774  0.00  0.00    +0.000 A 
ATOM     10  C   UNL     1       1.525   8.536  20.299  0.00  0.00    +0.000 C 
ATOM     11  O   UNL     1       1.669   8.246  21.470  0.00  0.00    +0.000 OA
ENDROOT
BRANCH   1  15
ATOM     12  C   UNL     1       5.263   4.888  16.290  0.00  0.00    +0.000 A 
ATOM     13  C   UNL     1       4.189   4.174  16.813  0.00  0.00    +0.000 A 
ATOM     14  C   UNL     1       3.288   4.785  17.681  0.00  0.00    +0.000 A 
ATOM     15  C   UNL     1       3.452   6.122  18.054  0.00  0.00    +0.000 A 
ATOM     16  C   UNL     1       4.504   6.866  17.497  0.00  0.00    +0.000 A 
ATOM     17  C   UNL     1       5.413   6.239  16.615  0.00  0.00    +0.000 A 
BRANCH  12  19
ATOM     18  C   UNL     1       6.705   4.767  14.407  0.00  0.00    +0.000 C 
ATOM     19  O   UNL     1       6.110   4.134  15.528  0.00  0.00    +0.000 OA
ENDBRANCH  12  19
ENDBRANCH   1  15
BRANCH   6  20
ATOM     20  O   UNL     1      -2.204  11.663  17.789  0.00  0.00    +0.000 OA
ATOM     21  C   UNL     1      -2.525  10.977  16.569  0.00  0.00    +0.000 C 
ENDBRANCH   6  20
BRANCH   7  22
ATOM     22  O   UNL     1      -1.193  12.671  20.274  0.00  0.00    +0.000 OA
ATOM     23  H   UNL     1      -0.499  12.990  20.884  0.00  0.00    +0.000 HD
ENDBRANCH   7  22
TORSDOF 4
ENDMDL
MODEL 6
REMARK VINA RESULT:      -6.8      2.077      7.639
REMARK  Name = 
REMARK  6 active torsions:
REMARK  status: ('A' for Active; 'I' for Inactive)
REMARK    1  A    between atoms: C_1  and  O_2
REMARK    2  A    between atoms: O_2  and  C_3
REMARK    3  A    between atoms: C_6  and  C_7
REMARK    4  A    between atoms: C_12  and  O_13
REMARK    5  A    between atoms: O_13  and  C_14
REMARK    6  A    between atoms: C_15  and  O_16
REMARK                            x       y       z     vdW  Elec       q    Type
REMARK                         _______ _______ _______ _____ _____    ______ ____
ROOT
ATOM      1  C   UNL     1       1.338   8.934  20.004  0.00  0.00    +0.000 C 
ATOM      2  C   UNL     1       1.944   7.987  19.280  0.00  0.00    +0.000 C 
ATOM      3  C   UNL     1       2.557   8.104  17.911  0.00  0.00    +0.000 C 
ATOM      4  C   UNL     1       3.423   6.887  17.839  0.00  0.00    +0.000 A 
ATOM      5  C   UNL     1       4.564   6.666  17.091  0.00  0.00    +0.000 A 
ATOM      6  C   UNL     1       5.099   5.377  17.095  0.00  0.00    +0.000 A 
ATOM      7  C   UNL     1       4.389   4.323  17.699  0.00  0.00    +0.000 A 
ATOM      8  C   UNL     1       3.328   4.577  18.565  0.00  0.00    +0.000 A 
ATOM      9  C   UNL     1       2.938   5.896  18.690  0.00  0.00    +0.000 A 
ATOM     10  C   UNL     1       2.105   6.555  19.713  0.00  0.00    +0.000 C 
ATOM     11  O   UNL     1       1.684   6.046  20.732  0.00  0.00    +0.000 OA
ENDROOT
BRANCH   1  15
ATOM     12  C   UNL     1      -0.238  12.625  18.572  0.00  0.00    +0.000 A 
ATOM     13  C   UNL     1       1.049  12.520  19.090  0.00  0.00    +0.000 A 
ATOM     14  C   UNL     1       1.564  11.280  19.461  0.00  0.00    +0.000 A 
ATOM     15  C   UNL     1       0.794  10.120  19.332  0.00  0.00    +0.000 A 
ATOM     16  C   UNL     1      -0.488  10.207  18.766  0.00  0.00    +0.000 A 
ATOM     17  C   UNL     1      -1.003  11.469  18.391  0.00  0.00    +0.000 A 
BRANCH  12  19
ATOM     18  C   UNL     1       0.149  14.944  18.912  0.00  0.00    +0.000 C 
ATOM     19  O   UNL     1      -0.637  13.910  18.340  0.00  0.00    +0.000 OA
ENDBRANCH  12  19
ENDBRANCH   1  15
BRANCH   6  20
ATOM     20  O   UNL     1       6.310   5.203  16.475  0.00  0.00    +0.000 OA
ATOM     21  C   UNL     1       7.389   5.040  17.409  0.00  0.00    +0.000 C 
ENDBRANCH   6  20
BRANCH   7  22
ATOM     22  O   UNL     1       4.721   3.022  17.440  0.00  0.00    +0.000 OA
ATOM     23  H   UNL     1       3.882   2.521  17.454  0.00  0.00    +0.000 HD
ENDBRANCH   7  22
TORSDOF 4
ENDMDL
MODEL 7
REMARK VINA RESULT:      -6.8      1.753      7.511
REMARK  Name = 
REMARK  6 active torsions:
REMARK  status: ('A' for Active; 'I' for Inactive)
REMARK    1  A    between atoms: C_1  and  O_2
REMARK    2  A    between atoms: O_2  and  C_3
REMARK    3  A    between atoms: C_6  and  C_7
REMARK    4  A    between atoms: C_12  and  O_13
REMARK    5  A    between atoms: O_13  and  C_14
REMARK    6  A    between atoms: C_15  and  O_16
REMARK                            x       y       z     vdW  Elec       q    Type
REMARK                         _______ _______ _______ _____ _____    ______ ____
ROOT
ATOM      1  C   UNL     1       1.788   7.748  20.565  0.00  0.00    +0.000 C 
ATOM      2  C   UNL     1       2.166   6.743  19.768  0.00  0.00    +0.000 C 
ATOM      3  C   UNL     1       2.470   6.780  18.295  0.00  0.00    +0.000 C 
ATOM      4  C   UNL     1       3.230   5.509  18.089  0.00  0.00    +0.000 A 
ATOM      5  C   UNL     1       4.164   5.193  17.121  0.00  0.00    +0.000 A 
ATOM      6  C   UNL     1       4.615   3.874  17.064  0.00  0.00    +0.000 A 
ATOM      7  C   UNL     1       3.998   2.886  17.854  0.00  0.00    +0.000 A 
ATOM      8  C   UNL     1       3.169   3.232  18.918  0.00  0.00    +0.000 A 
ATOM      9  C   UNL     1       2.890   4.577  19.067  0.00  0.00    +0.000 A 
ATOM     10  C   UNL     1       2.340   5.318  20.217  0.00  0.00    +0.000 C 
ATOM     11  O   UNL     1       2.126   4.867  21.324  0.00  0.00    +0.000 OA
ENDROOT
BRANCH   1  15
ATOM     12  C   UNL     1      -0.486  10.935  18.881  0.00  0.00    +0.000 A 
ATOM     13  C   UNL     1      -0.665  10.510  20.194  0.00  0.00    +0.000 A 
ATOM     14  C   UNL     1       0.161   9.529  20.739  0.00  0.00    +0.000 A 
ATOM     15  C   UNL     1       1.176   8.946  19.976  0.00  0.00    +0.000 A 
ATOM     16  C   UNL     1       1.397   9.400  18.666  0.00  0.00    +0.000 A 
ATOM     17  C   UNL     1       0.555  10.397  18.120  0.00  0.00    +0.000 A 
BRANCH  12  19
ATOM     18  C   UNL     1      -2.703  11.319  18.121  0.00  0.00    +0.000 C 
ATOM     19  O   UNL     1      -1.425  11.832  18.458  0.00  0.00    +0.000 OA
ENDBRANCH  12  19
ENDBRANCH   1  15
BRANCH   6  20
ATOM     20  O   UNL     1       5.649   3.605  16.204  0.00  0.00    +0.000 OA
ATOM     21  C   UNL     1       6.767   4.487  16.390  0.00  0.00    +0.000 C 
ENDBRANCH   6  20
BRANCH   7  22
ATOM     22  O   UNL     1       4.193   1.559  17.586  0.00  0.00    +0.000 OA
ATOM     23  H   UNL     1       5.127   1.473  17.313  0.00  0.00    +0.000 HD
ENDBRANCH   7  22
TORSDOF 4
ENDMDL
MODEL 8
REMARK VINA RESULT:      -6.8      1.433      7.584
REMARK  Name = 
REMARK  6 active torsions:
REMARK  status: ('A' for Active; 'I' for Inactive)
REMARK    1  A    between atoms: C_1  and  O_2
REMARK    2  A    between atoms: O_2  and  C_3
REMARK    3  A    between atoms: C_6  and  C_7
REMARK    4  A    between atoms: C_12  and  O_13
REMARK    5  A    between atoms: O_13  and  C_14
REMARK    6  A    between atoms: C_15  and  O_16
REMARK                            x       y       z     vdW  Elec       q    Type
REMARK                         _______ _______ _______ _____ _____    ______ ____
ROOT
ATOM      1  C   UNL     1       2.168   7.233  20.022  0.00  0.00    +0.000 C 
ATOM      2  C   UNL     1       2.836   6.655  19.019  0.00  0.00    +0.000 C 
ATOM      3  C   UNL     1       3.358   7.285  17.756  0.00  0.00    +0.000 C 
ATOM      4  C   UNL     1       4.350   6.275  17.276  0.00  0.00    +0.000 A 
ATOM      5  C   UNL     1       5.466   6.452  16.480  0.00  0.00    +0.000 A 
ATOM      6  C   UNL     1       6.143   5.309  16.053  0.00  0.00    +0.000 A 
ATOM      7  C   UNL     1       5.590   4.036  16.288  0.00  0.00    +0.000 A 
ATOM      8  C   UNL     1       4.556   3.861  17.204  0.00  0.00    +0.000 A 
ATOM      9  C   UNL     1       4.027   5.009  17.761  0.00  0.00    +0.000 A 
ATOM     10  C   UNL     1       3.182   5.192  18.955  0.00  0.00    +0.000 C 
ATOM     11  O   UNL     1       2.877   4.332  19.756  0.00  0.00    +0.000 OA
ENDROOT
BRANCH   1  15
ATOM     12  C   UNL     1      -0.372  10.609  19.466  0.00  0.00    +0.000 A 
ATOM     13  C   UNL     1      -0.185  10.020  20.712  0.00  0.00    +0.000 A 
ATOM     14  C   UNL     1       0.725   8.978  20.873  0.00  0.00    +0.000 A 
ATOM     15  C   UNL     1       1.458   8.496  19.785  0.00  0.00    +0.000 A 
ATOM     16  C   UNL     1       1.313   9.113  18.532  0.00  0.00    +0.000 A 
ATOM     17  C   UNL     1       0.388  10.171  18.377  0.00  0.00    +0.000 A 
BRANCH  12  19
ATOM     18  C   UNL     1      -1.021  12.828  18.922  0.00  0.00    +0.000 C 
ATOM     19  O   UNL     1      -1.359  11.553  19.443  0.00  0.00    +0.000 OA
ENDBRANCH  12  19
ENDBRANCH   1  15
BRANCH   6  20
ATOM     20  O   UNL     1       7.330   5.497  15.393  0.00  0.00    +0.000 OA
ATOM     21  C   UNL     1       7.246   5.165  13.998  0.00  0.00    +0.000 C 
ENDBRANCH   6  20
BRANCH   7  22
ATOM     22  O   UNL     1       6.053   2.941  15.611  0.00  0.00    +0.000 OA
ATOM     23  H   UNL     1       7.025   2.953  15.710  0.00  0.00    +0.000 HD
ENDBRANCH   7  22
TORSDOF 4
ENDMDL
MODEL 9
REMARK VINA RESULT:      -6.7      1.905      7.790
REMARK  Name = 
REMARK  6 active torsions:
REMARK  status: ('A' for Active; 'I' for Inactive)
REMARK    1  A    between atoms: C_1  and  O_2
REMARK    2  A    between atoms: O_2  and  C_3
REMARK    3  A    between atoms: C_6  and  C_7
REMARK    4  A    between atoms: C_12  and  O_13
REMARK    5  A    between atoms: O_13  and  C_14
REMARK    6  A    between atoms: C_15  and  O_16
REMARK                            x       y       z     vdW  Elec       q    Type
REMARK                         _______ _______ _______ _____ _____    ______ ____
ROOT
ATOM      1  C   UNL     1       1.470   8.158  20.640  0.00  0.00    +0.000 C 
ATOM      2  C   UNL     1       2.054   7.327  19.771  0.00  0.00    +0.000 C 
ATOM      3  C   UNL     1       2.660   7.646  18.432  0.00  0.00    +0.000 C 
ATOM      4  C   UNL     1       3.504   6.442  18.162  0.00  0.00    +0.000 A 
ATOM      5  C   UNL     1       4.636   6.322  17.378  0.00  0.00    +0.000 A 
ATOM      6  C   UNL     1       5.149   5.040  17.175  0.00  0.00    +0.000 A 
ATOM      7  C   UNL     1       4.425   3.916  17.615  0.00  0.00    +0.000 A 
ATOM      8  C   UNL     1       3.375   4.048  18.519  0.00  0.00    +0.000 A 
ATOM      9  C   UNL     1       3.008   5.338  18.852  0.00  0.00    +0.000 A 
ATOM     10  C   UNL     1       2.194   5.842  19.974  0.00  0.00    +0.000 C 
ATOM     11  O   UNL     1       1.771   5.187  20.905  0.00  0.00    +0.000 OA
ENDROOT
BRANCH   1  15
ATOM     12  C   UNL     1      -0.491  11.807  19.640  0.00  0.00    +0.000 A 
ATOM     13  C   UNL     1       0.074  11.588  20.893  0.00  0.00    +0.000 A 
ATOM     14  C   UNL     1       0.789  10.421  21.153  0.00  0.00    +0.000 A 
ATOM     15  C   UNL     1       0.942   9.444  20.166  0.00  0.00    +0.000 A 
ATOM     16  C   UNL     1       0.418   9.674  18.884  0.00  0.00    +0.000 A 
ATOM     17  C   UNL     1      -0.305  10.861  18.628  0.00  0.00    +0.000 A 
BRANCH  12  19
ATOM     18  C   UNL     1      -2.369  13.040  20.411  0.00  0.00    +0.000 C 
ATOM     19  O   UNL     1      -1.236  12.949  19.562  0.00  0.00    +0.000 OA
ENDBRANCH  12  19
ENDBRANCH   1  15
BRANCH   6  20
ATOM     20  O   UNL     1       6.352   4.945  16.525  0.00  0.00    +0.000 OA
ATOM     21  C   UNL     1       7.450   4.719  17.423  0.00  0.00    +0.000 C 
ENDBRANCH   6  20
BRANCH   7  22
ATOM     22  O   UNL     1       4.732   2.666  17.152  0.00  0.00    +0.000 OA
ATOM     23  H   UNL     1       4.685   2.072  17.927  0.00  0.00    +0.000 HD
ENDBRANCH   7  22
TORSDOF 4
ENDMDL
