MODEL 1
REMARK VINA RESULT:      -9.4      0.000      0.000
REMARK  Name = 
REMARK  10 active torsions:
REMARK  status: ('A' for Active; 'I' for Inactive)
REMARK    1  A    between atoms: C_1  and  O_2
REMARK    2  A    between atoms: O_2  and  C_3
REMARK    3  A    between atoms: C_7  and  N_8
REMARK    4  A    between atoms: N_8  and  C_9
REMARK    5  A    between atoms: C_12  and  C_13
REMARK    6  A    between atoms: C_13  and  C_14
REMARK    7  A    between atoms: N_15  and  O_16
REMARK    8  A    between atoms: O_16  and  C_17
REMARK    9  A    between atoms: C_17  and  C_18
REMARK   10  A    between atoms: C_18  and  N_19
REMARK                            x       y       z     vdW  Elec       q    Type
REMARK                         _______ _______ _______ _____ _____    ______ ____
ROOT
ATOM      1  C   UNL     1       1.955   7.951  19.652  0.00  0.00    +0.000 A 
ATOM      2  C   UNL     1       1.785   8.581  18.413  0.00  0.00    +0.000 A 
ATOM      3  C   UNL     1       0.828   9.592  18.233  0.00  0.00    +0.000 A 
ATOM      4  C   UNL     1      -0.003   9.977  19.290  0.00  0.00    +0.000 A 
ATOM      5  C   UNL     1       0.197   9.397  20.547  0.00  0.00    +0.000 A 
ATOM      6  C   UNL     1       1.165   8.397  20.723  0.00  0.00    +0.000 A 
ENDROOT
BRANCH   4   7
ATOM      7  C   UNL     1      -1.117  10.961  19.104  0.00  0.00    +0.000 C 
ATOM      8  C   UNL     1      -1.055  12.276  19.859  0.00  0.00    +0.000 C 
ATOM      9  N   UNL     1      -2.077  10.685  18.268  0.00  0.00    +0.000 NA
BRANCH   9  10
ATOM     10  O   UNL     1      -3.021  11.730  18.199  0.00  0.00    +0.000 OA
BRANCH  10  11
ATOM     11  C   UNL     1      -3.855  11.514  17.053  0.00  0.00    +0.000 C 
BRANCH  11  12
ATOM     12  C   UNL     1      -5.318  11.835  17.408  0.00  0.00    +0.000 C 
BRANCH  12  13
ATOM     13  N   UNL     1      -5.747  11.438  18.773  0.00  0.00    +0.000 NA
ATOM     14  C   UNL     1      -6.078  12.637  19.563  0.00  0.00    +0.000 C 
ATOM     15  C   UNL     1      -6.481  12.284  20.998  0.00  0.00    +0.000 C 
ATOM     16  C   UNL     1      -7.631  11.285  21.022  0.00  0.00    +0.000 C 
ATOM     17  C   UNL     1      -7.289  10.078  20.163  0.00  0.00    +0.000 C 
ATOM     18  C   UNL     1      -6.878  10.497  18.750  0.00  0.00    +0.000 C 
ENDBRANCH  12  13
ENDBRANCH  11  12
ENDBRANCH  10  11
ENDBRANCH   9  10
ENDBRANCH   4   7
BRANCH   1  19
ATOM     19  N   UNL     1       2.909   6.928  19.897  0.00  0.00    +0.000 N 
ATOM     20  H   UNL     1       3.007   6.805  20.903  0.00  0.00    +0.000 HD
BRANCH  19  25
ATOM     21  C   UNL     1       5.621   5.435  15.765  0.00  0.00    +0.000 A 
ATOM     22  C   UNL     1       5.567   6.618  16.482  0.00  0.00    +0.000 A 
ATOM     23  C   UNL     1       4.795   6.689  17.633  0.00  0.00    +0.000 A 
ATOM     24  C   UNL     1       4.002   5.612  18.069  0.00  0.00    +0.000 A 
ATOM     25  C   UNL     1       3.132   5.710  19.197  0.00  0.00    +0.000 A 
ATOM     26  C   UNL     1       2.530   4.501  19.619  0.00  0.00    +0.000 A 
ATOM     27  C   UNL     1       1.669   4.092  20.677  0.00  0.00    +0.000 A 
ATOM     28  C   UNL     1       1.465   2.740  20.514  0.00  0.00    +0.000 A 
ATOM     29  O   UNL     1       2.117   2.294  19.409  0.00  0.00    +0.000 OA
ATOM     30  C   UNL     1       2.760   3.360  18.861  0.00  0.00    +0.000 A 
ATOM     31  N   UNL     1       3.491   3.258  17.741  0.00  0.00    +0.000 NA
ATOM     32  C   UNL     1       4.106   4.381  17.371  0.00  0.00    +0.000 A 
ATOM     33  C   UNL     1       4.905   4.328  16.233  0.00  0.00    +0.000 A 
BRANCH  21  35
ATOM     34  C   UNL     1       6.256   3.943  14.041  0.00  0.00    +0.000 C 
ATOM     35  O   UNL     1       6.344   5.243  14.621  0.00  0.00    +0.000 OA
ENDBRANCH  21  35
ENDBRANCH  19  25
ENDBRANCH   1  19
TORSDOF 8
ENDMDL
MODEL 2
REMARK VINA RESULT:      -9.4      2.372      3.076
REMARK  Name = 
REMARK  10 active torsions:
REMARK  status: ('A' for Active; 'I' for Inactive)
REMARK    1  A    between atoms: C_1  and  O_2
REMARK    2  A    between atoms: O_2  and  C_3
REMARK    3  A    between atoms: C_7  and  N_8
REMARK    4  A    between atoms: N_8  and  C_9
REMARK    5  A    between atoms: C_12  and  C_13
REMARK    6  A    between atoms: C_13  and  C_14
REMARK    7  A    between atoms: N_15  and  O_16
REMARK    8  A    between atoms: O_16  and  C_17
REMARK    9  A    between atoms: C_17  and  C_18
REMARK   10  A    between atoms: C_18  and  N_19
REMARK                            x       y       z     vdW  Elec       q    Type
REMARK                         _______ _______ _______ _____ _____    ______ ____
ROOT
ATOM      1  C   UNL     1       2.189   7.619  19.589  0.00  0.00    +0.000 A 
ATOM      2  C   UNL     1       1.430   8.166  20.632  0.00  0.00    +0.000 A 
ATOM      3  C   UNL     1       0.646   9.314  20.440  0.00  0.00    +0.000 A 
ATOM      4  C   UNL     1       0.626   9.959  19.199  0.00  0.00    +0.000 A 
ATOM      5  C   UNL     1       1.333   9.389  18.135  0.00  0.00    +0.000 A 
ATOM      6  C   UNL     1       2.103   8.233  18.331  0.00  0.00    +0.000 A 
ENDROOT
BRANCH   4   7
ATOM      7  C   UNL     1      -0.097  11.254  18.991  0.00  0.00    +0.000 C 
ATOM      8  C   UNL     1      -1.613  11.232  18.910  0.00  0.00    +0.000 C 
ATOM      9  N   UNL     1       0.585  12.362  18.935  0.00  0.00    +0.000 NA
BRANCH   9  10
ATOM     10  O   UNL     1      -0.256  13.481  18.764  0.00  0.00    +0.000 OA
BRANCH  10  11
ATOM     11  C   UNL     1       0.183  14.519  19.649  0.00  0.00    +0.000 C 
BRANCH  11  12
ATOM     12  C   UNL     1      -0.927  14.835  20.668  0.00  0.00    +0.000 C 
BRANCH  12  13
ATOM     13  N   UNL     1      -1.622  13.656  21.243  0.00  0.00    +0.000 NA
ATOM     14  C   UNL     1      -0.783  13.038  22.286  0.00  0.00    +0.000 C 
ATOM     15  C   UNL     1      -1.435  11.785  22.879  0.00  0.00    +0.000 C 
ATOM     16  C   UNL     1      -2.830  12.085  23.413  0.00  0.00    +0.000 C 
ATOM     17  C   UNL     1      -3.663  12.763  22.337  0.00  0.00    +0.000 C 
ATOM     18  C   UNL     1      -2.951  13.995  21.774  0.00  0.00    +0.000 C 
ENDBRANCH  12  13
ENDBRANCH  11  12
ENDBRANCH  10  11
ENDBRANCH   9  10
ENDBRANCH   4   7
BRANCH   1  19
ATOM     19  N   UNL     1       2.995   6.457  19.720  0.00  0.00    +0.000 N 
ATOM     20  H   UNL     1       2.903   6.099  20.669  0.00  0.00    +0.000 HD
BRANCH  19  25
ATOM     21  C   UNL     1       6.490   5.444  16.057  0.00  0.00    +0.000 A 
ATOM     22  C   UNL     1       6.402   6.422  17.035  0.00  0.00    +0.000 A 
ATOM     23  C   UNL     1       5.368   6.377  17.958  0.00  0.00    +0.000 A 
ATOM     24  C   UNL     1       4.354   5.404  17.900  0.00  0.00    +0.000 A 
ATOM     25  C   UNL     1       3.236   5.411  18.788  0.00  0.00    +0.000 A 
ATOM     26  C   UNL     1       2.390   4.277  18.723  0.00  0.00    +0.000 A 
ATOM     27  C   UNL     1       1.233   3.813  19.411  0.00  0.00    +0.000 A 
ATOM     28  C   UNL     1       0.905   2.600  18.850  0.00  0.00    +0.000 A 
ATOM     29  O   UNL     1       1.764   2.299  17.842  0.00  0.00    +0.000 OA
ATOM     30  C   UNL     1       2.662   3.316  17.758  0.00  0.00    +0.000 A 
ATOM     31  N   UNL     1       3.645   3.331  16.847  0.00  0.00    +0.000 NA
ATOM     32  C   UNL     1       4.478   4.368  16.939  0.00  0.00    +0.000 A 
ATOM     33  C   UNL     1       5.537   4.420  16.038  0.00  0.00    +0.000 A 
BRANCH  21  35
ATOM     34  C   UNL     1       7.083   4.749  13.874  0.00  0.00    +0.000 C 
ATOM     35  O   UNL     1       7.460   5.380  15.096  0.00  0.00    +0.000 OA
ENDBRANCH  21  35
ENDBRANCH  19  25
ENDBRANCH   1  19
TORSDOF 8
ENDMDL
MODEL 3
REMARK VINA RESULT:      -9.2      1.783      2.245
REMARK  Name = 
REMARK  10 active torsions:
REMARK  status: ('A' for Active; 'I' for Inactive)
REMARK    1  A    between atoms: C_1  and  O_2
REMARK    2  A    between atoms: O_2  and  C_3
REMARK    3  A    between atoms: C_7  and  N_8
REMARK    4  A    between atoms: N_8  and  C_9
REMARK    5  A    between atoms: C_12  and  C_13
REMARK    6  A    between atoms: C_13  and  C_14
REMARK    7  A    between atoms: N_15  and  O_16
REMARK    8  A    between atoms: O_16  and  C_17
REMARK    9  A    between atoms: C_17  and  C_18
REMARK   10  A    between atoms: C_18  and  N_19
REMARK                            x       y       z     vdW  Elec       q    Type
REMARK                         _______ _______ _______ _____ _____    ______ ____
ROOT
ATOM      1  C   UNL     1       2.041   7.787  19.535  0.00  0.00    +0.000 A 
ATOM      2  C   UNL     1       1.970   8.456  18.307  0.00  0.00    +0.000 A 
ATOM      3  C   UNL     1       1.221   9.634  18.159  0.00  0.00    +0.000 A 
ATOM      4  C   UNL     1       0.500  10.154  19.238  0.00  0.00    +0.000 A 
ATOM      5  C   UNL     1       0.610   9.528  20.484  0.00  0.00    +0.000 A 
ATOM      6  C   UNL     1       1.372   8.359  20.627  0.00  0.00    +0.000 A 
ENDROOT
BRANCH   4   7
ATOM      7  C   UNL     1      -0.409  11.335  19.088  0.00  0.00    +0.000 C 
ATOM      8  C   UNL     1       0.205  12.687  18.771  0.00  0.00    +0.000 C 
ATOM      9  N   UNL     1      -1.697  11.164  19.183  0.00  0.00    +0.000 NA
BRANCH   9  10
ATOM     10  O   UNL     1      -2.397  12.372  18.988  0.00  0.00    +0.000 OA
BRANCH  10  11
ATOM     11  C   UNL     1      -3.386  12.495  20.019  0.00  0.00    +0.000 C 
BRANCH  11  12
ATOM     12  C   UNL     1      -2.770  13.187  21.249  0.00  0.00    +0.000 C 
BRANCH  12  13
ATOM     13  N   UNL     1      -3.672  13.334  22.418  0.00  0.00    +0.000 NA
ATOM     14  C   UNL     1      -5.075  13.188  21.992  0.00  0.00    +0.000 C 
ATOM     15  C   UNL     1      -6.051  13.380  23.156  0.00  0.00    +0.000 C 
ATOM     16  C   UNL     1      -5.735  12.436  24.308  0.00  0.00    +0.000 C 
ATOM     17  C   UNL     1      -4.271  12.568  24.702  0.00  0.00    +0.000 C 
ATOM     18  C   UNL     1      -3.350  12.383  23.494  0.00  0.00    +0.000 C 
ENDBRANCH  12  13
ENDBRANCH  11  12
ENDBRANCH  10  11
ENDBRANCH   9  10
ENDBRANCH   4   7
BRANCH   1  19
ATOM     19  N   UNL     1       2.787   6.597  19.747  0.00  0.00    +0.000 N 
ATOM     20  H   UNL     1       2.684   6.314  20.720  0.00  0.00    +0.000 HD
BRANCH  19  25
ATOM     21  C   UNL     1       5.877   5.358  15.801  0.00  0.00    +0.000 A 
ATOM     22  C   UNL     1       5.858   6.422  16.688  0.00  0.00    +0.000 A 
ATOM     23  C   UNL     1       4.941   6.431  17.729  0.00  0.00    +0.000 A 
ATOM     24  C   UNL     1       3.973   5.422  17.882  0.00  0.00    +0.000 A 
ATOM     25  C   UNL     1       2.966   5.474  18.893  0.00  0.00    +0.000 A 
ATOM     26  C   UNL     1       2.172   4.311  19.034  0.00  0.00    +0.000 A 
ATOM     27  C   UNL     1       1.125   3.876  19.895  0.00  0.00    +0.000 A 
ATOM     28  C   UNL     1       0.790   2.603  19.490  0.00  0.00    +0.000 A 
ATOM     29  O   UNL     1       1.539   2.236  18.419  0.00  0.00    +0.000 OA
ATOM     30  C   UNL     1       2.374   3.271  18.135  0.00  0.00    +0.000 A 
ATOM     31  N   UNL     1       3.243   3.233  17.115  0.00  0.00    +0.000 NA
ATOM     32  C   UNL     1       4.033   4.302  17.012  0.00  0.00    +0.000 A 
ATOM     33  C   UNL     1       4.976   4.304  15.989  0.00  0.00    +0.000 A 
BRANCH  21  35
ATOM     34  C   UNL     1       6.481   4.139  13.864  0.00  0.00    +0.000 C 
ATOM     35  O   UNL     1       6.731   5.236  14.741  0.00  0.00    +0.000 OA
ENDBRANCH  21  35
ENDBRANCH  19  25
ENDBRANCH   1  19
TORSDOF 8
ENDMDL
MODEL 4
REMARK VINA RESULT:      -9.1      2.793      4.803
REMARK  Name = 
REMARK  10 active torsions:
REMARK  status: ('A' for Active; 'I' for Inactive)
REMARK    1  A    between atoms: C_1  and  O_2
REMARK    2  A    between atoms: O_2  and  C_3
REMARK    3  A    between atoms: C_7  and  N_8
REMARK    4  A    between atoms: N_8  and  C_9
REMARK    5  A    between atoms: C_12  and  C_13
REMARK    6  A    between atoms: C_13  and  C_14
REMARK    7  A    between atoms: N_15  and  O_16
REMARK    8  A    between atoms: O_16  and  C_17
REMARK    9  A    between atoms: C_17  and  C_18
REMARK   10  A    between atoms: C_18  and  N_19
REMARK                            x       y       z     vdW  Elec       q    Type
REMARK                         _______ _______ _______ _____ _____    ______ ____
ROOT
ATOM      1  C   UNL     1       2.194   7.660  19.401  0.00  0.00    +0.000 A 
ATOM      2  C   UNL     1       2.206   8.312  18.162  0.00  0.00    +0.000 A 
ATOM      3  C   UNL     1       1.470   9.488  17.949  0.00  0.00    +0.000 A 
ATOM      4  C   UNL     1       0.681  10.024  18.971  0.00  0.00    +0.000 A 
ATOM      5  C   UNL     1       0.707   9.415  20.230  0.00  0.00    +0.000 A 
ATOM      6  C   UNL     1       1.456   8.248  20.439  0.00  0.00    +0.000 A 
ENDROOT
BRANCH   4   7
ATOM      7  C   UNL     1      -0.214  11.204  18.744  0.00  0.00    +0.000 C 
ATOM      8  C   UNL     1      -1.707  10.966  18.610  0.00  0.00    +0.000 C 
ATOM      9  N   UNL     1       0.303  12.400  18.718  0.00  0.00    +0.000 NA
BRANCH   9  10
ATOM     10  O   UNL     1      -0.685  13.387  18.523  0.00  0.00    +0.000 OA
BRANCH  10  11
ATOM     11  C   UNL     1      -0.554  14.370  19.559  0.00  0.00    +0.000 C 
BRANCH  11  12
ATOM     12  C   UNL     1       0.934  14.581  19.889  0.00  0.00    +0.000 C 
BRANCH  12  13
ATOM     13  N   UNL     1       1.581  15.736  19.218  0.00  0.00    +0.000 NA
ATOM     14  C   UNL     1       2.627  15.260  18.296  0.00  0.00    +0.000 C 
ATOM     15  C   UNL     1       3.360  16.418  17.613  0.00  0.00    +0.000 C 
ATOM     16  C   UNL     1       2.387  17.345  16.895  0.00  0.00    +0.000 C 
ATOM     17  C   UNL     1       1.290  17.788  17.851  0.00  0.00    +0.000 C 
ATOM     18  C   UNL     1       0.610  16.587  18.512  0.00  0.00    +0.000 C 
ENDBRANCH  12  13
ENDBRANCH  11  12
ENDBRANCH  10  11
ENDBRANCH   9  10
ENDBRANCH   4   7
BRANCH   1  19
ATOM     19  N   UNL     1       2.922   6.472  19.679  0.00  0.00    +0.000 N 
ATOM     20  H   UNL     1       2.707   6.169  20.626  0.00  0.00    +0.000 HD
BRANCH  19  25
ATOM     21  C   UNL     1       6.496   5.324  16.134  0.00  0.00    +0.000 A 
ATOM     22  C   UNL     1       6.360   6.368  17.033  0.00  0.00    +0.000 A 
ATOM     23  C   UNL     1       5.317   6.353  17.948  0.00  0.00    +0.000 A 
ATOM     24  C   UNL     1       4.342   5.339  17.956  0.00  0.00    +0.000 A 
ATOM     25  C   UNL     1       3.214   5.369  18.831  0.00  0.00    +0.000 A 
ATOM     26  C   UNL     1       2.414   4.201  18.845  0.00  0.00    +0.000 A 
ATOM     27  C   UNL     1       1.267   3.745  19.556  0.00  0.00    +0.000 A 
ATOM     28  C   UNL     1       0.993   2.481  19.085  0.00  0.00    +0.000 A 
ATOM     29  O   UNL     1       1.874   2.139  18.111  0.00  0.00    +0.000 OA
ATOM     30  C   UNL     1       2.734   3.181  17.958  0.00  0.00    +0.000 A 
ATOM     31  N   UNL     1       3.726   3.166  17.056  0.00  0.00    +0.000 NA
ATOM     32  C   UNL     1       4.517   4.239  17.077  0.00  0.00    +0.000 A 
ATOM     33  C   UNL     1       5.584   4.265  16.184  0.00  0.00    +0.000 A 
BRANCH  21  35
ATOM     34  C   UNL     1       7.052   4.834  13.886  0.00  0.00    +0.000 C 
ATOM     35  O   UNL     1       7.479   5.226  15.189  0.00  0.00    +0.000 OA
ENDBRANCH  21  35
ENDBRANCH  19  25
ENDBRANCH   1  19
TORSDOF 8
ENDMDL
MODEL 5
REMARK VINA RESULT:      -9.1      1.837      2.829
REMARK  Name = 
REMARK  10 active torsions:
REMARK  status: ('A' for Active; 'I' for Inactive)
REMARK    1  A    between atoms: C_1  and  O_2
REMARK    2  A    between atoms: O_2  and  C_3
REMARK    3  A    between atoms: C_7  and  N_8
REMARK    4  A    between atoms: N_8  and  C_9
REMARK    5  A    between atoms: C_12  and  C_13
REMARK    6  A    between atoms: C_13  and  C_14
REMARK    7  A    between atoms: N_15  and  O_16
REMARK    8  A    between atoms: O_16  and  C_17
REMARK    9  A    between atoms: C_17  and  C_18
REMARK   10  A    between atoms: C_18  and  N_19
REMARK                            x       y       z     vdW  Elec       q    Type
REMARK                         _______ _______ _______ _____ _____    ______ ____
ROOT
ATOM      1  C   UNL     1       2.176   7.587  19.698  0.00  0.00    +0.000 A 
ATOM      2  C   UNL     1       1.397   8.029  20.774  0.00  0.00    +0.000 A 
ATOM      3  C   UNL     1       0.537   9.132  20.648  0.00  0.00    +0.000 A 
ATOM      4  C   UNL     1       0.460   9.835  19.442  0.00  0.00    +0.000 A 
ATOM      5  C   UNL     1       1.189   9.368  18.344  0.00  0.00    +0.000 A 
ATOM      6  C   UNL     1       2.035   8.257  18.473  0.00  0.00    +0.000 A 
ENDROOT
BRANCH   4   7
ATOM      7  C   UNL     1      -0.349  11.089  19.307  0.00  0.00    +0.000 C 
ATOM      8  C   UNL     1       0.333  12.422  19.561  0.00  0.00    +0.000 C 
ATOM      9  N   UNL     1      -1.593  11.007  18.929  0.00  0.00    +0.000 NA
BRANCH   9  10
ATOM     10  O   UNL     1      -2.190  12.280  18.829  0.00  0.00    +0.000 OA
BRANCH  10  11
ATOM     11  C   UNL     1      -3.596  12.143  19.073  0.00  0.00    +0.000 C 
BRANCH  11  12
ATOM     12  C   UNL     1      -3.942  12.731  20.453  0.00  0.00    +0.000 C 
BRANCH  12  13
ATOM     13  N   UNL     1      -2.789  13.235  21.241  0.00  0.00    +0.000 NA
ATOM     14  C   UNL     1      -3.122  14.542  21.836  0.00  0.00    +0.000 C 
ATOM     15  C   UNL     1      -1.946  15.130  22.621  0.00  0.00    +0.000 C 
ATOM     16  C   UNL     1      -1.449  14.162  23.686  0.00  0.00    +0.000 C 
ATOM     17  C   UNL     1      -1.156  12.807  23.060  0.00  0.00    +0.000 C 
ATOM     18  C   UNL     1      -2.361  12.282  22.276  0.00  0.00    +0.000 C 
ENDBRANCH  12  13
ENDBRANCH  11  12
ENDBRANCH  10  11
ENDBRANCH   9  10
ENDBRANCH   4   7
BRANCH   1  19
ATOM     19  N   UNL     1       3.058   6.475  19.762  0.00  0.00    +0.000 N 
ATOM     20  H   UNL     1       3.075   6.124  20.718  0.00  0.00    +0.000 HD
BRANCH  19  25
ATOM     21  C   UNL     1       6.490   5.445  16.045  0.00  0.00    +0.000 A 
ATOM     22  C   UNL     1       6.428   6.416  17.030  0.00  0.00    +0.000 A 
ATOM     23  C   UNL     1       5.406   6.378  17.967  0.00  0.00    +0.000 A 
ATOM     24  C   UNL     1       4.378   5.418  17.917  0.00  0.00    +0.000 A 
ATOM     25  C   UNL     1       3.273   5.432  18.820  0.00  0.00    +0.000 A 
ATOM     26  C   UNL     1       2.412   4.310  18.759  0.00  0.00    +0.000 A 
ATOM     27  C   UNL     1       1.258   3.856  19.459  0.00  0.00    +0.000 A 
ATOM     28  C   UNL     1       0.907   2.651  18.893  0.00  0.00    +0.000 A 
ATOM     29  O   UNL     1       1.749   2.346  17.872  0.00  0.00    +0.000 OA
ATOM     30  C   UNL     1       2.659   3.352  17.783  0.00  0.00    +0.000 A 
ATOM     31  N   UNL     1       3.630   3.362  16.858  0.00  0.00    +0.000 NA
ATOM     32  C   UNL     1       4.477   4.387  16.947  0.00  0.00    +0.000 A 
ATOM     33  C   UNL     1       5.524   4.433  16.031  0.00  0.00    +0.000 A 
BRANCH  21  35
ATOM     34  C   UNL     1       7.053   4.735  13.859  0.00  0.00    +0.000 C 
ATOM     35  O   UNL     1       7.445   5.376  15.070  0.00  0.00    +0.000 OA
ENDBRANCH  21  35
ENDBRANCH  19  25
ENDBRANCH   1  19
TORSDOF 8
ENDMDL
MODEL 6
REMARK VINA RESULT:      -9.0      0.794      1.083
REMARK  Name = 
REMARK  10 active torsions:
REMARK  status: ('A' for Active; 'I' for Inactive)
REMARK    1  A    between atoms: C_1  and  O_2
REMARK    2  A    between atoms: O_2  and  C_3
REMARK    3  A    between atoms: C_7  and  N_8
REMARK    4  A    between atoms: N_8  and  C_9
REMARK    5  A    between atoms: C_12  and  C_13
REMARK    6  A    between atoms: C_13  and  C_14
REMARK    7  A    between atoms: N_15  and  O_16
REMARK    8  A    between atoms: O_16  and  C_17
REMARK    9  A    between atoms: C_17  and  C_18
REMARK   10  A    between atoms: C_18  and  N_19
REMARK                            x       y       z     vdW  Elec       q    Type
REMARK                         _______ _______ _______ _____ _____    ______ ____
ROOT
ATOM      1  C   UNL     1       1.937   7.898  19.801  0.00  0.00    +0.000 A 
ATOM      2  C   UNL     1       1.810   8.561  18.574  0.00  0.00    +0.000 A 
ATOM      3  C   UNL     1       0.870   9.587  18.392  0.00  0.00    +0.000 A 
ATOM      4  C   UNL     1       0.013   9.955  19.433  0.00  0.00    +0.000 A 
ATOM      5  C   UNL     1       0.169   9.341  20.680  0.00  0.00    +0.000 A 
ATOM      6  C   UNL     1       1.121   8.326  20.859  0.00  0.00    +0.000 A 
ENDROOT
BRANCH   4   7
ATOM      7  C   UNL     1      -1.085  10.956  19.240  0.00  0.00    +0.000 C 
ATOM      8  C   UNL     1      -1.209  12.096  20.235  0.00  0.00    +0.000 C 
ATOM      9  N   UNL     1      -1.867  10.851  18.203  0.00  0.00    +0.000 NA
BRANCH   9  10
ATOM     10  O   UNL     1      -2.821  11.889  18.166  0.00  0.00    +0.000 OA
BRANCH  10  11
ATOM     11  C   UNL     1      -3.863  11.515  17.256  0.00  0.00    +0.000 C 
BRANCH  11  12
ATOM     12  C   UNL     1      -4.913  10.664  17.991  0.00  0.00    +0.000 C 
BRANCH  12  13
ATOM     13  N   UNL     1      -6.169  11.370  18.352  0.00  0.00    +0.000 NA
ATOM     14  C   UNL     1      -6.158  11.711  19.786  0.00  0.00    +0.000 C 
ATOM     15  C   UNL     1      -7.455  12.399  20.221  0.00  0.00    +0.000 C 
ATOM     16  C   UNL     1      -7.743  13.631  19.373  0.00  0.00    +0.000 C 
ATOM     17  C   UNL     1      -7.703  13.267  17.897  0.00  0.00    +0.000 C 
ATOM     18  C   UNL     1      -6.391  12.569  17.530  0.00  0.00    +0.000 C 
ENDBRANCH  12  13
ENDBRANCH  11  12
ENDBRANCH  10  11
ENDBRANCH   9  10
ENDBRANCH   4   7
BRANCH   1  19
ATOM     19  N   UNL     1       2.873   6.859  20.047  0.00  0.00    +0.000 N 
ATOM     20  H   UNL     1       3.021   6.782  21.052  0.00  0.00    +0.000 HD
BRANCH  19  25
ATOM     21  C   UNL     1       5.161   5.111  15.762  0.00  0.00    +0.000 A 
ATOM     22  C   UNL     1       5.182   6.334  16.412  0.00  0.00    +0.000 A 
ATOM     23  C   UNL     1       4.527   6.476  17.626  0.00  0.00    +0.000 A 
ATOM     24  C   UNL     1       3.777   5.432  18.200  0.00  0.00    +0.000 A 
ATOM     25  C   UNL     1       3.023   5.602  19.399  0.00  0.00    +0.000 A 
ATOM     26  C   UNL     1       2.461   4.423  19.947  0.00  0.00    +0.000 A 
ATOM     27  C   UNL     1       1.707   4.082  21.105  0.00  0.00    +0.000 A 
ATOM     28  C   UNL     1       1.484   2.725  21.040  0.00  0.00    +0.000 A 
ATOM     29  O   UNL     1       2.023   2.212  19.904  0.00  0.00    +0.000 OA
ATOM     30  C   UNL     1       2.612   3.239  19.236  0.00  0.00    +0.000 A 
ATOM     31  N   UNL     1       3.229   3.068  18.058  0.00  0.00    +0.000 NA
ATOM     32  C   UNL     1       3.809   4.163  17.566  0.00  0.00    +0.000 A 
ATOM     33  C   UNL     1       4.491   4.039  16.360  0.00  0.00    +0.000 A 
BRANCH  21  35
ATOM     34  C   UNL     1       7.191   4.767  14.594  0.00  0.00    +0.000 C 
ATOM     35  O   UNL     1       5.767   4.849  14.565  0.00  0.00    +0.000 OA
ENDBRANCH  21  35
ENDBRANCH  19  25
ENDBRANCH   1  19
TORSDOF 8
ENDMDL
MODEL 7
REMARK VINA RESULT:      -9.0      1.348      1.824
REMARK  Name = 
REMARK  10 active torsions:
REMARK  status: ('A' for Active; 'I' for Inactive)
REMARK    1  A    between atoms: C_1  and  O_2
REMARK    2  A    between atoms: O_2  and  C_3
REMARK    3  A    between atoms: C_7  and  N_8
REMARK    4  A    between atoms: N_8  and  C_9
REMARK    5  A    between atoms: C_12  and  C_13
REMARK    6  A    between atoms: C_13  and  C_14
REMARK    7  A    between atoms: N_15  and  O_16
REMARK    8  A    between atoms: O_16  and  C_17
REMARK    9  A    between atoms: C_17  and  C_18
REMARK   10  A    between atoms: C_18  and  N_19
REMARK                            x       y       z     vdW  Elec       q    Type
REMARK                         _______ _______ _______ _____ _____    ______ ____
ROOT
ATOM      1  C   UNL     1       1.980   7.775  19.754  0.00  0.00    +0.000 A 
ATOM      2  C   UNL     1       1.851   8.563  18.603  0.00  0.00    +0.000 A 
ATOM      3  C   UNL     1       0.994   9.674  18.571  0.00  0.00    +0.000 A 
ATOM      4  C   UNL     1       0.223  10.006  19.689  0.00  0.00    +0.000 A 
ATOM      5  C   UNL     1       0.387   9.264  20.862  0.00  0.00    +0.000 A 
ATOM      6  C   UNL     1       1.256   8.163  20.892  0.00  0.00    +0.000 A 
ENDROOT
BRANCH   4   7
ATOM      7  C   UNL     1      -0.793  11.106  19.651  0.00  0.00    +0.000 C 
ATOM      8  C   UNL     1      -1.437  11.453  18.321  0.00  0.00    +0.000 C 
ATOM      9  N   UNL     1      -1.131  11.699  20.762  0.00  0.00    +0.000 NA
BRANCH   9  10
ATOM     10  O   UNL     1      -2.115  12.685  20.544  0.00  0.00    +0.000 OA
BRANCH  10  11
ATOM     11  C   UNL     1      -2.580  13.151  21.818  0.00  0.00    +0.000 C 
BRANCH  11  12
ATOM     12  C   UNL     1      -3.991  13.748  21.668  0.00  0.00    +0.000 C 
BRANCH  12  13
ATOM     13  N   UNL     1      -5.111  12.782  21.794  0.00  0.00    +0.000 NA
ATOM     14  C   UNL     1      -6.133  13.316  22.712  0.00  0.00    +0.000 C 
ATOM     15  C   UNL     1      -7.290  12.334  22.916  0.00  0.00    +0.000 C 
ATOM     16  C   UNL     1      -7.915  11.930  21.587  0.00  0.00    +0.000 C 
ATOM     17  C   UNL     1      -6.839  11.427  20.637  0.00  0.00    +0.000 C 
ATOM     18  C   UNL     1      -5.705  12.444  20.491  0.00  0.00    +0.000 C 
ENDBRANCH  12  13
ENDBRANCH  11  12
ENDBRANCH  10  11
ENDBRANCH   9  10
ENDBRANCH   4   7
BRANCH   1  19
ATOM     19  N   UNL     1       2.834   6.645  19.850  0.00  0.00    +0.000 N 
ATOM     20  H   UNL     1       2.893   6.359  20.825  0.00  0.00    +0.000 HD
BRANCH  19  25
ATOM     21  C   UNL     1       5.777   5.437  15.783  0.00  0.00    +0.000 A 
ATOM     22  C   UNL     1       5.801   6.485  16.688  0.00  0.00    +0.000 A 
ATOM     23  C   UNL     1       4.918   6.487  17.758  0.00  0.00    +0.000 A 
ATOM     24  C   UNL     1       3.943   5.487  17.927  0.00  0.00    +0.000 A 
ATOM     25  C   UNL     1       2.971   5.535  18.971  0.00  0.00    +0.000 A 
ATOM     26  C   UNL     1       2.168   4.379  19.119  0.00  0.00    +0.000 A 
ATOM     27  C   UNL     1       1.144   3.942  20.007  0.00  0.00    +0.000 A 
ATOM     28  C   UNL     1       0.780   2.680  19.593  0.00  0.00    +0.000 A 
ATOM     29  O   UNL     1       1.489   2.323  18.491  0.00  0.00    +0.000 OA
ATOM     30  C   UNL     1       2.327   3.352  18.197  0.00  0.00    +0.000 A 
ATOM     31  N   UNL     1       3.162   3.321  17.148  0.00  0.00    +0.000 NA
ATOM     32  C   UNL     1       3.960   4.382  17.037  0.00  0.00    +0.000 A 
ATOM     33  C   UNL     1       4.870   4.391  15.984  0.00  0.00    +0.000 A 
BRANCH  21  35
ATOM     34  C   UNL     1       6.434   4.136  13.917  0.00  0.00    +0.000 C 
ATOM     35  O   UNL     1       6.593   5.323  14.693  0.00  0.00    +0.000 OA
ENDBRANCH  21  35
ENDBRANCH  19  25
ENDBRANCH   1  19
TORSDOF 8
ENDMDL
MODEL 8
REMARK VINA RESULT:      -9.0      1.523      2.038
REMARK  Name = 
REMARK  10 active torsions:
REMARK  status: ('A' for Active; 'I' for Inactive)
REMARK    1  A    between atoms: C_1  and  O_2
REMARK    2  A    between atoms: O_2  and  C_3
REMARK    3  A    between atoms: C_7  and  N_8
REMARK    4  A    between atoms: N_8  and  C_9
REMARK    5  A    between atoms: C_12  and  C_13
REMARK    6  A    between atoms: C_13  and  C_14
REMARK    7  A    between atoms: N_15  and  O_16
REMARK    8  A    between atoms: O_16  and  C_17
REMARK    9  A    between atoms: C_17  and  C_18
REMARK   10  A    between atoms: C_18  and  N_19
REMARK                            x       y       z     vdW  Elec       q    Type
REMARK                         _______ _______ _______ _____ _____    ______ ____
ROOT
ATOM      1  C   UNL     1       1.910   7.904  19.732  0.00  0.00    +0.000 A 
ATOM      2  C   UNL     1       1.781   8.638  18.546  0.00  0.00    +0.000 A 
ATOM      3  C   UNL     1       0.924   9.747  18.464  0.00  0.00    +0.000 A 
ATOM      4  C   UNL     1       0.154  10.130  19.566  0.00  0.00    +0.000 A 
ATOM      5  C   UNL     1       0.318   9.441  20.772  0.00  0.00    +0.000 A 
ATOM      6  C   UNL     1       1.187   8.343  20.851  0.00  0.00    +0.000 A 
ENDROOT
BRANCH   4   7
ATOM      7  C   UNL     1      -0.862  11.227  19.479  0.00  0.00    +0.000 C 
ATOM      8  C   UNL     1      -1.432  11.581  18.118  0.00  0.00    +0.000 C 
ATOM      9  N   UNL     1      -1.263  11.812  20.573  0.00  0.00    +0.000 NA
BRANCH   9  10
ATOM     10  O   UNL     1      -2.236  12.797  20.307  0.00  0.00    +0.000 OA
BRANCH  10  11
ATOM     11  C   UNL     1      -3.365  12.559  21.158  0.00  0.00    +0.000 C 
BRANCH  11  12
ATOM     12  C   UNL     1      -4.248  13.818  21.211  0.00  0.00    +0.000 C 
BRANCH  12  13
ATOM     13  N   UNL     1      -5.588  13.635  21.824  0.00  0.00    +0.000 NA
ATOM     14  C   UNL     1      -6.252  12.458  21.236  0.00  0.00    +0.000 C 
ATOM     15  C   UNL     1      -7.660  12.253  21.801  0.00  0.00    +0.000 C 
ATOM     16  C   UNL     1      -7.642  12.161  23.321  0.00  0.00    +0.000 C 
ATOM     17  C   UNL     1      -6.912  13.360  23.906  0.00  0.00    +0.000 C 
ATOM     18  C   UNL     1      -5.520  13.521  23.289  0.00  0.00    +0.000 C 
ENDBRANCH  12  13
ENDBRANCH  11  12
ENDBRANCH  10  11
ENDBRANCH   9  10
ENDBRANCH   4   7
BRANCH   1  19
ATOM     19  N   UNL     1       2.764   6.778  19.878  0.00  0.00    +0.000 N 
ATOM     20  H   UNL     1       2.801   6.520  20.862  0.00  0.00    +0.000 HD
BRANCH  19  25
ATOM     21  C   UNL     1       5.714   5.512  15.834  0.00  0.00    +0.000 A 
ATOM     22  C   UNL     1       5.718   6.589  16.706  0.00  0.00    +0.000 A 
ATOM     23  C   UNL     1       4.841   6.604  17.780  0.00  0.00    +0.000 A 
ATOM     24  C   UNL     1       3.891   5.587  17.986  0.00  0.00    +0.000 A 
ATOM     25  C   UNL     1       2.923   5.645  19.034  0.00  0.00    +0.000 A 
ATOM     26  C   UNL     1       2.148   4.476  19.223  0.00  0.00    +0.000 A 
ATOM     27  C   UNL     1       1.139   4.042  20.130  0.00  0.00    +0.000 A 
ATOM     28  C   UNL     1       0.804   2.760  19.757  0.00  0.00    +0.000 A 
ATOM     29  O   UNL     1       1.515   2.385  18.663  0.00  0.00    +0.000 OA
ATOM     30  C   UNL     1       2.327   3.424  18.333  0.00  0.00    +0.000 A 
ATOM     31  N   UNL     1       3.157   3.380  17.280  0.00  0.00    +0.000 NA
ATOM     32  C   UNL     1       3.930   4.455  17.131  0.00  0.00    +0.000 A 
ATOM     33  C   UNL     1       4.833   4.452  16.073  0.00  0.00    +0.000 A 
BRANCH  21  35
ATOM     34  C   UNL     1       6.342   4.203  13.965  0.00  0.00    +0.000 C 
ATOM     35  O   UNL     1       6.528   5.383  14.744  0.00  0.00    +0.000 OA
ENDBRANCH  21  35
ENDBRANCH  19  25
ENDBRANCH   1  19
TORSDOF 8
ENDMDL
MODEL 9
REMARK VINA RESULT:      -9.0      2.719      4.810
REMARK  Name = 
REMARK  10 active torsions:
REMARK  status: ('A' for Active; 'I' for Inactive)
REMARK    1  A    between atoms: C_1  and  O_2
REMARK    2  A    between atoms: O_2  and  C_3
REMARK    3  A    between atoms: C_7  and  N_8
REMARK    4  A    between atoms: N_8  and  C_9
REMARK    5  A    between atoms: C_12  and  C_13
REMARK    6  A    between atoms: C_13  and  C_14
REMARK    7  A    between atoms: N_15  and  O_16
REMARK    8  A    between atoms: O_16  and  C_17
REMARK    9  A    between atoms: C_17  and  C_18
REMARK   10  A    between atoms: C_18  and  N_19
REMARK                            x       y       z     vdW  Elec       q    Type
REMARK                         _______ _______ _______ _____ _____    ______ ____
ROOT
ATOM      1  C   UNL     1       2.187   7.657  19.482  0.00  0.00    +0.000 A 
ATOM      2  C   UNL     1       2.054   8.327  18.259  0.00  0.00    +0.000 A 
ATOM      3  C   UNL     1       1.229   9.455  18.131  0.00  0.00    +0.000 A 
ATOM      4  C   UNL     1       0.495   9.924  19.224  0.00  0.00    +0.000 A 
ATOM      5  C   UNL     1       0.664   9.300  20.464  0.00  0.00    +0.000 A 
ATOM      6  C   UNL     1       1.501   8.181  20.588  0.00  0.00    +0.000 A 
ENDROOT
BRANCH   4   7
ATOM      7  C   UNL     1      -0.489  11.046  19.095  0.00  0.00    +0.000 C 
ATOM      8  C   UNL     1      -1.662  10.875  18.147  0.00  0.00    +0.000 C 
ATOM      9  N   UNL     1      -0.341  12.111  19.832  0.00  0.00    +0.000 NA
BRANCH   9  10
ATOM     10  O   UNL     1      -1.369  13.048  19.600  0.00  0.00    +0.000 OA
BRANCH  10  11
ATOM     11  C   UNL     1      -0.818  14.366  19.724  0.00  0.00    +0.000 C 
BRANCH  11  12
ATOM     12  C   UNL     1       0.695  14.272  19.988  0.00  0.00    +0.000 C 
BRANCH  12  13
ATOM     13  N   UNL     1       1.566  14.835  18.925  0.00  0.00    +0.000 NA
ATOM     14  C   UNL     1       1.491  16.307  18.944  0.00  0.00    +0.000 C 
ATOM     15  C   UNL     1       2.335  16.937  17.832  0.00  0.00    +0.000 C 
ATOM     16  C   UNL     1       3.783  16.468  17.900  0.00  0.00    +0.000 C 
ATOM     17  C   UNL     1       3.836  14.948  17.928  0.00  0.00    +0.000 C 
ATOM     18  C   UNL     1       2.960  14.380  19.047  0.00  0.00    +0.000 C 
ENDBRANCH  12  13
ENDBRANCH  11  12
ENDBRANCH  10  11
ENDBRANCH   9  10
ENDBRANCH   4   7
BRANCH   1  19
ATOM     19  N   UNL     1       3.010   6.516  19.675  0.00  0.00    +0.000 N 
ATOM     20  H   UNL     1       2.920   6.206  20.641  0.00  0.00    +0.000 HD
BRANCH  19  25
ATOM     21  C   UNL     1       6.530   5.368  16.077  0.00  0.00    +0.000 A 
ATOM     22  C   UNL     1       6.425   6.394  17.002  0.00  0.00    +0.000 A 
ATOM     23  C   UNL     1       5.389   6.382  17.924  0.00  0.00    +0.000 A 
ATOM     24  C   UNL     1       4.389   5.391  17.915  0.00  0.00    +0.000 A 
ATOM     25  C   UNL     1       3.269   5.426  18.799  0.00  0.00    +0.000 A 
ATOM     26  C   UNL     1       2.441   4.278  18.792  0.00  0.00    +0.000 A 
ATOM     27  C   UNL     1       1.289   3.833  19.500  0.00  0.00    +0.000 A 
ATOM     28  C   UNL     1       0.981   2.587  19.002  0.00  0.00    +0.000 A 
ATOM     29  O   UNL     1       1.847   2.247  18.013  0.00  0.00    +0.000 OA
ATOM     30  C   UNL     1       2.730   3.272  17.878  0.00  0.00    +0.000 A 
ATOM     31  N   UNL     1       3.716   3.256  16.969  0.00  0.00    +0.000 NA
ATOM     32  C   UNL     1       4.532   4.308  17.009  0.00  0.00    +0.000 A 
ATOM     33  C   UNL     1       5.593   4.330  16.109  0.00  0.00    +0.000 A 
BRANCH  21  35
ATOM     34  C   UNL     1       7.073   4.817  13.840  0.00  0.00    +0.000 C 
ATOM     35  O   UNL     1       7.503   5.270  15.122  0.00  0.00    +0.000 OA
ENDBRANCH  21  35
ENDBRANCH  19  25
ENDBRANCH   1  19
TORSDOF 8
ENDMDL
