MODEL 1
REMARK VINA RESULT:      -7.6      0.000      0.000
REMARK  Name = 
REMARK  7 active torsions:
REMARK  status: ('A' for Active; 'I' for Inactive)
REMARK    1  A    between atoms: C_1  and  O_2
REMARK    2  A    between atoms: O_2  and  C_3
REMARK    3  A    between atoms: C_7  and  N_8
REMARK    4  A    between atoms: N_8  and  C_9
REMARK    5  A    between atoms: N_12  and  C_13
REMARK    6  A    between atoms: C_15  and  S_16
REMARK    7  A    between atoms: S_16  and  C_17
REMARK                            x       y       z     vdW  Elec       q    Type
REMARK                         _______ _______ _______ _____ _____    ______ ____
ROOT
ATOM      1  N   UNL     1       3.026   4.079  19.782  0.00  0.00    +0.000 N 
ATOM      2  C   UNL     1       2.644   2.695  20.087  0.00  0.00    +0.000 C 
ATOM      3  C   UNL     1       2.169   5.118  20.149  0.00  0.00    +0.000 C 
ATOM      4  N   UNL     1       0.933   4.953  20.510  0.00  0.00    +0.000 NA
ATOM      5  N   UNL     1       2.726   6.376  20.166  0.00  0.00    +0.000 N 
ATOM      6  H   UNL     1       0.653   3.980  20.464  0.00  0.00    +0.000 HD
ATOM      7  H   UNL     1       3.600   6.448  20.673  0.00  0.00    +0.000 HD
ENDROOT
BRANCH   5   8
ATOM      8  C   UNL     1       1.956   7.562  20.141  0.00  0.00    +0.000 A 
ATOM      9  C   UNL     1       1.277   7.972  21.308  0.00  0.00    +0.000 A 
ATOM     10  C   UNL     1       0.550   9.165  21.358  0.00  0.00    +0.000 A 
ATOM     11  C   UNL     1       0.500   9.971  20.220  0.00  0.00    +0.000 A 
ATOM     12  C   UNL     1       1.155   9.582  19.046  0.00  0.00    +0.000 A 
ATOM     13  C   UNL     1       1.868   8.381  19.005  0.00  0.00    +0.000 A 
ATOM     14 CL   UNL     1       2.633   7.923  17.525  0.00  0.00    +0.000 Cl
BRANCH  10  15
ATOM     15  S   UNL     1      -0.375   9.639  22.805  0.00  0.00    +0.000 S 
ATOM     16  C   UNL     1      -0.727  11.380  22.427  0.00  0.00    +0.000 C 
ENDBRANCH  10  15
ENDBRANCH   5   8
BRANCH   1  21
ATOM     17  C   UNL     1       6.364   4.571  18.096  0.00  0.00    +0.000 A 
ATOM     18  C   UNL     1       5.995   4.501  16.754  0.00  0.00    +0.000 A 
ATOM     19  C   UNL     1       4.667   4.273  16.408  0.00  0.00    +0.000 A 
ATOM     20  C   UNL     1       3.703   4.112  17.405  0.00  0.00    +0.000 A 
ATOM     21  C   UNL     1       4.032   4.197  18.772  0.00  0.00    +0.000 A 
ATOM     22  C   UNL     1       5.389   4.414  19.089  0.00  0.00    +0.000 A 
BRANCH  17  24
ATOM     23  C   UNL     1       8.040   5.803  19.259  0.00  0.00    +0.000 C 
ATOM     24  O   UNL     1       7.697   4.811  18.300  0.00  0.00    +0.000 OA
ENDBRANCH  17  24
ENDBRANCH   1  21
TORSDOF 4
ENDMDL
MODEL 2
REMARK VINA RESULT:      -7.5      1.235      1.912
REMARK  Name = 
REMARK  7 active torsions:
REMARK  status: ('A' for Active; 'I' for Inactive)
REMARK    1  A    between atoms: C_1  and  O_2
REMARK    2  A    between atoms: O_2  and  C_3
REMARK    3  A    between atoms: C_7  and  N_8
REMARK    4  A    between atoms: N_8  and  C_9
REMARK    5  A    between atoms: N_12  and  C_13
REMARK    6  A    between atoms: C_15  and  S_16
REMARK    7  A    between atoms: S_16  and  C_17
REMARK                            x       y       z     vdW  Elec       q    Type
REMARK                         _______ _______ _______ _____ _____    ______ ____
ROOT
ATOM      1  N   UNL     1       3.691   4.573  19.383  0.00  0.00    +0.000 N 
ATOM      2  C   UNL     1       3.496   3.119  19.374  0.00  0.00    +0.000 C 
ATOM      3  C   UNL     1       2.624   5.401  19.736  0.00  0.00    +0.000 C 
ATOM      4  N   UNL     1       1.389   5.010  19.810  0.00  0.00    +0.000 NA
ATOM      5  N   UNL     1       2.955   6.694  20.069  0.00  0.00    +0.000 N 
ATOM      6  H   UNL     1       1.285   4.035  19.550  0.00  0.00    +0.000 HD
ATOM      7  H   UNL     1       3.703   6.782  20.745  0.00  0.00    +0.000 HD
ENDROOT
BRANCH   5   8
ATOM      8  C   UNL     1       2.015   7.752  20.086  0.00  0.00    +0.000 A 
ATOM      9  C   UNL     1       1.353   8.072  21.289  0.00  0.00    +0.000 A 
ATOM     10  C   UNL     1       0.460   9.144  21.377  0.00  0.00    +0.000 A 
ATOM     11  C   UNL     1       0.223   9.918  20.240  0.00  0.00    +0.000 A 
ATOM     12  C   UNL     1       0.859   9.615  19.031  0.00  0.00    +0.000 A 
ATOM     13  C   UNL     1       1.740   8.533  18.952  0.00  0.00    +0.000 A 
ATOM     14 CL   UNL     1       2.477   8.174  17.432  0.00  0.00    +0.000 Cl
BRANCH  10  15
ATOM     15  S   UNL     1      -0.439   9.495  22.875  0.00  0.00    +0.000 S 
ATOM     16  C   UNL     1      -0.879  11.236  22.606  0.00  0.00    +0.000 C 
ENDBRANCH  10  15
ENDBRANCH   5   8
BRANCH   1  21
ATOM     17  C   UNL     1       5.887   5.589  16.488  0.00  0.00    +0.000 A 
ATOM     18  C   UNL     1       7.097   5.816  17.142  0.00  0.00    +0.000 A 
ATOM     19  C   UNL     1       7.184   5.658  18.521  0.00  0.00    +0.000 A 
ATOM     20  C   UNL     1       6.059   5.274  19.253  0.00  0.00    +0.000 A 
ATOM     21  C   UNL     1       4.823   5.014  18.627  0.00  0.00    +0.000 A 
ATOM     22  C   UNL     1       4.765   5.198  17.230  0.00  0.00    +0.000 A 
BRANCH  17  24
ATOM     23  C   UNL     1       6.698   4.830  14.381  0.00  0.00    +0.000 C 
ATOM     24  O   UNL     1       5.938   5.768  15.131  0.00  0.00    +0.000 OA
ENDBRANCH  17  24
ENDBRANCH   1  21
TORSDOF 4
ENDMDL
MODEL 3
REMARK VINA RESULT:      -7.1      1.125      1.148
REMARK  Name = 
REMARK  7 active torsions:
REMARK  status: ('A' for Active; 'I' for Inactive)
REMARK    1  A    between atoms: C_1  and  O_2
REMARK    2  A    between atoms: O_2  and  C_3
REMARK    3  A    between atoms: C_7  and  N_8
REMARK    4  A    between atoms: N_8  and  C_9
REMARK    5  A    between atoms: N_12  and  C_13
REMARK    6  A    between atoms: C_15  and  S_16
REMARK    7  A    between atoms: S_16  and  C_17
REMARK                            x       y       z     vdW  Elec       q    Type
REMARK                         _______ _______ _______ _____ _____    ______ ____
ROOT
ATOM      1  N   UNL     1       3.342   4.590  19.464  0.00  0.00    +0.000 N 
ATOM      2  C   UNL     1       3.203   3.167  19.796  0.00  0.00    +0.000 C 
ATOM      3  C   UNL     1       2.437   5.506  20.005  0.00  0.00    +0.000 C 
ATOM      4  N   UNL     1       1.319   5.179  20.576  0.00  0.00    +0.000 NA
ATOM      5  N   UNL     1       2.822   6.827  19.954  0.00  0.00    +0.000 N 
ATOM      6  H   UNL     1       1.163   4.177  20.556  0.00  0.00    +0.000 HD
ATOM      7  H   UNL     1       3.755   7.012  20.299  0.00  0.00    +0.000 HD
ENDROOT
BRANCH   5   8
ATOM      8  C   UNL     1       1.912   7.901  20.098  0.00  0.00    +0.000 A 
ATOM      9  C   UNL     1       1.348   8.166  21.363  0.00  0.00    +0.000 A 
ATOM     10  C   UNL     1       0.491   9.250  21.576  0.00  0.00    +0.000 A 
ATOM     11  C   UNL     1       0.190  10.091  20.503  0.00  0.00    +0.000 A 
ATOM     12  C   UNL     1       0.728   9.844  19.236  0.00  0.00    +0.000 A 
ATOM     13  C   UNL     1       1.574   8.750  19.033  0.00  0.00    +0.000 A 
ATOM     14 CL   UNL     1       2.188   8.462  17.444  0.00  0.00    +0.000 Cl
BRANCH  10  15
ATOM     15  S   UNL     1      -0.287   9.535  23.154  0.00  0.00    +0.000 S 
ATOM     16  C   UNL     1      -1.076  11.143  22.857  0.00  0.00    +0.000 C 
ENDBRANCH  10  15
ENDBRANCH   5   8
BRANCH   1  21
ATOM     17  C   UNL     1       5.708   6.228  17.026  0.00  0.00    +0.000 A 
ATOM     18  C   UNL     1       5.610   5.361  15.940  0.00  0.00    +0.000 A 
ATOM     19  C   UNL     1       4.793   4.238  16.016  0.00  0.00    +0.000 A 
ATOM     20  C   UNL     1       4.070   3.978  17.182  0.00  0.00    +0.000 A 
ATOM     21  C   UNL     1       4.125   4.842  18.294  0.00  0.00    +0.000 A 
ATOM     22  C   UNL     1       4.975   5.962  18.189  0.00  0.00    +0.000 A 
BRANCH  17  24
ATOM     23  C   UNL     1       7.647   7.441  17.694  0.00  0.00    +0.000 C 
ATOM     24  O   UNL     1       6.537   7.298  16.817  0.00  0.00    +0.000 OA
ENDBRANCH  17  24
ENDBRANCH   1  21
TORSDOF 4
ENDMDL
MODEL 4
REMARK VINA RESULT:      -6.8      1.378      1.857
REMARK  Name = 
REMARK  7 active torsions:
REMARK  status: ('A' for Active; 'I' for Inactive)
REMARK    1  A    between atoms: C_1  and  O_2
REMARK    2  A    between atoms: O_2  and  C_3
REMARK    3  A    between atoms: C_7  and  N_8
REMARK    4  A    between atoms: N_8  and  C_9
REMARK    5  A    between atoms: N_12  and  C_13
REMARK    6  A    between atoms: C_15  and  S_16
REMARK    7  A    between atoms: S_16  and  C_17
REMARK                            x       y       z     vdW  Elec       q    Type
REMARK                         _______ _______ _______ _____ _____    ______ ____
ROOT
ATOM      1  N   UNL     1       3.385   4.729  19.435  0.00  0.00    +0.000 N 
ATOM      2  C   UNL     1       3.293   3.294  19.732  0.00  0.00    +0.000 C 
ATOM      3  C   UNL     1       2.441   5.599  19.983  0.00  0.00    +0.000 C 
ATOM      4  N   UNL     1       1.326   5.218  20.529  0.00  0.00    +0.000 NA
ATOM      5  N   UNL     1       2.777   6.933  19.969  0.00  0.00    +0.000 N 
ATOM      6  H   UNL     1       1.207   4.212  20.482  0.00  0.00    +0.000 HD
ATOM      7  H   UNL     1       3.698   7.144  20.332  0.00  0.00    +0.000 HD
ENDROOT
BRANCH   5   8
ATOM      8  C   UNL     1       1.827   7.971  20.124  0.00  0.00    +0.000 A 
ATOM      9  C   UNL     1       1.287   8.230  21.401  0.00  0.00    +0.000 A 
ATOM     10  C   UNL     1       0.391   9.280  21.622  0.00  0.00    +0.000 A 
ATOM     11  C   UNL     1       0.026  10.092  20.547  0.00  0.00    +0.000 A 
ATOM     12  C   UNL     1       0.539   9.849  19.269  0.00  0.00    +0.000 A 
ATOM     13  C   UNL     1       1.424   8.788  19.057  0.00  0.00    +0.000 A 
ATOM     14 CL   UNL     1       2.006   8.503  17.456  0.00  0.00    +0.000 Cl
BRANCH  10  15
ATOM     15  S   UNL     1      -0.355   9.555  23.218  0.00  0.00    +0.000 S 
ATOM     16  C   UNL     1      -1.151  11.164  22.946  0.00  0.00    +0.000 C 
ENDBRANCH  10  15
ENDBRANCH   5   8
BRANCH   1  21
ATOM     17  C   UNL     1       5.421   4.339  16.284  0.00  0.00    +0.000 A 
ATOM     18  C   UNL     1       5.802   5.659  16.050  0.00  0.00    +0.000 A 
ATOM     19  C   UNL     1       5.376   6.668  16.907  0.00  0.00    +0.000 A 
ATOM     20  C   UNL     1       4.565   6.361  18.001  0.00  0.00    +0.000 A 
ATOM     21  C   UNL     1       4.176   5.037  18.284  0.00  0.00    +0.000 A 
ATOM     22  C   UNL     1       4.612   4.039  17.387  0.00  0.00    +0.000 A 
BRANCH  17  24
ATOM     23  C   UNL     1       6.253   3.941  14.087  0.00  0.00    +0.000 C 
ATOM     24  O   UNL     1       5.916   3.442  15.374  0.00  0.00    +0.000 OA
ENDBRANCH  17  24
ENDBRANCH   1  21
TORSDOF 4
ENDMDL
MODEL 5
REMARK VINA RESULT:      -6.7      3.936      7.215
REMARK  Name = 
REMARK  7 active torsions:
REMARK  status: ('A' for Active; 'I' for Inactive)
REMARK    1  A    between atoms: C_1  and  O_2
REMARK    2  A    between atoms: O_2  and  C_3
REMARK    3  A    between atoms: C_7  and  N_8
REMARK    4  A    between atoms: N_8  and  C_9
REMARK    5  A    between atoms: N_12  and  C_13
REMARK    6  A    between atoms: C_15  and  S_16
REMARK    7  A    between atoms: S_16  and  C_17
REMARK                            x       y       z     vdW  Elec       q    Type
REMARK                         _______ _______ _______ _____ _____    ______ ____
ROOT
ATOM      1  N   UNL     1       2.606   3.707  18.606  0.00  0.00    +0.000 N 
ATOM      2  C   UNL     1       2.047   2.618  19.416  0.00  0.00    +0.000 C 
ATOM      3  C   UNL     1       3.643   3.428  17.714  0.00  0.00    +0.000 C 
ATOM      4  N   UNL     1       4.338   2.332  17.721  0.00  0.00    +0.000 NA
ATOM      5  N   UNL     1       3.875   4.382  16.749  0.00  0.00    +0.000 N 
ATOM      6  H   UNL     1       4.059   1.713  18.474  0.00  0.00    +0.000 HD
ATOM      7  H   UNL     1       3.052   4.685  16.244  0.00  0.00    +0.000 HD
ENDROOT
BRANCH   5   8
ATOM      8  C   UNL     1       5.083   4.460  16.016  0.00  0.00    +0.000 A 
ATOM      9  C   UNL     1       5.124   3.975  14.693  0.00  0.00    +0.000 A 
ATOM     10  C   UNL     1       6.272   4.081  13.904  0.00  0.00    +0.000 A 
ATOM     11  C   UNL     1       7.407   4.687  14.444  0.00  0.00    +0.000 A 
ATOM     12  C   UNL     1       7.397   5.168  15.758  0.00  0.00    +0.000 A 
ATOM     13  C   UNL     1       6.246   5.044  16.542  0.00  0.00    +0.000 A 
ATOM     14 CL   UNL     1       6.288   5.620  18.170  0.00  0.00    +0.000 Cl
BRANCH  10  15
ATOM     15  S   UNL     1       6.348   3.392  12.261  0.00  0.00    +0.000 S 
ATOM     16  C   UNL     1       4.583   3.312  11.845  0.00  0.00    +0.000 C 
ENDBRANCH  10  15
ENDBRANCH   5   8
BRANCH   1  21
ATOM     17  C   UNL     1       2.306   7.459  18.860  0.00  0.00    +0.000 A 
ATOM     18  C   UNL     1       1.823   7.598  20.160  0.00  0.00    +0.000 A 
ATOM     19  C   UNL     1       1.578   6.470  20.936  0.00  0.00    +0.000 A 
ATOM     20  C   UNL     1       1.814   5.197  20.413  0.00  0.00    +0.000 A 
ATOM     21  C   UNL     1       2.323   5.015  19.112  0.00  0.00    +0.000 A 
ATOM     22  C   UNL     1       2.545   6.178  18.345  0.00  0.00    +0.000 A 
BRANCH  17  24
ATOM     23  C   UNL     1       1.378   9.467  17.974  0.00  0.00    +0.000 C 
ATOM     24  O   UNL     1       2.514   8.645  18.208  0.00  0.00    +0.000 OA
ENDBRANCH  17  24
ENDBRANCH   1  21
TORSDOF 4
ENDMDL
MODEL 6
REMARK VINA RESULT:      -6.6      1.552      2.199
REMARK  Name = 
REMARK  7 active torsions:
REMARK  status: ('A' for Active; 'I' for Inactive)
REMARK    1  A    between atoms: C_1  and  O_2
REMARK    2  A    between atoms: O_2  and  C_3
REMARK    3  A    between atoms: C_7  and  N_8
REMARK    4  A    between atoms: N_8  and  C_9
REMARK    5  A    between atoms: N_12  and  C_13
REMARK    6  A    between atoms: C_15  and  S_16
REMARK    7  A    between atoms: S_16  and  C_17
REMARK                            x       y       z     vdW  Elec       q    Type
REMARK                         _______ _______ _______ _____ _____    ______ ____
ROOT
ATOM      1  N   UNL     1       4.005   4.926  18.579  0.00  0.00    +0.000 N 
ATOM      2  C   UNL     1       3.903   3.655  17.851  0.00  0.00    +0.000 C 
ATOM      3  C   UNL     1       2.847   5.669  18.816  0.00  0.00    +0.000 C 
ATOM      4  N   UNL     1       1.712   5.462  18.222  0.00  0.00    +0.000 NA
ATOM      5  N   UNL     1       2.947   6.638  19.787  0.00  0.00    +0.000 N 
ATOM      6  H   UNL     1       1.773   4.714  17.540  0.00  0.00    +0.000 HD
ATOM      7  H   UNL     1       3.346   6.325  20.662  0.00  0.00    +0.000 HD
ENDROOT
BRANCH   5   8
ATOM      8  C   UNL     1       2.032   7.711  19.904  0.00  0.00    +0.000 A 
ATOM      9  C   UNL     1       1.324   7.890  21.110  0.00  0.00    +0.000 A 
ATOM     10  C   UNL     1       0.453   8.966  21.301  0.00  0.00    +0.000 A 
ATOM     11  C   UNL     1       0.284   9.888  20.267  0.00  0.00    +0.000 A 
ATOM     12  C   UNL     1       0.966   9.728  19.057  0.00  0.00    +0.000 A 
ATOM     13  C   UNL     1       1.825   8.641  18.873  0.00  0.00    +0.000 A 
ATOM     14 CL   UNL     1       2.621   8.462  17.350  0.00  0.00    +0.000 Cl
BRANCH  10  15
ATOM     15  S   UNL     1      -0.504   9.144  22.795  0.00  0.00    +0.000 S 
ATOM     16  C   UNL     1      -0.851  10.926  22.765  0.00  0.00    +0.000 C 
ENDBRANCH  10  15
ENDBRANCH   5   8
BRANCH   1  21
ATOM     17  C   UNL     1       7.008   7.057  17.759  0.00  0.00    +0.000 A 
ATOM     18  C   UNL     1       7.961   6.511  18.617  0.00  0.00    +0.000 A 
ATOM     19  C   UNL     1       7.614   5.469  19.471  0.00  0.00    +0.000 A 
ATOM     20  C   UNL     1       6.311   4.970  19.470  0.00  0.00    +0.000 A 
ATOM     21  C   UNL     1       5.324   5.479  18.603  0.00  0.00    +0.000 A 
ATOM     22  C   UNL     1       5.704   6.546  17.762  0.00  0.00    +0.000 A 
BRANCH  17  24
ATOM     23  C   UNL     1       8.118   9.160  17.614  0.00  0.00    +0.000 C 
ATOM     24  O   UNL     1       7.480   8.068  16.965  0.00  0.00    +0.000 OA
ENDBRANCH  17  24
ENDBRANCH   1  21
TORSDOF 4
ENDMDL
MODEL 7
REMARK VINA RESULT:      -6.3      4.864      7.361
REMARK  Name = 
REMARK  7 active torsions:
REMARK  status: ('A' for Active; 'I' for Inactive)
REMARK    1  A    between atoms: C_1  and  O_2
REMARK    2  A    between atoms: O_2  and  C_3
REMARK    3  A    between atoms: C_7  and  N_8
REMARK    4  A    between atoms: N_8  and  C_9
REMARK    5  A    between atoms: N_12  and  C_13
REMARK    6  A    between atoms: C_15  and  S_16
REMARK    7  A    between atoms: S_16  and  C_17
REMARK                            x       y       z     vdW  Elec       q    Type
REMARK                         _______ _______ _______ _____ _____    ______ ____
ROOT
ATOM      1  N   UNL     1       0.548  11.534  18.851  0.00  0.00    +0.000 N 
ATOM      2  C   UNL     1       1.769  12.323  18.646  0.00  0.00    +0.000 C 
ATOM      3  C   UNL     1      -0.652  11.981  18.296  0.00  0.00    +0.000 C 
ATOM      4  N   UNL     1      -0.840  13.176  17.825  0.00  0.00    +0.000 NA
ATOM      5  N   UNL     1      -1.658  11.046  18.214  0.00  0.00    +0.000 N 
ATOM      6  H   UNL     1      -0.018  13.760  17.938  0.00  0.00    +0.000 HD
ATOM      7  H   UNL     1      -1.387  10.165  17.796  0.00  0.00    +0.000 HD
ENDROOT
BRANCH   5   8
ATOM      8  C   UNL     1      -3.020  11.390  18.040  0.00  0.00    +0.000 A 
ATOM      9  C   UNL     1      -3.771  11.829  19.150  0.00  0.00    +0.000 A 
ATOM     10  C   UNL     1      -5.101  12.238  19.025  0.00  0.00    +0.000 A 
ATOM     11  C   UNL     1      -5.698  12.212  17.764  0.00  0.00    +0.000 A 
ATOM     12  C   UNL     1      -4.979  11.770  16.648  0.00  0.00    +0.000 A 
ATOM     13  C   UNL     1      -3.653  11.352  16.788  0.00  0.00    +0.000 A 
ATOM     14 CL   UNL     1      -2.813  10.783  15.390  0.00  0.00    +0.000 Cl
BRANCH  10  15
ATOM     15  S   UNL     1      -6.074  12.712  20.442  0.00  0.00    +0.000 S 
ATOM     16  C   UNL     1      -4.767  13.211  21.598  0.00  0.00    +0.000 C 
ENDBRANCH  10  15
ENDBRANCH   5   8
BRANCH   1  21
ATOM     17  C   UNL     1       1.169   8.398  20.854  0.00  0.00    +0.000 A 
ATOM     18  C   UNL     1       0.699   8.788  22.107  0.00  0.00    +0.000 A 
ATOM     19  C   UNL     1       0.204  10.074  22.296  0.00  0.00    +0.000 A 
ATOM     20  C   UNL     1       0.179  10.977  21.231  0.00  0.00    +0.000 A 
ATOM     21  C   UNL     1       0.624  10.615  19.945  0.00  0.00    +0.000 A 
ATOM     22  C   UNL     1       1.135   9.309  19.790  0.00  0.00    +0.000 A 
BRANCH  17  24
ATOM     23  C   UNL     1       2.389   6.733  19.665  0.00  0.00    +0.000 C 
ATOM     24  O   UNL     1       1.618   7.106  20.799  0.00  0.00    +0.000 OA
ENDBRANCH  17  24
ENDBRANCH   1  21
TORSDOF 4
ENDMDL
MODEL 8
REMARK VINA RESULT:      -6.3      1.060      1.105
REMARK  Name = 
REMARK  7 active torsions:
REMARK  status: ('A' for Active; 'I' for Inactive)
REMARK    1  A    between atoms: C_1  and  O_2
REMARK    2  A    between atoms: O_2  and  C_3
REMARK    3  A    between atoms: C_7  and  N_8
REMARK    4  A    between atoms: N_8  and  C_9
REMARK    5  A    between atoms: N_12  and  C_13
REMARK    6  A    between atoms: C_15  and  S_16
REMARK    7  A    between atoms: S_16  and  C_17
REMARK                            x       y       z     vdW  Elec       q    Type
REMARK                         _______ _______ _______ _____ _____    ______ ____
ROOT
ATOM      1  N   UNL     1       2.513   4.644  20.289  0.00  0.00    +0.000 N 
ATOM      2  C   UNL     1       2.041   3.416  20.942  0.00  0.00    +0.000 C 
ATOM      3  C   UNL     1       1.787   5.824  20.454  0.00  0.00    +0.000 C 
ATOM      4  N   UNL     1       0.580   5.881  20.927  0.00  0.00    +0.000 NA
ATOM      5  N   UNL     1       2.451   6.985  20.130  0.00  0.00    +0.000 N 
ATOM      6  H   UNL     1       0.212   4.958  21.135  0.00  0.00    +0.000 HD
ATOM      7  H   UNL     1       3.370   7.079  20.544  0.00  0.00    +0.000 HD
ENDROOT
BRANCH   5   8
ATOM      8  C   UNL     1       1.788   8.209  19.875  0.00  0.00    +0.000 A 
ATOM      9  C   UNL     1       1.098   8.854  20.922  0.00  0.00    +0.000 A 
ATOM     10  C   UNL     1       0.476  10.093  20.741  0.00  0.00    +0.000 A 
ATOM     11  C   UNL     1       0.545  10.705  19.489  0.00  0.00    +0.000 A 
ATOM     12  C   UNL     1       1.214  10.081  18.431  0.00  0.00    +0.000 A 
ATOM     13  C   UNL     1       1.821   8.836  18.620  0.00  0.00    +0.000 A 
ATOM     14 CL   UNL     1       2.607   8.085  17.278  0.00  0.00    +0.000 Cl
BRANCH  10  15
ATOM     15  S   UNL     1      -0.466  10.868  22.041  0.00  0.00    +0.000 S 
ATOM     16  C   UNL     1      -0.293   9.638  23.365  0.00  0.00    +0.000 C 
ENDBRANCH  10  15
ENDBRANCH   5   8
BRANCH   1  21
ATOM     17  C   UNL     1       5.714   4.353  18.315  0.00  0.00    +0.000 A 
ATOM     18  C   UNL     1       5.218   4.034  17.053  0.00  0.00    +0.000 A 
ATOM     19  C   UNL     1       3.848   3.894  16.858  0.00  0.00    +0.000 A 
ATOM     20  C   UNL     1       2.968   4.071  17.927  0.00  0.00    +0.000 A 
ATOM     21  C   UNL     1       3.428   4.416  19.213  0.00  0.00    +0.000 A 
ATOM     22  C   UNL     1       4.824   4.535  19.381  0.00  0.00    +0.000 A 
BRANCH  17  24
ATOM     23  C   UNL     1       7.774   4.542  17.132  0.00  0.00    +0.000 C 
ATOM     24  O   UNL     1       7.078   4.473  18.369  0.00  0.00    +0.000 OA
ENDBRANCH  17  24
ENDBRANCH   1  21
TORSDOF 4
ENDMDL
MODEL 9
REMARK VINA RESULT:      -6.2      4.040      7.348
REMARK  Name = 
REMARK  7 active torsions:
REMARK  status: ('A' for Active; 'I' for Inactive)
REMARK    1  A    between atoms: C_1  and  O_2
REMARK    2  A    between atoms: O_2  and  C_3
REMARK    3  A    between atoms: C_7  and  N_8
REMARK    4  A    between atoms: N_8  and  C_9
REMARK    5  A    between atoms: N_12  and  C_13
REMARK    6  A    between atoms: C_15  and  S_16
REMARK    7  A    between atoms: S_16  and  C_17
REMARK                            x       y       z     vdW  Elec       q    Type
REMARK                         _______ _______ _______ _____ _____    ______ ____
ROOT
ATOM      1  N   UNL     1       3.023   4.469  18.842  0.00  0.00    +0.000 N 
ATOM      2  C   UNL     1       2.645   3.586  19.952  0.00  0.00    +0.000 C 
ATOM      3  C   UNL     1       4.020   4.059  17.955  0.00  0.00    +0.000 C 
ATOM      4  N   UNL     1       4.831   3.070  18.174  0.00  0.00    +0.000 NA
ATOM      5  N   UNL     1       4.076   4.742  16.762  0.00  0.00    +0.000 N 
ATOM      6  H   UNL     1       4.675   2.647  19.083  0.00  0.00    +0.000 HD
ATOM      7  H   UNL     1       3.192   4.827  16.278  0.00  0.00    +0.000 HD
ENDROOT
BRANCH   5   8
ATOM      8  C   UNL     1       5.214   4.732  15.920  0.00  0.00    +0.000 A 
ATOM      9  C   UNL     1       5.160   4.046  14.690  0.00  0.00    +0.000 A 
ATOM     10  C   UNL     1       6.232   4.053  13.794  0.00  0.00    +0.000 A 
ATOM     11  C   UNL     1       7.386   4.763  14.130  0.00  0.00    +0.000 A 
ATOM     12  C   UNL     1       7.470   5.443  15.349  0.00  0.00    +0.000 A 
ATOM     13  C   UNL     1       6.395   5.418  16.243  0.00  0.00    +0.000 A 
ATOM     14 CL   UNL     1       6.554   6.243  17.752  0.00  0.00    +0.000 Cl
BRANCH  10  15
ATOM     15  S   UNL     1       6.194   3.117  12.277  0.00  0.00    +0.000 S 
ATOM     16  C   UNL     1       4.477   3.389  11.754  0.00  0.00    +0.000 C 
ENDBRANCH  10  15
ENDBRANCH   5   8
BRANCH   1  21
ATOM     17  C   UNL     1       1.705   7.636  20.412  0.00  0.00    +0.000 A 
ATOM     18  C   UNL     1       1.795   8.520  19.339  0.00  0.00    +0.000 A 
ATOM     19  C   UNL     1       2.304   8.085  18.119  0.00  0.00    +0.000 A 
ATOM     20  C   UNL     1       2.726   6.763  17.970  0.00  0.00    +0.000 A 
ATOM     21  C   UNL     1       2.632   5.833  19.023  0.00  0.00    +0.000 A 
ATOM     22  C   UNL     1       2.126   6.310  20.251  0.00  0.00    +0.000 A 
BRANCH  17  24
ATOM     23  C   UNL     1       0.148   9.153  21.388  0.00  0.00    +0.000 C 
ATOM     24  O   UNL     1       1.177   8.185  21.550  0.00  0.00    +0.000 OA
ENDBRANCH  17  24
ENDBRANCH   1  21
TORSDOF 4
ENDMDL
