MODEL 1
REMARK VINA RESULT:      -7.5      0.000      0.000
REMARK  Name = 
REMARK  1 active torsions:
REMARK  status: ('A' for Active; 'I' for Inactive)
REMARK    1  A    between atoms: C_5  and  C_6
REMARK                            x       y       z     vdW  Elec       q    Type
REMARK                         _______ _______ _______ _____ _____    ______ ____
ROOT
ATOM      1  C   UNL     1       3.186   6.471  18.540  0.00  0.00    +0.000 A 
ATOM      2  C   UNL     1       3.547   5.593  19.492  0.00  0.00    +0.000 A 
ATOM      3  C   UNL     1       4.377   4.446  19.081  0.00  0.00    +0.000 A 
ATOM      4  S   UNL     1       4.261   2.934  19.805  0.00  0.00    +0.000 S 
ATOM      5  C   UNL     1       5.243   4.745  17.930  0.00  0.00    +0.000 A 
ATOM      6  C   UNL     1       6.531   4.220  17.793  0.00  0.00    +0.000 A 
ATOM      7  C   UNL     1       7.257   4.498  16.637  0.00  0.00    +0.000 A 
ATOM      8  C   UNL     1       6.664   5.245  15.620  0.00  0.00    +0.000 A 
ATOM      9  F   UNL     1       7.345   5.451  14.483  0.00  0.00    +0.000 F 
ATOM     10  C   UNL     1       5.403   5.812  15.773  0.00  0.00    +0.000 A 
ATOM     11  C   UNL     1       4.727   5.619  16.969  0.00  0.00    +0.000 A 
ATOM     12  O   UNL     1       3.583   6.357  17.208  0.00  0.00    +0.000 OA
ENDROOT
BRANCH   1  17
ATOM     13  F   UNL     1      -0.102  10.853  19.751  0.00  0.00    +0.000 F 
ATOM     14  C   UNL     1       0.681   9.812  19.460  0.00  0.00    +0.000 A 
ATOM     15  C   UNL     1       1.119   9.624  18.157  0.00  0.00    +0.000 A 
ATOM     16  C   UNL     1       1.940   8.531  17.852  0.00  0.00    +0.000 A 
ATOM     17  C   UNL     1       2.319   7.621  18.854  0.00  0.00    +0.000 A 
ATOM     18  C   UNL     1       1.855   7.836  20.165  0.00  0.00    +0.000 A 
ATOM     19  C   UNL     1       1.037   8.925  20.462  0.00  0.00    +0.000 A 
ENDBRANCH   1  17
TORSDOF 1
ENDMDL
MODEL 2
REMARK VINA RESULT:      -7.5      0.052      1.108
REMARK  Name = 
REMARK  1 active torsions:
REMARK  status: ('A' for Active; 'I' for Inactive)
REMARK    1  A    between atoms: C_5  and  C_6
REMARK                            x       y       z     vdW  Elec       q    Type
REMARK                         _______ _______ _______ _____ _____    ______ ____
ROOT
ATOM      1  C   UNL     1       3.160   6.510  18.557  0.00  0.00    +0.000 A 
ATOM      2  C   UNL     1       3.521   5.634  19.510  0.00  0.00    +0.000 A 
ATOM      3  C   UNL     1       4.343   4.480  19.099  0.00  0.00    +0.000 A 
ATOM      4  S   UNL     1       4.222   2.972  19.829  0.00  0.00    +0.000 S 
ATOM      5  C   UNL     1       5.206   4.771  17.943  0.00  0.00    +0.000 A 
ATOM      6  C   UNL     1       6.490   4.238  17.802  0.00  0.00    +0.000 A 
ATOM      7  C   UNL     1       7.212   4.509  16.642  0.00  0.00    +0.000 A 
ATOM      8  C   UNL     1       6.619   5.255  15.625  0.00  0.00    +0.000 A 
ATOM      9  F   UNL     1       7.295   5.453  14.483  0.00  0.00    +0.000 F 
ATOM     10  C   UNL     1       5.361   5.829  15.781  0.00  0.00    +0.000 A 
ATOM     11  C   UNL     1       4.690   5.644  16.981  0.00  0.00    +0.000 A 
ATOM     12  O   UNL     1       3.551   6.389  17.222  0.00  0.00    +0.000 OA
ENDROOT
BRANCH   1  17
ATOM     13  F   UNL     1      -0.122  10.906  19.732  0.00  0.00    +0.000 F 
ATOM     14  C   UNL     1       0.659   9.859  19.455  0.00  0.00    +0.000 A 
ATOM     15  C   UNL     1       0.996   8.968  20.464  0.00  0.00    +0.000 A 
ATOM     16  C   UNL     1       1.816   7.869  20.173  0.00  0.00    +0.000 A 
ATOM     17  C   UNL     1       2.301   7.666  18.870  0.00  0.00    +0.000 A 
ATOM     18  C   UNL     1       1.945   8.589  17.869  0.00  0.00    +0.000 A 
ATOM     19  C   UNL     1       1.130   9.681  18.166  0.00  0.00    +0.000 A 
ENDBRANCH   1  17
TORSDOF 1
ENDMDL
MODEL 3
REMARK VINA RESULT:      -7.5      3.479      4.294
REMARK  Name = 
REMARK  1 active torsions:
REMARK  status: ('A' for Active; 'I' for Inactive)
REMARK    1  A    between atoms: C_5  and  C_6
REMARK                            x       y       z     vdW  Elec       q    Type
REMARK                         _______ _______ _______ _____ _____    ______ ____
ROOT
ATOM      1  C   UNL     1       1.773   7.625  19.967  0.00  0.00    +0.000 A 
ATOM      2  C   UNL     1       2.358   7.825  18.773  0.00  0.00    +0.000 A 
ATOM      3  C   UNL     1       3.060   6.682  18.160  0.00  0.00    +0.000 A 
ATOM      4  S   UNL     1       4.434   6.863  17.209  0.00  0.00    +0.000 S 
ATOM      5  C   UNL     1       2.483   5.382  18.536  0.00  0.00    +0.000 A 
ATOM      6  C   UNL     1       2.413   4.300  17.654  0.00  0.00    +0.000 A 
ATOM      7  C   UNL     1       1.914   3.083  18.113  0.00  0.00    +0.000 A 
ATOM      8  C   UNL     1       1.550   2.954  19.453  0.00  0.00    +0.000 A 
ATOM      9  F   UNL     1       1.135   1.761  19.903  0.00  0.00    +0.000 F 
ATOM     10  C   UNL     1       1.570   4.041  20.321  0.00  0.00    +0.000 A 
ATOM     11  C   UNL     1       1.968   5.277  19.831  0.00  0.00    +0.000 A 
ATOM     12  O   UNL     1       1.778   6.394  20.623  0.00  0.00    +0.000 OA
ENDROOT
BRANCH   1  17
ATOM     13  F   UNL     1      -0.815  11.805  22.672  0.00  0.00    +0.000 F 
ATOM     14  C   UNL     1      -0.199  10.812  22.025  0.00  0.00    +0.000 A 
ATOM     15  C   UNL     1       0.049  10.927  20.665  0.00  0.00    +0.000 A 
ATOM     16  C   UNL     1       0.695   9.885  19.987  0.00  0.00    +0.000 A 
ATOM     17  C   UNL     1       1.089   8.723  20.673  0.00  0.00    +0.000 A 
ATOM     18  C   UNL     1       0.819   8.634  22.052  0.00  0.00    +0.000 A 
ATOM     19  C   UNL     1       0.175   9.675  22.720  0.00  0.00    +0.000 A 
ENDBRANCH   1  17
TORSDOF 1
ENDMDL
MODEL 4
REMARK VINA RESULT:      -7.4      3.576      4.550
REMARK  Name = 
REMARK  1 active torsions:
REMARK  status: ('A' for Active; 'I' for Inactive)
REMARK    1  A    between atoms: C_5  and  C_6
REMARK                            x       y       z     vdW  Elec       q    Type
REMARK                         _______ _______ _______ _____ _____    ______ ____
ROOT
ATOM      1  C   UNL     1       1.673   7.760  20.094  0.00  0.00    +0.000 A 
ATOM      2  C   UNL     1       2.229   7.954  18.885  0.00  0.00    +0.000 A 
ATOM      3  C   UNL     1       2.933   6.814  18.268  0.00  0.00    +0.000 A 
ATOM      4  S   UNL     1       4.282   7.003  17.285  0.00  0.00    +0.000 S 
ATOM      5  C   UNL     1       2.381   5.511  18.671  0.00  0.00    +0.000 A 
ATOM      6  C   UNL     1       2.306   4.418  17.803  0.00  0.00    +0.000 A 
ATOM      7  C   UNL     1       1.834   3.200  18.286  0.00  0.00    +0.000 A 
ATOM      8  C   UNL     1       1.502   3.081  19.635  0.00  0.00    +0.000 A 
ATOM      9  F   UNL     1       1.114   1.888  20.108  0.00  0.00    +0.000 F 
ATOM     10  C   UNL     1       1.527   4.178  20.491  0.00  0.00    +0.000 A 
ATOM     11  C   UNL     1       1.897   5.413  19.978  0.00  0.00    +0.000 A 
ATOM     12  O   UNL     1       1.710   6.536  20.763  0.00  0.00    +0.000 OA
ENDROOT
BRANCH   1  17
ATOM     13  F   UNL     1      -0.938  11.938  22.778  0.00  0.00    +0.000 F 
ATOM     14  C   UNL     1      -0.317  10.942  22.142  0.00  0.00    +0.000 A 
ATOM     15  C   UNL     1       0.018   9.787  22.835  0.00  0.00    +0.000 A 
ATOM     16  C   UNL     1       0.670   8.742  22.166  0.00  0.00    +0.000 A 
ATOM     17  C   UNL     1       0.991   8.857  20.803  0.00  0.00    +0.000 A 
ATOM     18  C   UNL     1       0.642  10.042  20.129  0.00  0.00    +0.000 A 
ATOM     19  C   UNL     1      -0.006  11.079  20.800  0.00  0.00    +0.000 A 
ENDBRANCH   1  17
TORSDOF 1
ENDMDL
MODEL 5
REMARK VINA RESULT:      -7.4      2.859      3.751
REMARK  Name = 
REMARK  1 active torsions:
REMARK  status: ('A' for Active; 'I' for Inactive)
REMARK    1  A    between atoms: C_5  and  C_6
REMARK                            x       y       z     vdW  Elec       q    Type
REMARK                         _______ _______ _______ _____ _____    ______ ____
ROOT
ATOM      1  C   UNL     1       2.504   7.222  18.817  0.00  0.00    +0.000 A 
ATOM      2  C   UNL     1       3.340   7.216  17.764  0.00  0.00    +0.000 A 
ATOM      3  C   UNL     1       4.052   5.959  17.467  0.00  0.00    +0.000 A 
ATOM      4  S   UNL     1       5.604   5.923  16.825  0.00  0.00    +0.000 S 
ATOM      5  C   UNL     1       3.298   4.761  17.869  0.00  0.00    +0.000 A 
ATOM      6  C   UNL     1       3.318   3.571  17.136  0.00  0.00    +0.000 A 
ATOM      7  C   UNL     1       2.631   2.463  17.625  0.00  0.00    +0.000 A 
ATOM      8  C   UNL     1       1.986   2.547  18.858  0.00  0.00    +0.000 A 
ATOM      9  F   UNL     1       1.384   1.455  19.354  0.00  0.00    +0.000 F 
ATOM     10  C   UNL     1       1.920   3.743  19.566  0.00  0.00    +0.000 A 
ATOM     11  C   UNL     1       2.517   4.871  19.023  0.00  0.00    +0.000 A 
ATOM     12  O   UNL     1       2.265   6.098  19.608  0.00  0.00    +0.000 OA
ENDROOT
BRANCH   1  17
ATOM     13  F   UNL     1      -0.237  11.886  20.306  0.00  0.00    +0.000 F 
ATOM     14  C   UNL     1       0.414  10.775  19.955  0.00  0.00    +0.000 A 
ATOM     15  C   UNL     1       0.609   9.767  20.889  0.00  0.00    +0.000 A 
ATOM     16  C   UNL     1       1.293   8.602  20.519  0.00  0.00    +0.000 A 
ATOM     17  C   UNL     1       1.787   8.447  19.213  0.00  0.00    +0.000 A 
ATOM     18  C   UNL     1       1.578   9.489  18.289  0.00  0.00    +0.000 A 
ATOM     19  C   UNL     1       0.897  10.647  18.663  0.00  0.00    +0.000 A 
ENDBRANCH   1  17
TORSDOF 1
ENDMDL
MODEL 6
REMARK VINA RESULT:      -7.4      2.847      3.580
REMARK  Name = 
REMARK  1 active torsions:
REMARK  status: ('A' for Active; 'I' for Inactive)
REMARK    1  A    between atoms: C_5  and  C_6
REMARK                            x       y       z     vdW  Elec       q    Type
REMARK                         _______ _______ _______ _____ _____    ______ ____
ROOT
ATOM      1  C   UNL     1       2.517   7.203  18.799  0.00  0.00    +0.000 A 
ATOM      2  C   UNL     1       3.369   7.185  17.760  0.00  0.00    +0.000 A 
ATOM      3  C   UNL     1       4.082   5.923  17.485  0.00  0.00    +0.000 A 
ATOM      4  S   UNL     1       5.644   5.877  16.866  0.00  0.00    +0.000 S 
ATOM      5  C   UNL     1       3.318   4.731  17.885  0.00  0.00    +0.000 A 
ATOM      6  C   UNL     1       3.346   3.535  17.164  0.00  0.00    +0.000 A 
ATOM      7  C   UNL     1       2.647   2.433  17.652  0.00  0.00    +0.000 A 
ATOM      8  C   UNL     1       1.984   2.529  18.874  0.00  0.00    +0.000 A 
ATOM      9  F   UNL     1       1.371   1.444  19.370  0.00  0.00    +0.000 F 
ATOM     10  C   UNL     1       1.911   3.732  19.570  0.00  0.00    +0.000 A 
ATOM     11  C   UNL     1       2.520   4.853  19.026  0.00  0.00    +0.000 A 
ATOM     12  O   UNL     1       2.263   6.086  19.596  0.00  0.00    +0.000 OA
ENDROOT
BRANCH   1  17
ATOM     13  F   UNL     1      -0.208  11.890  20.242  0.00  0.00    +0.000 F 
ATOM     14  C   UNL     1       0.441  10.776  19.895  0.00  0.00    +0.000 A 
ATOM     15  C   UNL     1       0.912  10.630  18.598  0.00  0.00    +0.000 A 
ATOM     16  C   UNL     1       1.593   9.460  18.236  0.00  0.00    +0.000 A 
ATOM     17  C   UNL     1       1.799   8.434  19.173  0.00  0.00    +0.000 A 
ATOM     18  C   UNL     1       1.305   8.610  20.479  0.00  0.00    +0.000 A 
ATOM     19  C   UNL     1       0.627   9.776  20.834  0.00  0.00    +0.000 A 
ENDBRANCH   1  17
TORSDOF 1
ENDMDL
MODEL 7
REMARK VINA RESULT:      -7.4      3.267      4.370
REMARK  Name = 
REMARK  1 active torsions:
REMARK  status: ('A' for Active; 'I' for Inactive)
REMARK    1  A    between atoms: C_5  and  C_6
REMARK                            x       y       z     vdW  Elec       q    Type
REMARK                         _______ _______ _______ _____ _____    ______ ____
ROOT
ATOM      1  C   UNL     1       2.398   6.981  18.965  0.00  0.00    +0.000 A 
ATOM      2  C   UNL     1       2.828   6.428  17.818  0.00  0.00    +0.000 A 
ATOM      3  C   UNL     1       3.321   5.039  17.874  0.00  0.00    +0.000 A 
ATOM      4  S   UNL     1       4.560   4.473  16.890  0.00  0.00    +0.000 S 
ATOM      5  C   UNL     1       2.676   4.241  18.929  0.00  0.00    +0.000 A 
ATOM      6  C   UNL     1       2.377   2.884  18.778  0.00  0.00    +0.000 A 
ATOM      7  C   UNL     1       1.829   2.188  19.852  0.00  0.00    +0.000 A 
ATOM      8  C   UNL     1       1.645   2.841  21.069  0.00  0.00    +0.000 A 
ATOM      9  F   UNL     1       1.181   2.146  22.119  0.00  0.00    +0.000 F 
ATOM     10  C   UNL     1       1.893   4.203  21.210  0.00  0.00    +0.000 A 
ATOM     11  C   UNL     1       2.339   4.915  20.106  0.00  0.00    +0.000 A 
ATOM     12  O   UNL     1       2.373   6.295  20.180  0.00  0.00    +0.000 OA
ENDROOT
BRANCH   1  17
ATOM     13  F   UNL     1       0.616  12.299  19.112  0.00  0.00    +0.000 F 
ATOM     14  C   UNL     1       1.038  11.033  19.080  0.00  0.00    +0.000 A 
ATOM     15  C   UNL     1       0.775  10.192  20.153  0.00  0.00    +0.000 A 
ATOM     16  C   UNL     1       1.219   8.864  20.118  0.00  0.00    +0.000 A 
ATOM     17  C   UNL     1       1.932   8.378  19.009  0.00  0.00    +0.000 A 
ATOM     18  C   UNL     1       2.187   9.256  17.939  0.00  0.00    +0.000 A 
ATOM     19  C   UNL     1       1.743  10.577  17.980  0.00  0.00    +0.000 A 
ENDBRANCH   1  17
TORSDOF 1
ENDMDL
MODEL 8
REMARK VINA RESULT:      -7.4      3.260      4.230
REMARK  Name = 
REMARK  1 active torsions:
REMARK  status: ('A' for Active; 'I' for Inactive)
REMARK    1  A    between atoms: C_5  and  C_6
REMARK                            x       y       z     vdW  Elec       q    Type
REMARK                         _______ _______ _______ _____ _____    ______ ____
ROOT
ATOM      1  C   UNL     1       2.405   6.971  18.962  0.00  0.00    +0.000 A 
ATOM      2  C   UNL     1       2.838   6.419  17.815  0.00  0.00    +0.000 A 
ATOM      3  C   UNL     1       3.335   5.031  17.871  0.00  0.00    +0.000 A 
ATOM      4  S   UNL     1       4.577   4.470  16.889  0.00  0.00    +0.000 S 
ATOM      5  C   UNL     1       2.691   4.231  18.924  0.00  0.00    +0.000 A 
ATOM      6  C   UNL     1       2.395   2.874  18.772  0.00  0.00    +0.000 A 
ATOM      7  C   UNL     1       1.848   2.175  19.845  0.00  0.00    +0.000 A 
ATOM      8  C   UNL     1       1.659   2.828  21.062  0.00  0.00    +0.000 A 
ATOM      9  F   UNL     1       1.196   2.131  22.110  0.00  0.00    +0.000 F 
ATOM     10  C   UNL     1       1.904   4.190  21.204  0.00  0.00    +0.000 A 
ATOM     11  C   UNL     1       2.350   4.904  20.101  0.00  0.00    +0.000 A 
ATOM     12  O   UNL     1       2.381   6.284  20.176  0.00  0.00    +0.000 OA
ENDROOT
BRANCH   1  17
ATOM     13  F   UNL     1       0.623  12.287  19.149  0.00  0.00    +0.000 F 
ATOM     14  C   UNL     1       1.049  11.023  19.101  0.00  0.00    +0.000 A 
ATOM     15  C   UNL     1       1.742  10.572  17.987  0.00  0.00    +0.000 A 
ATOM     16  C   UNL     1       2.188   9.244  17.938  0.00  0.00    +0.000 A 
ATOM     17  C   UNL     1       1.935   8.366  19.006  0.00  0.00    +0.000 A 
ATOM     18  C   UNL     1       1.226   8.852  20.120  0.00  0.00    +0.000 A 
ATOM     19  C   UNL     1       0.784  10.174  20.163  0.00  0.00    +0.000 A 
ENDBRANCH   1  17
TORSDOF 1
ENDMDL
MODEL 9
REMARK VINA RESULT:      -7.1      4.320      6.993
REMARK  Name = 
REMARK  1 active torsions:
REMARK  status: ('A' for Active; 'I' for Inactive)
REMARK    1  A    between atoms: C_5  and  C_6
REMARK                            x       y       z     vdW  Elec       q    Type
REMARK                         _______ _______ _______ _____ _____    ______ ____
ROOT
ATOM      1  C   UNL     1       5.730   4.350  15.883  0.00  0.00    +0.000 A 
ATOM      2  C   UNL     1       6.587   4.476  16.912  0.00  0.00    +0.000 A 
ATOM      3  C   UNL     1       6.017   4.528  18.271  0.00  0.00    +0.000 A 
ATOM      4  S   UNL     1       6.702   5.434  19.510  0.00  0.00    +0.000 S 
ATOM      5  C   UNL     1       4.758   3.778  18.396  0.00  0.00    +0.000 A 
ATOM      6  C   UNL     1       4.409   3.068  19.548  0.00  0.00    +0.000 A 
ATOM      7  C   UNL     1       3.166   2.443  19.608  0.00  0.00    +0.000 A 
ATOM      8  C   UNL     1       2.276   2.585  18.545  0.00  0.00    +0.000 A 
ATOM      9  F   UNL     1       1.055   2.038  18.640  0.00  0.00    +0.000 F 
ATOM     10  C   UNL     1       2.637   3.248  17.377  0.00  0.00    +0.000 A 
ATOM     11  C   UNL     1       3.916   3.778  17.281  0.00  0.00    +0.000 A 
ATOM     12  O   UNL     1       4.350   4.237  16.051  0.00  0.00    +0.000 OA
ENDROOT
BRANCH   1  17
ATOM     13  F   UNL     1       7.574   4.297  10.585  0.00  0.00    +0.000 F 
ATOM     14  C   UNL     1       7.133   4.307  11.845  0.00  0.00    +0.000 A 
ATOM     15  C   UNL     1       6.039   3.529  12.197  0.00  0.00    +0.000 A 
ATOM     16  C   UNL     1       5.577   3.541  13.520  0.00  0.00    +0.000 A 
ATOM     17  C   UNL     1       6.209   4.336  14.490  0.00  0.00    +0.000 A 
ATOM     18  C   UNL     1       7.313   5.118  14.101  0.00  0.00    +0.000 A 
ATOM     19  C   UNL     1       7.768   5.102  12.783  0.00  0.00    +0.000 A 
ENDBRANCH   1  17
TORSDOF 1
ENDMDL
