MODEL 1
REMARK VINA RESULT:      -7.4      0.000      0.000
REMARK  Name = 
REMARK  7 active torsions:
REMARK  status: ('A' for Active; 'I' for Inactive)
REMARK    1  A    between atoms: C_1  and  N_2
REMARK    2  A    between atoms: N_2  and  C_3
REMARK    3  A    between atoms: N_2  and  C_4
REMARK    4  A    between atoms: C_4  and  C_5
REMARK    5  A    between atoms: C_5  and  O_6
REMARK    6  A    between atoms: O_6  and  C_7
REMARK    7  A    between atoms: C_9  and  N_10
REMARK                            x       y       z     vdW  Elec       q    Type
REMARK                         _______ _______ _______ _____ _____    ______ ____
ROOT
ATOM      1  C   UNL     1       5.984   5.634  16.272  0.00  0.00    +0.000 A 
ATOM      2  C   UNL     1       4.930   4.996  16.954  0.00  0.00    +0.000 A 
ATOM      3  C   UNL     1       4.893   4.904  18.364  0.00  0.00    +0.000 A 
ATOM      4  C   UNL     1       5.949   5.528  19.051  0.00  0.00    +0.000 A 
ATOM      5  C   UNL     1       7.008   6.142  18.381  0.00  0.00    +0.000 A 
ATOM      6  F   UNL     1       8.010   6.678  19.093  0.00  0.00    +0.000 F 
ATOM      7  C   UNL     1       7.041   6.173  17.004  0.00  0.00    +0.000 A 
ATOM      8  F   UNL     1       8.072   6.757  16.373  0.00  0.00    +0.000 F 
ENDROOT
BRANCH   3   9
ATOM      9  N   UNL     1       3.823   4.238  19.036  0.00  0.00    +0.000 N 
ATOM     10  C   UNL     1       4.115   2.856  19.480  0.00  0.00    +0.000 C 
ATOM     11  C   UNL     1       2.923   2.101  20.080  0.00  0.00    +0.000 C 
ATOM     12  C   UNL     1       2.506   2.607  21.471  0.00  0.00    +0.000 C 
ATOM     13  N   UNL     1       1.893   3.937  21.496  0.00  0.00    +0.000 NA
ATOM     14  C   UNL     1       0.896   4.116  20.436  0.00  0.00    +0.000 C 
ATOM     15  C   UNL     1       1.343   3.640  19.042  0.00  0.00    +0.000 C 
ATOM     16  C   UNL     1       1.750   2.177  19.116  0.00  0.00    +0.000 C 
ATOM     17  C   UNL     1       2.483   4.483  18.440  0.00  0.00    +0.000 C 
ATOM     18  H   UNL     1       2.634   4.627  21.353  0.00  0.00    +0.000 HD
ENDBRANCH   3   9
BRANCH   1  19
ATOM     19  O   UNL     1       6.081   5.761  14.914  0.00  0.00    +0.000 OA
BRANCH  19  20
ATOM     20  C   UNL     1       6.718   4.685  14.219  0.00  0.00    +0.000 C 
BRANCH  20  21
ATOM     21  C   UNL     1       5.626   3.837  13.548  0.00  0.00    +0.000 C 
BRANCH  21  23
ATOM     22  C   UNL     1       7.208   4.010  11.744  0.00  0.00    +0.000 C 
ATOM     23  N   UNL     1       5.851   3.594  12.111  0.00  0.00    +0.000 NA
ATOM     24  C   UNL     1       5.648   2.190  11.751  0.00  0.00    +0.000 C 
ENDBRANCH  21  23
ENDBRANCH  20  21
ENDBRANCH  19  20
ENDBRANCH   1  19
TORSDOF 5
ENDMDL
MODEL 2
REMARK VINA RESULT:      -7.3      1.002      1.211
REMARK  Name = 
REMARK  7 active torsions:
REMARK  status: ('A' for Active; 'I' for Inactive)
REMARK    1  A    between atoms: C_1  and  N_2
REMARK    2  A    between atoms: N_2  and  C_3
REMARK    3  A    between atoms: N_2  and  C_4
REMARK    4  A    between atoms: C_4  and  C_5
REMARK    5  A    between atoms: C_5  and  O_6
REMARK    6  A    between atoms: O_6  and  C_7
REMARK    7  A    between atoms: C_9  and  N_10
REMARK                            x       y       z     vdW  Elec       q    Type
REMARK                         _______ _______ _______ _____ _____    ______ ____
ROOT
ATOM      1  C   UNL     1       6.115   4.285  15.863  0.00  0.00    +0.000 A 
ATOM      2  C   UNL     1       5.071   3.852  16.702  0.00  0.00    +0.000 A 
ATOM      3  C   UNL     1       4.762   4.503  17.918  0.00  0.00    +0.000 A 
ATOM      4  C   UNL     1       5.532   5.641  18.221  0.00  0.00    +0.000 A 
ATOM      5  C   UNL     1       6.583   6.061  17.405  0.00  0.00    +0.000 A 
ATOM      6  F   UNL     1       7.311   7.127  17.772  0.00  0.00    +0.000 F 
ATOM      7  C   UNL     1       6.891   5.376  16.250  0.00  0.00    +0.000 A 
ATOM      8  F   UNL     1       7.912   5.786  15.481  0.00  0.00    +0.000 F 
ENDROOT
BRANCH   3   9
ATOM      9  N   UNL     1       3.710   4.039  18.763  0.00  0.00    +0.000 N 
ATOM     10  C   UNL     1       3.863   2.654  19.266  0.00  0.00    +0.000 C 
ATOM     11  C   UNL     1       2.669   2.116  20.062  0.00  0.00    +0.000 C 
ATOM     12  C   UNL     1       2.514   2.752  21.454  0.00  0.00    +0.000 C 
ATOM     13  N   UNL     1       2.099   4.157  21.457  0.00  0.00    +0.000 NA
ATOM     14  C   UNL     1       1.006   4.422  20.519  0.00  0.00    +0.000 C 
ATOM     15  C   UNL     1       1.193   3.812  19.118  0.00  0.00    +0.000 C 
ATOM     16  C   UNL     1       1.400   2.311  19.247  0.00  0.00    +0.000 C 
ATOM     17  C   UNL     1       2.349   4.445  18.321  0.00  0.00    +0.000 C 
ATOM     18  H   UNL     1       2.903   4.722  21.175  0.00  0.00    +0.000 HD
ENDBRANCH   3   9
BRANCH   1  19
ATOM     19  O   UNL     1       6.464   3.703  14.675  0.00  0.00    +0.000 OA
BRANCH  19  20
ATOM     20  C   UNL     1       5.810   4.205  13.506  0.00  0.00    +0.000 C 
BRANCH  20  21
ATOM     21  C   UNL     1       6.317   3.406  12.295  0.00  0.00    +0.000 C 
BRANCH  21  23
ATOM     22  C   UNL     1       4.279   2.911  11.117  0.00  0.00    +0.000 C 
ATOM     23  N   UNL     1       5.404   2.333  11.858  0.00  0.00    +0.000 NA
ATOM     24  C   UNL     1       6.083   1.336  11.031  0.00  0.00    +0.000 C 
ENDBRANCH  21  23
ENDBRANCH  20  21
ENDBRANCH  19  20
ENDBRANCH   1  19
TORSDOF 5
ENDMDL
MODEL 3
REMARK VINA RESULT:      -7.2      5.066      8.133
REMARK  Name = 
REMARK  7 active torsions:
REMARK  status: ('A' for Active; 'I' for Inactive)
REMARK    1  A    between atoms: C_1  and  N_2
REMARK    2  A    between atoms: N_2  and  C_3
REMARK    3  A    between atoms: N_2  and  C_4
REMARK    4  A    between atoms: C_4  and  C_5
REMARK    5  A    between atoms: C_5  and  O_6
REMARK    6  A    between atoms: O_6  and  C_7
REMARK    7  A    between atoms: C_9  and  N_10
REMARK                            x       y       z     vdW  Elec       q    Type
REMARK                         _______ _______ _______ _____ _____    ______ ____
ROOT
ATOM      1  C   UNL     1       1.400   8.386  20.790  0.00  0.00    +0.000 A 
ATOM      2  C   UNL     1       1.743   7.027  20.660  0.00  0.00    +0.000 A 
ATOM      3  C   UNL     1       2.147   6.467  19.426  0.00  0.00    +0.000 A 
ATOM      4  C   UNL     1       2.231   7.360  18.342  0.00  0.00    +0.000 A 
ATOM      5  C   UNL     1       1.870   8.703  18.460  0.00  0.00    +0.000 A 
ATOM      6  F   UNL     1       1.926   9.493  17.377  0.00  0.00    +0.000 F 
ATOM      7  C   UNL     1       1.433   9.207  19.665  0.00  0.00    +0.000 A 
ATOM      8  F   UNL     1       1.078  10.499  19.760  0.00  0.00    +0.000 F 
ENDROOT
BRANCH   3   9
ATOM      9  N   UNL     1       2.476   5.083  19.310  0.00  0.00    +0.000 N 
ATOM     10  C   UNL     1       1.929   4.398  18.117  0.00  0.00    +0.000 C 
ATOM     11  C   UNL     1       2.173   2.885  18.067  0.00  0.00    +0.000 C 
ATOM     12  C   UNL     1       3.636   2.502  17.788  0.00  0.00    +0.000 C 
ATOM     13  N   UNL     1       4.576   2.788  18.873  0.00  0.00    +0.000 NA
ATOM     14  C   UNL     1       4.060   2.387  20.185  0.00  0.00    +0.000 C 
ATOM     15  C   UNL     1       2.607   2.812  20.466  0.00  0.00    +0.000 C 
ATOM     16  C   UNL     1       1.704   2.263  19.373  0.00  0.00    +0.000 C 
ATOM     17  C   UNL     1       2.426   4.335  20.595  0.00  0.00    +0.000 C 
ATOM     18  H   UNL     1       4.736   3.798  18.892  0.00  0.00    +0.000 HD
ENDBRANCH   3   9
BRANCH   1  19
ATOM     19  O   UNL     1       1.004   8.990  21.952  0.00  0.00    +0.000 OA
BRANCH  19  20
ATOM     20  C   UNL     1      -0.405   9.042  22.192  0.00  0.00    +0.000 C 
BRANCH  20  21
ATOM     21  C   UNL     1      -0.694  10.266  23.076  0.00  0.00    +0.000 C 
BRANCH  21  23
ATOM     22  C   UNL     1      -2.456  11.900  23.185  0.00  0.00    +0.000 C 
ATOM     23  N   UNL     1      -1.358  11.376  22.367  0.00  0.00    +0.000 NA
ATOM     24  C   UNL     1      -0.426  12.455  22.038  0.00  0.00    +0.000 C 
ENDBRANCH  21  23
ENDBRANCH  20  21
ENDBRANCH  19  20
ENDBRANCH   1  19
TORSDOF 5
ENDMDL
MODEL 4
REMARK VINA RESULT:      -7.2      0.915      1.570
REMARK  Name = 
REMARK  7 active torsions:
REMARK  status: ('A' for Active; 'I' for Inactive)
REMARK    1  A    between atoms: C_1  and  N_2
REMARK    2  A    between atoms: N_2  and  C_3
REMARK    3  A    between atoms: N_2  and  C_4
REMARK    4  A    between atoms: C_4  and  C_5
REMARK    5  A    between atoms: C_5  and  O_6
REMARK    6  A    between atoms: O_6  and  C_7
REMARK    7  A    between atoms: C_9  and  N_10
REMARK                            x       y       z     vdW  Elec       q    Type
REMARK                         _______ _______ _______ _____ _____    ______ ____
ROOT
ATOM      1  C   UNL     1       5.872   5.643  16.189  0.00  0.00    +0.000 A 
ATOM      2  C   UNL     1       4.759   5.048  16.813  0.00  0.00    +0.000 A 
ATOM      3  C   UNL     1       4.667   4.911  18.217  0.00  0.00    +0.000 A 
ATOM      4  C   UNL     1       5.734   5.447  18.960  0.00  0.00    +0.000 A 
ATOM      5  C   UNL     1       6.850   6.017  18.347  0.00  0.00    +0.000 A 
ATOM      6  F   UNL     1       7.858   6.468  19.110  0.00  0.00    +0.000 F 
ATOM      7  C   UNL     1       6.933   6.092  16.974  0.00  0.00    +0.000 A 
ATOM      8  F   UNL     1       8.019   6.632  16.397  0.00  0.00    +0.000 F 
ENDROOT
BRANCH   3   9
ATOM      9  N   UNL     1       3.537   4.291  18.830  0.00  0.00    +0.000 N 
ATOM     10  C   UNL     1       2.292   4.306  18.029  0.00  0.00    +0.000 C 
ATOM     11  C   UNL     1       1.052   3.758  18.744  0.00  0.00    +0.000 C 
ATOM     12  C   UNL     1       1.071   2.232  18.939  0.00  0.00    +0.000 C 
ATOM     13  N   UNL     1       2.055   1.737  19.904  0.00  0.00    +0.000 NA
ATOM     14  C   UNL     1       2.082   2.529  21.137  0.00  0.00    +0.000 C 
ATOM     15  C   UNL     1       2.101   4.053  20.926  0.00  0.00    +0.000 C 
ATOM     16  C   UNL     1       0.901   4.459  20.085  0.00  0.00    +0.000 C 
ATOM     17  C   UNL     1       3.402   4.570  20.285  0.00  0.00    +0.000 C 
ATOM     18  H   UNL     1       2.979   1.797  19.469  0.00  0.00    +0.000 HD
ENDBRANCH   3   9
BRANCH   1  19
ATOM     19  O   UNL     1       6.024   5.808  14.840  0.00  0.00    +0.000 OA
BRANCH  19  20
ATOM     20  C   UNL     1       6.816   4.827  14.165  0.00  0.00    +0.000 C 
BRANCH  20  21
ATOM     21  C   UNL     1       5.874   3.732  13.639  0.00  0.00    +0.000 C 
BRANCH  21  23
ATOM     22  C   UNL     1       6.815   2.588  11.743  0.00  0.00    +0.000 C 
ATOM     23  N   UNL     1       5.854   3.610  12.170  0.00  0.00    +0.000 NA
ATOM     24  C   UNL     1       4.522   3.282  11.662  0.00  0.00    +0.000 C 
ENDBRANCH  21  23
ENDBRANCH  20  21
ENDBRANCH  19  20
ENDBRANCH   1  19
TORSDOF 5
ENDMDL
MODEL 5
REMARK VINA RESULT:      -7.1      2.679      4.522
REMARK  Name = 
REMARK  7 active torsions:
REMARK  status: ('A' for Active; 'I' for Inactive)
REMARK    1  A    between atoms: C_1  and  N_2
REMARK    2  A    between atoms: N_2  and  C_3
REMARK    3  A    between atoms: N_2  and  C_4
REMARK    4  A    between atoms: C_4  and  C_5
REMARK    5  A    between atoms: C_5  and  O_6
REMARK    6  A    between atoms: O_6  and  C_7
REMARK    7  A    between atoms: C_9  and  N_10
REMARK                            x       y       z     vdW  Elec       q    Type
REMARK                         _______ _______ _______ _____ _____    ______ ____
ROOT
ATOM      1  C   UNL     1       6.796   5.919  16.584  0.00  0.00    +0.000 A 
ATOM      2  C   UNL     1       5.804   5.625  17.539  0.00  0.00    +0.000 A 
ATOM      3  C   UNL     1       4.910   4.540  17.386  0.00  0.00    +0.000 A 
ATOM      4  C   UNL     1       5.098   3.742  16.243  0.00  0.00    +0.000 A 
ATOM      5  C   UNL     1       6.064   4.043  15.282  0.00  0.00    +0.000 A 
ATOM      6  F   UNL     1       6.163   3.270  14.189  0.00  0.00    +0.000 F 
ATOM      7  C   UNL     1       6.889   5.136  15.435  0.00  0.00    +0.000 A 
ATOM      8  F   UNL     1       7.806   5.419  14.496  0.00  0.00    +0.000 F 
ENDROOT
BRANCH   3   9
ATOM      9  N   UNL     1       3.901   4.268  18.358  0.00  0.00    +0.000 N 
ATOM     10  C   UNL     1       3.940   2.912  18.951  0.00  0.00    +0.000 C 
ATOM     11  C   UNL     1       2.777   2.580  19.893  0.00  0.00    +0.000 C 
ATOM     12  C   UNL     1       2.839   3.321  21.239  0.00  0.00    +0.000 C 
ATOM     13  N   UNL     1       2.595   4.764  21.172  0.00  0.00    +0.000 NA
ATOM     14  C   UNL     1       1.452   5.101  20.320  0.00  0.00    +0.000 C 
ATOM     15  C   UNL     1       1.424   4.382  18.959  0.00  0.00    +0.000 C 
ATOM     16  C   UNL     1       1.464   2.878  19.186  0.00  0.00    +0.000 C 
ATOM     17  C   UNL     1       2.560   4.811  18.013  0.00  0.00    +0.000 C 
ATOM     18  H   UNL     1       3.428   5.204  20.773  0.00  0.00    +0.000 HD
ENDBRANCH   3   9
BRANCH   1  19
ATOM     19  O   UNL     1       7.692   6.949  16.672  0.00  0.00    +0.000 OA
BRANCH  19  20
ATOM     20  C   UNL     1       7.834   7.560  17.957  0.00  0.00    +0.000 C 
BRANCH  20  21
ATOM     21  C   UNL     1       7.639   9.075  17.790  0.00  0.00    +0.000 C 
BRANCH  21  23
ATOM     22  C   UNL     1       8.627  11.267  17.718  0.00  0.00    +0.000 C 
ATOM     23  N   UNL     1       8.829   9.876  18.133  0.00  0.00    +0.000 NA
ATOM     24  C   UNL     1       9.135   9.824  19.563  0.00  0.00    +0.000 C 
ENDBRANCH  21  23
ENDBRANCH  20  21
ENDBRANCH  19  20
ENDBRANCH   1  19
TORSDOF 5
ENDMDL
MODEL 6
REMARK VINA RESULT:      -7.1      1.059      1.545
REMARK  Name = 
REMARK  7 active torsions:
REMARK  status: ('A' for Active; 'I' for Inactive)
REMARK    1  A    between atoms: C_1  and  N_2
REMARK    2  A    between atoms: N_2  and  C_3
REMARK    3  A    between atoms: N_2  and  C_4
REMARK    4  A    between atoms: C_4  and  C_5
REMARK    5  A    between atoms: C_5  and  O_6
REMARK    6  A    between atoms: O_6  and  C_7
REMARK    7  A    between atoms: C_9  and  N_10
REMARK                            x       y       z     vdW  Elec       q    Type
REMARK                         _______ _______ _______ _____ _____    ______ ____
ROOT
ATOM      1  C   UNL     1       5.673   5.019  15.814  0.00  0.00    +0.000 A 
ATOM      2  C   UNL     1       4.636   4.575  16.657  0.00  0.00    +0.000 A 
ATOM      3  C   UNL     1       4.678   4.751  18.059  0.00  0.00    +0.000 A 
ATOM      4  C   UNL     1       5.798   5.439  18.560  0.00  0.00    +0.000 A 
ATOM      5  C   UNL     1       6.839   5.861  17.732  0.00  0.00    +0.000 A 
ATOM      6  F   UNL     1       7.903   6.470  18.277  0.00  0.00    +0.000 F 
ATOM      7  C   UNL     1       6.791   5.631  16.375  0.00  0.00    +0.000 A 
ATOM      8  F   UNL     1       7.806   6.033  15.592  0.00  0.00    +0.000 F 
ENDROOT
BRANCH   3   9
ATOM      9  N   UNL     1       3.625   4.279  18.898  0.00  0.00    +0.000 N 
ATOM     10  C   UNL     1       2.525   3.574  18.201  0.00  0.00    +0.000 C 
ATOM     11  C   UNL     1       1.336   3.187  19.088  0.00  0.00    +0.000 C 
ATOM     12  C   UNL     1       1.639   2.039  20.065  0.00  0.00    +0.000 C 
ATOM     13  N   UNL     1       2.560   2.370  21.154  0.00  0.00    +0.000 NA
ATOM     14  C   UNL     1       2.255   3.661  21.776  0.00  0.00    +0.000 C 
ATOM     15  C   UNL     1       1.993   4.810  20.786  0.00  0.00    +0.000 C 
ATOM     16  C   UNL     1       0.862   4.416  19.848  0.00  0.00    +0.000 C 
ATOM     17  C   UNL     1       3.237   5.224  19.980  0.00  0.00    +0.000 C 
ATOM     18  H   UNL     1       3.503   2.423  20.762  0.00  0.00    +0.000 HD
ENDBRANCH   3   9
BRANCH   1  19
ATOM     19  O   UNL     1       5.694   4.883  14.453  0.00  0.00    +0.000 OA
BRANCH  19  20
ATOM     20  C   UNL     1       6.405   3.753  13.939  0.00  0.00    +0.000 C 
BRANCH  20  21
ATOM     21  C   UNL     1       6.158   3.683  12.423  0.00  0.00    +0.000 C 
BRANCH  21  23
ATOM     22  C   UNL     1       4.136   3.182  11.220  0.00  0.00    +0.000 C 
ATOM     23  N   UNL     1       5.229   2.613  12.014  0.00  0.00    +0.000 NA
ATOM     24  C   UNL     1       5.902   1.561  11.251  0.00  0.00    +0.000 C 
ENDBRANCH  21  23
ENDBRANCH  20  21
ENDBRANCH  19  20
ENDBRANCH   1  19
TORSDOF 5
ENDMDL
MODEL 7
REMARK VINA RESULT:      -7.1      1.039      1.729
REMARK  Name = 
REMARK  7 active torsions:
REMARK  status: ('A' for Active; 'I' for Inactive)
REMARK    1  A    between atoms: C_1  and  N_2
REMARK    2  A    between atoms: N_2  and  C_3
REMARK    3  A    between atoms: N_2  and  C_4
REMARK    4  A    between atoms: C_4  and  C_5
REMARK    5  A    between atoms: C_5  and  O_6
REMARK    6  A    between atoms: O_6  and  C_7
REMARK    7  A    between atoms: C_9  and  N_10
REMARK                            x       y       z     vdW  Elec       q    Type
REMARK                         _______ _______ _______ _____ _____    ______ ____
ROOT
ATOM      1  C   UNL     1       5.744   5.082  15.894  0.00  0.00    +0.000 A 
ATOM      2  C   UNL     1       4.709   4.577  16.703  0.00  0.00    +0.000 A 
ATOM      3  C   UNL     1       4.702   4.743  18.107  0.00  0.00    +0.000 A 
ATOM      4  C   UNL     1       5.769   5.484  18.645  0.00  0.00    +0.000 A 
ATOM      5  C   UNL     1       6.810   5.967  17.851  0.00  0.00    +0.000 A 
ATOM      6  F   UNL     1       7.824   6.626  18.431  0.00  0.00    +0.000 F 
ATOM      7  C   UNL     1       6.813   5.747  16.491  0.00  0.00    +0.000 A 
ATOM      8  F   UNL     1       7.827   6.208  15.741  0.00  0.00    +0.000 F 
ENDROOT
BRANCH   3   9
ATOM      9  N   UNL     1       3.651   4.210  18.912  0.00  0.00    +0.000 N 
ATOM     10  C   UNL     1       3.186   5.086  20.011  0.00  0.00    +0.000 C 
ATOM     11  C   UNL     1       2.153   4.456  20.952  0.00  0.00    +0.000 C 
ATOM     12  C   UNL     1       0.762   4.281  20.318  0.00  0.00    +0.000 C 
ATOM     13  N   UNL     1       0.677   3.263  19.269  0.00  0.00    +0.000 NA
ATOM     14  C   UNL     1       1.364   2.021  19.633  0.00  0.00    +0.000 C 
ATOM     15  C   UNL     1       2.770   2.210  20.230  0.00  0.00    +0.000 C 
ATOM     16  C   UNL     1       2.681   3.119  21.446  0.00  0.00    +0.000 C 
ATOM     17  C   UNL     1       3.796   2.763  19.224  0.00  0.00    +0.000 C 
ATOM     18  H   UNL     1       1.126   3.639  18.430  0.00  0.00    +0.000 HD
ENDBRANCH   3   9
BRANCH   1  19
ATOM     19  O   UNL     1       5.810   4.959  14.533  0.00  0.00    +0.000 OA
BRANCH  19  20
ATOM     20  C   UNL     1       6.386   3.749  14.032  0.00  0.00    +0.000 C 
BRANCH  20  21
ATOM     21  C   UNL     1       6.186   3.720  12.509  0.00  0.00    +0.000 C 
BRANCH  21  23
ATOM     22  C   UNL     1       4.197   3.201  11.258  0.00  0.00    +0.000 C 
ATOM     23  N   UNL     1       5.302   2.636  12.039  0.00  0.00    +0.000 NA
ATOM     24  C   UNL     1       6.022   1.647  11.237  0.00  0.00    +0.000 C 
ENDBRANCH  21  23
ENDBRANCH  20  21
ENDBRANCH  19  20
ENDBRANCH   1  19
TORSDOF 5
ENDMDL
MODEL 8
REMARK VINA RESULT:      -7.0      4.182      7.893
REMARK  Name = 
REMARK  7 active torsions:
REMARK  status: ('A' for Active; 'I' for Inactive)
REMARK    1  A    between atoms: C_1  and  N_2
REMARK    2  A    between atoms: N_2  and  C_3
REMARK    3  A    between atoms: N_2  and  C_4
REMARK    4  A    between atoms: C_4  and  C_5
REMARK    5  A    between atoms: C_5  and  O_6
REMARK    6  A    between atoms: O_6  and  C_7
REMARK    7  A    between atoms: C_9  and  N_10
REMARK                            x       y       z     vdW  Elec       q    Type
REMARK                         _______ _______ _______ _____ _____    ______ ____
ROOT
ATOM      1  C   UNL     1       1.897   5.696  20.220  0.00  0.00    +0.000 A 
ATOM      2  C   UNL     1       3.142   5.946  19.611  0.00  0.00    +0.000 A 
ATOM      3  C   UNL     1       3.845   4.949  18.898  0.00  0.00    +0.000 A 
ATOM      4  C   UNL     1       3.206   3.700  18.792  0.00  0.00    +0.000 A 
ATOM      5  C   UNL     1       1.984   3.440  19.413  0.00  0.00    +0.000 A 
ATOM      6  F   UNL     1       1.448   2.214  19.314  0.00  0.00    +0.000 F 
ATOM      7  C   UNL     1       1.346   4.419  20.142  0.00  0.00    +0.000 A 
ATOM      8  F   UNL     1       0.176   4.150  20.744  0.00  0.00    +0.000 F 
ENDROOT
BRANCH   3   9
ATOM      9  N   UNL     1       5.113   5.217  18.301  0.00  0.00    +0.000 N 
ATOM     10  C   UNL     1       5.488   4.329  17.177  0.00  0.00    +0.000 C 
ATOM     11  C   UNL     1       6.904   4.536  16.629  0.00  0.00    +0.000 C 
ATOM     12  C   UNL     1       7.077   5.842  15.835  0.00  0.00    +0.000 C 
ATOM     13  N   UNL     1       7.023   7.070  16.631  0.00  0.00    +0.000 NA
ATOM     14  C   UNL     1       7.808   6.975  17.865  0.00  0.00    +0.000 C 
ATOM     15  C   UNL     1       7.596   5.680  18.669  0.00  0.00    +0.000 C 
ATOM     16  C   UNL     1       7.896   4.482  17.780  0.00  0.00    +0.000 C 
ATOM     17  C   UNL     1       6.186   5.556  19.275  0.00  0.00    +0.000 C 
ATOM     18  H   UNL     1       6.047   7.235  16.889  0.00  0.00    +0.000 HD
ENDBRANCH   3   9
BRANCH   1  19
ATOM     19  O   UNL     1       1.165   6.615  20.921  0.00  0.00    +0.000 OA
BRANCH  19  20
ATOM     20  C   UNL     1       1.481   7.990  20.687  0.00  0.00    +0.000 C 
BRANCH  20  21
ATOM     21  C   UNL     1       1.468   8.719  22.040  0.00  0.00    +0.000 C 
BRANCH  21  23
ATOM     22  C   UNL     1       0.207  10.255  20.683  0.00  0.00    +0.000 C 
ATOM     23  N   UNL     1       0.720   9.990  22.031  0.00  0.00    +0.000 NA
ATOM     24  C   UNL     1      -0.385   9.986  22.990  0.00  0.00    +0.000 C 
ENDBRANCH  21  23
ENDBRANCH  20  21
ENDBRANCH  19  20
ENDBRANCH   1  19
TORSDOF 5
ENDMDL
MODEL 9
REMARK VINA RESULT:      -7.0      5.160      8.149
REMARK  Name = 
REMARK  7 active torsions:
REMARK  status: ('A' for Active; 'I' for Inactive)
REMARK    1  A    between atoms: C_1  and  N_2
REMARK    2  A    between atoms: N_2  and  C_3
REMARK    3  A    between atoms: N_2  and  C_4
REMARK    4  A    between atoms: C_4  and  C_5
REMARK    5  A    between atoms: C_5  and  O_6
REMARK    6  A    between atoms: O_6  and  C_7
REMARK    7  A    between atoms: C_9  and  N_10
REMARK                            x       y       z     vdW  Elec       q    Type
REMARK                         _______ _______ _______ _____ _____    ______ ____
ROOT
ATOM      1  C   UNL     1       1.405   8.417  20.779  0.00  0.00    +0.000 A 
ATOM      2  C   UNL     1       1.877   7.115  20.524  0.00  0.00    +0.000 A 
ATOM      3  C   UNL     1       2.282   6.699  19.235  0.00  0.00    +0.000 A 
ATOM      4  C   UNL     1       2.230   7.678  18.227  0.00  0.00    +0.000 A 
ATOM      5  C   UNL     1       1.742   8.964  18.468  0.00  0.00    +0.000 A 
ATOM      6  F   UNL     1       1.673   9.838  17.453  0.00  0.00    +0.000 F 
ATOM      7  C   UNL     1       1.309   9.324  19.725  0.00  0.00    +0.000 A 
ATOM      8  F   UNL     1       0.831  10.561  19.939  0.00  0.00    +0.000 F 
ENDROOT
BRANCH   3   9
ATOM      9  N   UNL     1       2.742   5.370  18.995  0.00  0.00    +0.000 N 
ATOM     10  C   UNL     1       4.196   5.159  19.172  0.00  0.00    +0.000 C 
ATOM     11  C   UNL     1       4.703   3.765  18.784  0.00  0.00    +0.000 C 
ATOM     12  C   UNL     1       4.283   2.657  19.765  0.00  0.00    +0.000 C 
ATOM     13  N   UNL     1       2.856   2.325  19.760  0.00  0.00    +0.000 NA
ATOM     14  C   UNL     1       2.312   2.206  18.404  0.00  0.00    +0.000 C 
ATOM     15  C   UNL     1       2.710   3.343  17.445  0.00  0.00    +0.000 C 
ATOM     16  C   UNL     1       4.226   3.436  17.379  0.00  0.00    +0.000 C 
ATOM     17  C   UNL     1       2.106   4.707  17.824  0.00  0.00    +0.000 C 
ATOM     18  H   UNL     1       2.356   3.079  20.236  0.00  0.00    +0.000 HD
ENDBRANCH   3   9
BRANCH   1  19
ATOM     19  O   UNL     1       1.001   8.883  21.999  0.00  0.00    +0.000 OA
BRANCH  19  20
ATOM     20  C   UNL     1      -0.406   9.073  22.172  0.00  0.00    +0.000 C 
BRANCH  20  21
ATOM     21  C   UNL     1      -0.615  10.302  23.071  0.00  0.00    +0.000 C 
BRANCH  21  23
ATOM     22  C   UNL     1      -2.466  11.826  23.267  0.00  0.00    +0.000 C 
ATOM     23  N   UNL     1      -1.346  11.406  22.421  0.00  0.00    +0.000 NA
ATOM     24  C   UNL     1      -0.479  12.551  22.141  0.00  0.00    +0.000 C 
ENDBRANCH  21  23
ENDBRANCH  20  21
ENDBRANCH  19  20
ENDBRANCH   1  19
TORSDOF 5
ENDMDL
