MODEL 1
REMARK VINA RESULT:      -9.1      0.000      0.000
REMARK  Name = 
REMARK  5 active torsions:
REMARK  status: ('A' for Active; 'I' for Inactive)
REMARK    1  A    between atoms: C_1  and  C_2
REMARK    2  A    between atoms: C_8  and  C_10
REMARK    3  A    between atoms: C_13  and  N_14
REMARK    4  A    between atoms: C_15  and  C_17
REMARK    5  A    between atoms: C_17  and  C_18
REMARK                            x       y       z     vdW  Elec       q    Type
REMARK                         _______ _______ _______ _____ _____    ______ ____
ROOT
ATOM      1  C   UNL     1       1.322   9.404  19.605  0.00  0.00    +0.000 A 
ATOM      2  C   UNL     1       1.681   9.678  18.282  0.00  0.00    +0.000 A 
ATOM      3  C   UNL     1       2.385   8.726  17.540  0.00  0.00    +0.000 A 
ATOM      4  C   UNL     1       2.758   7.503  18.106  0.00  0.00    +0.000 A 
ATOM      5  C   UNL     1       2.391   7.230  19.426  0.00  0.00    +0.000 A 
ATOM      6  C   UNL     1       1.694   8.183  20.180  0.00  0.00    +0.000 A 
ENDROOT
BRANCH   1  14
ATOM      7  C   UNL     1      -4.978  13.081  19.709  0.00  0.00    +0.000 C 
ATOM      8  C   UNL     1      -3.670  12.811  20.385  0.00  0.00    +0.000 A 
ATOM      9  C   UNL     1      -3.322  13.475  21.560  0.00  0.00    +0.000 A 
ATOM     10  C   UNL     1      -2.094  13.195  22.132  0.00  0.00    +0.000 A 
ATOM     11  N   UNL     1      -1.213  12.316  21.617  0.00  0.00    +0.000 NA
ATOM     12  C   UNL     1      -1.547  11.669  20.491  0.00  0.00    +0.000 A 
ATOM     13  N   UNL     1      -0.669  10.740  19.918  0.00  0.00    +0.000 N 
ATOM     14  C   UNL     1       0.571  10.398  20.425  0.00  0.00    +0.000 C 
ATOM     15  O   UNL     1       1.099  10.791  21.457  0.00  0.00    +0.000 OA
ATOM     16  C   UNL     1      -2.764  11.890  19.845  0.00  0.00    +0.000 A 
ATOM     17  H   UNL     1      -1.003  10.257  19.098  0.00  0.00    +0.000 HD
ENDBRANCH   1  14
BRANCH   4  18
ATOM     18  N   UNL     1       3.490   6.531  17.392  0.00  0.00    +0.000 N 
ATOM     19  C   UNL     1       4.823   6.629  17.043  0.00  0.00    +0.000 C 
ATOM     20  O   UNL     1       5.591   7.536  17.362  0.00  0.00    +0.000 OA
ATOM     21  H   UNL     1       3.009   5.656  17.199  0.00  0.00    +0.000 HD
BRANCH  19  22
ATOM     22  C   UNL     1       5.342   5.488  16.190  0.00  0.00    +0.000 C 
BRANCH  22  23
ATOM     23  C   UNL     1       5.254   4.134  16.876  0.00  0.00    +0.000 C 
ATOM     24  S   UNL     1       3.567   3.547  17.187  0.00  0.00    +0.000 S 
ATOM     25  C   UNL     1       3.914   3.368  18.896  0.00  0.00    +0.000 C 
ATOM     26  N   UNL     1       2.929   2.920  19.735  0.00  0.00    +0.000 N 
ATOM     27  C   UNL     1       1.502   2.889  19.447  0.00  0.00    +0.000 C 
ATOM     28  C   UNL     1       0.861   3.141  20.807  0.00  0.00    +0.000 C 
ATOM     29  C   UNL     1       1.799   2.429  21.765  0.00  0.00    +0.000 C 
ATOM     30  C   UNL     1       3.184   2.622  21.141  0.00  0.00    +0.000 C 
ATOM     31  N   UNL     1       5.116   3.670  19.265  0.00  0.00    +0.000 NA
ATOM     32  C   UNL     1       5.903   4.144  18.246  0.00  0.00    +0.000 C 
ATOM     33  O   UNL     1       7.043   4.574  18.404  0.00  0.00    +0.000 OA
ENDBRANCH  22  23
ENDBRANCH  19  22
ENDBRANCH   4  18
TORSDOF 4
ENDMDL
MODEL 2
REMARK VINA RESULT:      -9.1      1.520      1.965
REMARK  Name = 
REMARK  5 active torsions:
REMARK  status: ('A' for Active; 'I' for Inactive)
REMARK    1  A    between atoms: C_1  and  C_2
REMARK    2  A    between atoms: C_8  and  C_10
REMARK    3  A    between atoms: C_13  and  N_14
REMARK    4  A    between atoms: C_15  and  C_17
REMARK    5  A    between atoms: C_17  and  C_18
REMARK                            x       y       z     vdW  Elec       q    Type
REMARK                         _______ _______ _______ _____ _____    ______ ____
ROOT
ATOM      1  C   UNL     1       1.204   9.198  19.820  0.00  0.00    +0.000 A 
ATOM      2  C   UNL     1       1.502   9.501  18.489  0.00  0.00    +0.000 A 
ATOM      3  C   UNL     1       2.233   8.597  17.715  0.00  0.00    +0.000 A 
ATOM      4  C   UNL     1       2.696   7.394  18.257  0.00  0.00    +0.000 A 
ATOM      5  C   UNL     1       2.391   7.091  19.587  0.00  0.00    +0.000 A 
ATOM      6  C   UNL     1       1.666   7.997  20.372  0.00  0.00    +0.000 A 
ENDROOT
BRANCH   1  14
ATOM      7  C   UNL     1       1.080  16.186  21.910  0.00  0.00    +0.000 C 
ATOM      8  C   UNL     1       0.447  14.833  22.013  0.00  0.00    +0.000 A 
ATOM      9  C   UNL     1      -0.658  14.621  22.835  0.00  0.00    +0.000 A 
ATOM     10  C   UNL     1      -1.191  13.346  22.900  0.00  0.00    +0.000 A 
ATOM     11  N   UNL     1      -0.703  12.295  22.212  0.00  0.00    +0.000 NA
ATOM     12  C   UNL     1       0.355  12.496  21.414  0.00  0.00    +0.000 A 
ATOM     13  N   UNL     1       0.899  11.439  20.673  0.00  0.00    +0.000 N 
ATOM     14  C   UNL     1       0.426  10.140  20.675  0.00  0.00    +0.000 C 
ATOM     15  O   UNL     1      -0.548   9.692  21.266  0.00  0.00    +0.000 OA
ATOM     16  C   UNL     1       0.959  13.749  21.288  0.00  0.00    +0.000 A 
ATOM     17  H   UNL     1       1.664  11.671  20.059  0.00  0.00    +0.000 HD
ENDBRANCH   1  14
BRANCH   4  18
ATOM     18  N   UNL     1       3.458   6.471  17.510  0.00  0.00    +0.000 N 
ATOM     19  C   UNL     1       4.752   6.672  17.070  0.00  0.00    +0.000 C 
ATOM     20  O   UNL     1       5.461   7.645  17.323  0.00  0.00    +0.000 OA
ATOM     21  H   UNL     1       3.041   5.556  17.364  0.00  0.00    +0.000 HD
BRANCH  19  22
ATOM     22  C   UNL     1       5.308   5.560  16.202  0.00  0.00    +0.000 C 
BRANCH  22  23
ATOM     23  C   UNL     1       5.243   4.190  16.860  0.00  0.00    +0.000 C 
ATOM     24  S   UNL     1       3.566   3.580  17.180  0.00  0.00    +0.000 S 
ATOM     25  C   UNL     1       3.937   3.368  18.881  0.00  0.00    +0.000 C 
ATOM     26  N   UNL     1       2.967   2.892  19.722  0.00  0.00    +0.000 N 
ATOM     27  C   UNL     1       1.537   2.853  19.452  0.00  0.00    +0.000 C 
ATOM     28  C   UNL     1       0.912   3.069  20.824  0.00  0.00    +0.000 C 
ATOM     29  C   UNL     1       1.869   2.347  21.755  0.00  0.00    +0.000 C 
ATOM     30  C   UNL     1       3.244   2.568  21.118  0.00  0.00    +0.000 C 
ATOM     31  N   UNL     1       5.141   3.675  19.241  0.00  0.00    +0.000 NA
ATOM     32  C   UNL     1       5.909   4.179  18.222  0.00  0.00    +0.000 C 
ATOM     33  O   UNL     1       7.046   4.618  18.374  0.00  0.00    +0.000 OA
ENDBRANCH  22  23
ENDBRANCH  19  22
ENDBRANCH   4  18
TORSDOF 4
ENDMDL
MODEL 3
REMARK VINA RESULT:      -8.9      1.388      1.768
REMARK  Name = 
REMARK  5 active torsions:
REMARK  status: ('A' for Active; 'I' for Inactive)
REMARK    1  A    between atoms: C_1  and  C_2
REMARK    2  A    between atoms: C_8  and  C_10
REMARK    3  A    between atoms: C_13  and  N_14
REMARK    4  A    between atoms: C_15  and  C_17
REMARK    5  A    between atoms: C_17  and  C_18
REMARK                            x       y       z     vdW  Elec       q    Type
REMARK                         _______ _______ _______ _____ _____    ______ ____
ROOT
ATOM      1  C   UNL     1       1.257   9.252  19.407  0.00  0.00    +0.000 A 
ATOM      2  C   UNL     1       1.620   8.087  20.089  0.00  0.00    +0.000 A 
ATOM      3  C   UNL     1       2.436   7.140  19.467  0.00  0.00    +0.000 A 
ATOM      4  C   UNL     1       2.884   7.326  18.155  0.00  0.00    +0.000 A 
ATOM      5  C   UNL     1       2.525   8.494  17.478  0.00  0.00    +0.000 A 
ATOM      6  C   UNL     1       1.699   9.444  18.092  0.00  0.00    +0.000 A 
ENDROOT
BRANCH   1  14
ATOM      7  C   UNL     1      -0.528  16.303  18.846  0.00  0.00    +0.000 C 
ATOM      8  C   UNL     1      -0.723  15.013  19.580  0.00  0.00    +0.000 A 
ATOM      9  C   UNL     1      -1.576  14.937  20.679  0.00  0.00    +0.000 A 
ATOM     10  C   UNL     1      -1.705  13.721  21.325  0.00  0.00    +0.000 A 
ATOM     11  N   UNL     1      -1.052  12.603  20.953  0.00  0.00    +0.000 NA
ATOM     12  C   UNL     1      -0.236  12.669  19.891  0.00  0.00    +0.000 A 
ATOM     13  N   UNL     1       0.463  11.534  19.459  0.00  0.00    +0.000 N 
ATOM     14  C   UNL     1       0.387  10.283  20.042  0.00  0.00    +0.000 C 
ATOM     15  O   UNL     1      -0.311   9.930  20.983  0.00  0.00    +0.000 OA
ATOM     16  C   UNL     1      -0.044  13.855  19.180  0.00  0.00    +0.000 A 
ATOM     17  H   UNL     1       1.022  11.644  18.627  0.00  0.00    +0.000 HD
ENDBRANCH   1  14
BRANCH   4  18
ATOM     18  N   UNL     1       3.688   6.377  17.489  0.00  0.00    +0.000 N 
ATOM     19  C   UNL     1       4.964   6.604  17.010  0.00  0.00    +0.000 C 
ATOM     20  O   UNL     1       5.620   7.634  17.154  0.00  0.00    +0.000 OA
ATOM     21  H   UNL     1       3.321   5.430  17.440  0.00  0.00    +0.000 HD
BRANCH  19  22
ATOM     22  C   UNL     1       5.571   5.443  16.246  0.00  0.00    +0.000 C 
BRANCH  22  23
ATOM     23  C   UNL     1       5.457   4.114  16.976  0.00  0.00    +0.000 C 
ATOM     24  S   UNL     1       3.764   3.493  17.165  0.00  0.00    +0.000 S 
ATOM     25  C   UNL     1       3.966   3.389  18.903  0.00  0.00    +0.000 C 
ATOM     26  N   UNL     1       2.923   2.946  19.672  0.00  0.00    +0.000 N 
ATOM     27  C   UNL     1       1.527   2.865  19.264  0.00  0.00    +0.000 C 
ATOM     28  C   UNL     1       0.765   3.151  20.552  0.00  0.00    +0.000 C 
ATOM     29  C   UNL     1       1.633   2.502  21.615  0.00  0.00    +0.000 C 
ATOM     30  C   UNL     1       3.062   2.709  21.105  0.00  0.00    +0.000 C 
ATOM     31  N   UNL     1       5.124   3.738  19.361  0.00  0.00    +0.000 NA
ATOM     32  C   UNL     1       5.984   4.194  18.395  0.00  0.00    +0.000 C 
ATOM     33  O   UNL     1       7.095   4.662  18.632  0.00  0.00    +0.000 OA
ENDBRANCH  22  23
ENDBRANCH  19  22
ENDBRANCH   4  18
TORSDOF 4
ENDMDL
MODEL 4
REMARK VINA RESULT:      -8.8      3.147      4.720
REMARK  Name = 
REMARK  5 active torsions:
REMARK  status: ('A' for Active; 'I' for Inactive)
REMARK    1  A    between atoms: C_1  and  C_2
REMARK    2  A    between atoms: C_8  and  C_10
REMARK    3  A    between atoms: C_13  and  N_14
REMARK    4  A    between atoms: C_15  and  C_17
REMARK    5  A    between atoms: C_17  and  C_18
REMARK                            x       y       z     vdW  Elec       q    Type
REMARK                         _______ _______ _______ _____ _____    ______ ____
ROOT
ATOM      1  C   UNL     1       1.113   9.530  19.572  0.00  0.00    +0.000 A 
ATOM      2  C   UNL     1       1.848   8.821  18.618  0.00  0.00    +0.000 A 
ATOM      3  C   UNL     1       2.296   7.529  18.902  0.00  0.00    +0.000 A 
ATOM      4  C   UNL     1       2.038   6.934  20.142  0.00  0.00    +0.000 A 
ATOM      5  C   UNL     1       1.297   7.643  21.090  0.00  0.00    +0.000 A 
ATOM      6  C   UNL     1       0.853   8.943  20.816  0.00  0.00    +0.000 A 
ENDROOT
BRANCH   1  14
ATOM      7  C   UNL     1       3.527  16.369  18.781  0.00  0.00    +0.000 C 
ATOM      8  C   UNL     1       2.347  15.448  18.801  0.00  0.00    +0.000 A 
ATOM      9  C   UNL     1       1.055  15.938  18.620  0.00  0.00    +0.000 A 
ATOM     10  C   UNL     1       0.003  15.041  18.663  0.00  0.00    +0.000 A 
ATOM     11  N   UNL     1       0.155  13.719  18.870  0.00  0.00    +0.000 NA
ATOM     12  C   UNL     1       1.397  13.242  19.037  0.00  0.00    +0.000 A 
ATOM     13  N   UNL     1       1.611  11.874  19.250  0.00  0.00    +0.000 N 
ATOM     14  C   UNL     1       0.620  10.912  19.301  0.00  0.00    +0.000 C 
ATOM     15  O   UNL     1      -0.583  11.057  19.132  0.00  0.00    +0.000 OA
ATOM     16  C   UNL     1       2.517  14.074  19.010  0.00  0.00    +0.000 A 
ATOM     17  H   UNL     1       2.572  11.578  19.321  0.00  0.00    +0.000 HD
ENDBRANCH   1  14
BRANCH   4  18
ATOM     18  N   UNL     1       2.498   5.641  20.469  0.00  0.00    +0.000 N 
ATOM     19  C   UNL     1       1.706   4.515  20.585  0.00  0.00    +0.000 C 
ATOM     20  O   UNL     1       0.501   4.450  20.349  0.00  0.00    +0.000 OA
ATOM     21  H   UNL     1       3.506   5.525  20.539  0.00  0.00    +0.000 HD
BRANCH  19  22
ATOM     22  C   UNL     1       2.437   3.268  21.044  0.00  0.00    +0.000 C 
BRANCH  22  23
ATOM     23  C   UNL     1       3.275   2.623  19.951  0.00  0.00    +0.000 C 
ATOM     24  S   UNL     1       4.826   3.481  19.575  0.00  0.00    +0.000 S 
ATOM     25  C   UNL     1       4.376   3.614  17.885  0.00  0.00    +0.000 C 
ATOM     26  N   UNL     1       5.231   4.233  17.012  0.00  0.00    +0.000 N 
ATOM     27  C   UNL     1       6.335   5.112  17.367  0.00  0.00    +0.000 C 
ATOM     28  C   UNL     1       6.377   6.110  16.217  0.00  0.00    +0.000 C 
ATOM     29  C   UNL     1       5.995   5.265  15.016  0.00  0.00    +0.000 C 
ATOM     30  C   UNL     1       4.982   4.261  15.574  0.00  0.00    +0.000 C 
ATOM     31  N   UNL     1       3.238   3.093  17.560  0.00  0.00    +0.000 NA
ATOM     32  C   UNL     1       2.544   2.576  18.624  0.00  0.00    +0.000 C 
ATOM     33  O   UNL     1       1.405   2.124  18.545  0.00  0.00    +0.000 OA
ENDBRANCH  22  23
ENDBRANCH  19  22
ENDBRANCH   4  18
TORSDOF 4
ENDMDL
MODEL 5
REMARK VINA RESULT:      -8.7      1.184      1.366
REMARK  Name = 
REMARK  5 active torsions:
REMARK  status: ('A' for Active; 'I' for Inactive)
REMARK    1  A    between atoms: C_1  and  C_2
REMARK    2  A    between atoms: C_8  and  C_10
REMARK    3  A    between atoms: C_13  and  N_14
REMARK    4  A    between atoms: C_15  and  C_17
REMARK    5  A    between atoms: C_17  and  C_18
REMARK                            x       y       z     vdW  Elec       q    Type
REMARK                         _______ _______ _______ _____ _____    ______ ____
ROOT
ATOM      1  C   UNL     1       1.517   9.029  18.961  0.00  0.00    +0.000 A 
ATOM      2  C   UNL     1       2.240   9.368  17.814  0.00  0.00    +0.000 A 
ATOM      3  C   UNL     1       3.248   8.520  17.349  0.00  0.00    +0.000 A 
ATOM      4  C   UNL     1       3.564   7.338  18.027  0.00  0.00    +0.000 A 
ATOM      5  C   UNL     1       2.834   6.999  19.169  0.00  0.00    +0.000 A 
ATOM      6  C   UNL     1       1.829   7.849  19.647  0.00  0.00    +0.000 A 
ENDROOT
BRANCH   1  14
ATOM      7  C   UNL     1      -5.008  11.719  17.115  0.00  0.00    +0.000 C 
ATOM      8  C   UNL     1      -3.919  11.660  18.140  0.00  0.00    +0.000 A 
ATOM      9  C   UNL     1      -4.011  12.388  19.325  0.00  0.00    +0.000 A 
ATOM     10  C   UNL     1      -2.966  12.304  20.228  0.00  0.00    +0.000 A 
ATOM     11  N   UNL     1      -1.862  11.559  20.027  0.00  0.00    +0.000 NA
ATOM     12  C   UNL     1      -1.772  10.851  18.892  0.00  0.00    +0.000 A 
ATOM     13  N   UNL     1      -0.648  10.056  18.637  0.00  0.00    +0.000 N 
ATOM     14  C   UNL     1       0.434   9.912  19.485  0.00  0.00    +0.000 C 
ATOM     15  O   UNL     1       0.592  10.397  20.597  0.00  0.00    +0.000 OA
ATOM     16  C   UNL     1      -2.778  10.876  17.924  0.00  0.00    +0.000 A 
ATOM     17  H   UNL     1      -0.667   9.515  17.786  0.00  0.00    +0.000 HD
ENDBRANCH   1  14
BRANCH   4  18
ATOM     18  N   UNL     1       4.592   6.473  17.598  0.00  0.00    +0.000 N 
ATOM     19  C   UNL     1       5.087   6.393  16.310  0.00  0.00    +0.000 C 
ATOM     20  O   UNL     1       4.762   7.109  15.364  0.00  0.00    +0.000 OA
ATOM     21  H   UNL     1       5.057   5.932  18.322  0.00  0.00    +0.000 HD
BRANCH  19  22
ATOM     22  C   UNL     1       6.126   5.310  16.095  0.00  0.00    +0.000 C 
BRANCH  22  23
ATOM     23  C   UNL     1       5.881   4.064  16.933  0.00  0.00    +0.000 C 
ATOM     24  S   UNL     1       4.161   3.493  16.963  0.00  0.00    +0.000 S 
ATOM     25  C   UNL     1       4.138   3.564  18.714  0.00  0.00    +0.000 C 
ATOM     26  N   UNL     1       2.994   3.219  19.382  0.00  0.00    +0.000 N 
ATOM     27  C   UNL     1       1.659   3.119  18.809  0.00  0.00    +0.000 C 
ATOM     28  C   UNL     1       0.749   3.548  19.953  0.00  0.00    +0.000 C 
ATOM     29  C   UNL     1       1.456   2.997  21.178  0.00  0.00    +0.000 C 
ATOM     30  C   UNL     1       2.944   3.128  20.838  0.00  0.00    +0.000 C 
ATOM     31  N   UNL     1       5.238   3.940  19.281  0.00  0.00    +0.000 NA
ATOM     32  C   UNL     1       6.227   4.281  18.393  0.00  0.00    +0.000 C 
ATOM     33  O   UNL     1       7.312   4.753  18.723  0.00  0.00    +0.000 OA
ENDBRANCH  22  23
ENDBRANCH  19  22
ENDBRANCH   4  18
TORSDOF 4
ENDMDL
MODEL 6
REMARK VINA RESULT:      -8.4      3.516     10.250
REMARK  Name = 
REMARK  5 active torsions:
REMARK  status: ('A' for Active; 'I' for Inactive)
REMARK    1  A    between atoms: C_1  and  C_2
REMARK    2  A    between atoms: C_8  and  C_10
REMARK    3  A    between atoms: C_13  and  N_14
REMARK    4  A    between atoms: C_15  and  C_17
REMARK    5  A    between atoms: C_17  and  C_18
REMARK                            x       y       z     vdW  Elec       q    Type
REMARK                         _______ _______ _______ _____ _____    ______ ____
ROOT
ATOM      1  C   UNL     1       1.310   8.442  20.665  0.00  0.00    +0.000 A 
ATOM      2  C   UNL     1       0.899   9.436  19.772  0.00  0.00    +0.000 A 
ATOM      3  C   UNL     1       0.373  10.635  20.257  0.00  0.00    +0.000 A 
ATOM      4  C   UNL     1       0.229  10.855  21.631  0.00  0.00    +0.000 A 
ATOM      5  C   UNL     1       0.648   9.863  22.521  0.00  0.00    +0.000 A 
ATOM      6  C   UNL     1       1.167   8.653  22.042  0.00  0.00    +0.000 A 
ENDROOT
BRANCH   1  14
ATOM      7  C   UNL     1       5.552   5.722  15.390  0.00  0.00    +0.000 C 
ATOM      8  C   UNL     1       4.718   5.441  16.601  0.00  0.00    +0.000 A 
ATOM      9  C   UNL     1       4.551   4.139  17.068  0.00  0.00    +0.000 A 
ATOM     10  C   UNL     1       3.757   3.939  18.183  0.00  0.00    +0.000 A 
ATOM     11  N   UNL     1       3.135   4.933  18.845  0.00  0.00    +0.000 NA
ATOM     12  C   UNL     1       3.298   6.189  18.404  0.00  0.00    +0.000 A 
ATOM     13  N   UNL     1       2.677   7.260  19.060  0.00  0.00    +0.000 N 
ATOM     14  C   UNL     1       1.875   7.150  20.180  0.00  0.00    +0.000 C 
ATOM     15  O   UNL     1       1.601   6.141  20.817  0.00  0.00    +0.000 OA
ATOM     16  C   UNL     1       4.080   6.483  17.286  0.00  0.00    +0.000 A 
ATOM     17  H   UNL     1       2.881   8.180  18.702  0.00  0.00    +0.000 HD
ENDBRANCH   1  14
BRANCH   4  18
ATOM     18  N   UNL     1      -0.321  12.045  22.152  0.00  0.00    +0.000 N 
ATOM     19  C   UNL     1      -1.469  12.129  22.916  0.00  0.00    +0.000 C 
ATOM     20  O   UNL     1      -2.142  11.181  23.319  0.00  0.00    +0.000 OA
ATOM     21  H   UNL     1       0.228  12.891  22.021  0.00  0.00    +0.000 HD
BRANCH  19  22
ATOM     22  C   UNL     1      -1.897  13.540  23.268  0.00  0.00    +0.000 C 
BRANCH  22  23
ATOM     23  C   UNL     1      -2.924  14.117  22.305  0.00  0.00    +0.000 C 
ATOM     24  S   UNL     1      -4.578  13.388  22.431  0.00  0.00    +0.000 S 
ATOM     25  C   UNL     1      -4.559  12.978  20.727  0.00  0.00    +0.000 C 
ATOM     26  N   UNL     1      -5.641  12.341  20.180  0.00  0.00    +0.000 N 
ATOM     27  C   UNL     1      -6.689  11.644  20.911  0.00  0.00    +0.000 C 
ATOM     28  C   UNL     1      -7.078  10.508  19.973  0.00  0.00    +0.000 C 
ATOM     29  C   UNL     1      -6.936  11.134  18.598  0.00  0.00    +0.000 C 
ATOM     30  C   UNL     1      -5.748  12.089  18.746  0.00  0.00    +0.000 C 
ATOM     31  N   UNL     1      -3.497  13.323  20.073  0.00  0.00    +0.000 NA
ATOM     32  C   UNL     1      -2.532  13.903  20.856  0.00  0.00    +0.000 C 
ATOM     33  O   UNL     1      -1.415  14.214  20.450  0.00  0.00    +0.000 OA
ENDBRANCH  22  23
ENDBRANCH  19  22
ENDBRANCH   4  18
TORSDOF 4
ENDMDL
MODEL 7
REMARK VINA RESULT:      -8.4      3.315     10.745
REMARK  Name = 
REMARK  5 active torsions:
REMARK  status: ('A' for Active; 'I' for Inactive)
REMARK    1  A    between atoms: C_1  and  C_2
REMARK    2  A    between atoms: C_8  and  C_10
REMARK    3  A    between atoms: C_13  and  N_14
REMARK    4  A    between atoms: C_15  and  C_17
REMARK    5  A    between atoms: C_17  and  C_18
REMARK                            x       y       z     vdW  Elec       q    Type
REMARK                         _______ _______ _______ _____ _____    ______ ____
ROOT
ATOM      1  C   UNL     1       2.250   7.613  19.001  0.00  0.00    +0.000 A 
ATOM      2  C   UNL     1       2.000   8.658  18.106  0.00  0.00    +0.000 A 
ATOM      3  C   UNL     1       1.275   9.776  18.525  0.00  0.00    +0.000 A 
ATOM      4  C   UNL     1       0.772   9.861  19.828  0.00  0.00    +0.000 A 
ATOM      5  C   UNL     1       1.030   8.819  20.721  0.00  0.00    +0.000 A 
ATOM      6  C   UNL     1       1.748   7.690  20.305  0.00  0.00    +0.000 A 
ENDROOT
BRANCH   1  14
ATOM      7  C   UNL     1       6.970   5.359  13.915  0.00  0.00    +0.000 C 
ATOM      8  C   UNL     1       6.167   5.005  15.128  0.00  0.00    +0.000 A 
ATOM      9  C   UNL     1       6.197   3.715  15.655  0.00  0.00    +0.000 A 
ATOM     10  C   UNL     1       5.422   3.444  16.769  0.00  0.00    +0.000 A 
ATOM     11  N   UNL     1       4.639   4.357  17.374  0.00  0.00    +0.000 NA
ATOM     12  C   UNL     1       4.612   5.601  16.876  0.00  0.00    +0.000 A 
ATOM     13  N   UNL     1       3.818   6.589  17.471  0.00  0.00    +0.000 N 
ATOM     14  C   UNL     1       3.021   6.406  18.586  0.00  0.00    +0.000 C 
ATOM     15  O   UNL     1       2.896   5.396  19.266  0.00  0.00    +0.000 OA
ATOM     16  C   UNL     1       5.360   5.964  15.754  0.00  0.00    +0.000 A 
ATOM     17  H   UNL     1       3.881   7.513  17.073  0.00  0.00    +0.000 HD
ENDBRANCH   1  14
BRANCH   4  18
ATOM     18  N   UNL     1       0.015  10.965  20.275  0.00  0.00    +0.000 N 
ATOM     19  C   UNL     1       0.524  12.080  20.910  0.00  0.00    +0.000 C 
ATOM     20  O   UNL     1       1.713  12.317  21.117  0.00  0.00    +0.000 OA
ATOM     21  H   UNL     1      -0.971  10.965  20.026  0.00  0.00    +0.000 HD
BRANCH  19  22
ATOM     22  C   UNL     1      -0.519  13.078  21.375  0.00  0.00    +0.000 C 
BRANCH  22  23
ATOM     23  C   UNL     1      -1.941  12.542  21.303  0.00  0.00    +0.000 C 
ATOM     24  S   UNL     1      -3.204  13.786  20.927  0.00  0.00    +0.000 S 
ATOM     25  C   UNL     1      -4.093  13.364  22.377  0.00  0.00    +0.000 C 
ATOM     26  N   UNL     1      -5.253  14.031  22.669  0.00  0.00    +0.000 N 
ATOM     27  C   UNL     1      -5.682  15.301  22.101  0.00  0.00    +0.000 C 
ATOM     28  C   UNL     1      -6.444  15.960  23.243  0.00  0.00    +0.000 C 
ATOM     29  C   UNL     1      -7.119  14.786  23.927  0.00  0.00    +0.000 C 
ATOM     30  C   UNL     1      -6.110  13.643  23.785  0.00  0.00    +0.000 C 
ATOM     31  N   UNL     1      -3.588  12.414  23.095  0.00  0.00    +0.000 NA
ATOM     32  C   UNL     1      -2.392  11.939  22.618  0.00  0.00    +0.000 C 
ATOM     33  O   UNL     1      -1.703  11.107  23.203  0.00  0.00    +0.000 OA
ENDBRANCH  22  23
ENDBRANCH  19  22
ENDBRANCH   4  18
TORSDOF 4
ENDMDL
MODEL 8
REMARK VINA RESULT:      -8.3      1.408      1.580
REMARK  Name = 
REMARK  5 active torsions:
REMARK  status: ('A' for Active; 'I' for Inactive)
REMARK    1  A    between atoms: C_1  and  C_2
REMARK    2  A    between atoms: C_8  and  C_10
REMARK    3  A    between atoms: C_13  and  N_14
REMARK    4  A    between atoms: C_15  and  C_17
REMARK    5  A    between atoms: C_17  and  C_18
REMARK                            x       y       z     vdW  Elec       q    Type
REMARK                         _______ _______ _______ _____ _____    ______ ____
ROOT
ATOM      1  C   UNL     1       1.519   8.919  19.183  0.00  0.00    +0.000 A 
ATOM      2  C   UNL     1       2.136   9.233  17.968  0.00  0.00    +0.000 A 
ATOM      3  C   UNL     1       3.103   8.377  17.436  0.00  0.00    +0.000 A 
ATOM      4  C   UNL     1       3.485   7.213  18.111  0.00  0.00    +0.000 A 
ATOM      5  C   UNL     1       2.861   6.899  19.322  0.00  0.00    +0.000 A 
ATOM      6  C   UNL     1       1.897   7.758  19.866  0.00  0.00    +0.000 A 
ENDROOT
BRANCH   1  14
ATOM      7  C   UNL     1      -0.583  15.904  19.288  0.00  0.00    +0.000 C 
ATOM      8  C   UNL     1      -0.826  14.512  19.782  0.00  0.00    +0.000 A 
ATOM      9  C   UNL     1      -1.860  14.241  20.677  0.00  0.00    +0.000 A 
ATOM     10  C   UNL     1      -2.026  12.937  21.109  0.00  0.00    +0.000 A 
ATOM     11  N   UNL     1      -1.246  11.913  20.715  0.00  0.00    +0.000 NA
ATOM     12  C   UNL     1      -0.255  12.168  19.848  0.00  0.00    +0.000 A 
ATOM     13  N   UNL     1       0.583  11.137  19.403  0.00  0.00    +0.000 N 
ATOM     14  C   UNL     1       0.482   9.811  19.779  0.00  0.00    +0.000 C 
ATOM     15  O   UNL     1      -0.352   9.294  20.510  0.00  0.00    +0.000 OA
ATOM     16  C   UNL     1      -0.012  13.453  19.361  0.00  0.00    +0.000 A 
ATOM     17  H   UNL     1       1.277  11.391  18.717  0.00  0.00    +0.000 HD
ENDBRANCH   1  14
BRANCH   4  18
ATOM     18  N   UNL     1       4.476   6.341  17.614  0.00  0.00    +0.000 N 
ATOM     19  C   UNL     1       4.993   6.364  16.333  0.00  0.00    +0.000 C 
ATOM     20  O   UNL     1       4.726   7.187  15.458  0.00  0.00    +0.000 OA
ATOM     21  H   UNL     1       4.897   5.706  18.287  0.00  0.00    +0.000 HD
BRANCH  19  22
ATOM     22  C   UNL     1       5.979   5.253  16.026  0.00  0.00    +0.000 C 
BRANCH  22  23
ATOM     23  C   UNL     1       5.754   4.000  16.858  0.00  0.00    +0.000 C 
ATOM     24  S   UNL     1       4.030   3.450  16.954  0.00  0.00    +0.000 S 
ATOM     25  C   UNL     1       4.082   3.499  18.706  0.00  0.00    +0.000 C 
ATOM     26  N   UNL     1       2.963   3.159  19.417  0.00  0.00    +0.000 N 
ATOM     27  C   UNL     1       1.604   3.082  18.900  0.00  0.00    +0.000 C 
ATOM     28  C   UNL     1       0.749   3.507  20.087  0.00  0.00    +0.000 C 
ATOM     29  C   UNL     1       1.500   2.932  21.274  0.00  0.00    +0.000 C 
ATOM     30  C   UNL     1       2.974   3.050  20.873  0.00  0.00    +0.000 C 
ATOM     31  N   UNL     1       5.210   3.854  19.229  0.00  0.00    +0.000 NA
ATOM     32  C   UNL     1       6.164   4.194  18.304  0.00  0.00    +0.000 C 
ATOM     33  O   UNL     1       7.268   4.648  18.594  0.00  0.00    +0.000 OA
ENDBRANCH  22  23
ENDBRANCH  19  22
ENDBRANCH   4  18
TORSDOF 4
ENDMDL
MODEL 9
REMARK VINA RESULT:      -8.3      3.367     10.134
REMARK  Name = 
REMARK  5 active torsions:
REMARK  status: ('A' for Active; 'I' for Inactive)
REMARK    1  A    between atoms: C_1  and  C_2
REMARK    2  A    between atoms: C_8  and  C_10
REMARK    3  A    between atoms: C_13  and  N_14
REMARK    4  A    between atoms: C_15  and  C_17
REMARK    5  A    between atoms: C_17  and  C_18
REMARK                            x       y       z     vdW  Elec       q    Type
REMARK                         _______ _______ _______ _____ _____    ______ ____
ROOT
ATOM      1  C   UNL     1       1.715   8.011  20.261  0.00  0.00    +0.000 A 
ATOM      2  C   UNL     1       1.569   8.234  21.634  0.00  0.00    +0.000 A 
ATOM      3  C   UNL     1       1.057   9.450  22.091  0.00  0.00    +0.000 A 
ATOM      4  C   UNL     1       0.703  10.465  21.196  0.00  0.00    +0.000 A 
ATOM      5  C   UNL     1       0.843  10.236  19.825  0.00  0.00    +0.000 A 
ATOM      6  C   UNL     1       1.366   9.023  19.359  0.00  0.00    +0.000 A 
ENDROOT
BRANCH   1  14
ATOM      7  C   UNL     1       5.988   5.387  14.963  0.00  0.00    +0.000 C 
ATOM      8  C   UNL     1       5.126   5.081  16.148  0.00  0.00    +0.000 A 
ATOM      9  C   UNL     1       4.920   3.767  16.563  0.00  0.00    +0.000 A 
ATOM     10  C   UNL     1       4.102   3.546  17.656  0.00  0.00    +0.000 A 
ATOM     11  N   UNL     1       3.491   4.529  18.344  0.00  0.00    +0.000 NA
ATOM     12  C   UNL     1       3.691   5.796  17.953  0.00  0.00    +0.000 A 
ATOM     13  N   UNL     1       3.083   6.856  18.637  0.00  0.00    +0.000 N 
ATOM     14  C   UNL     1       2.259   6.724  19.739  0.00  0.00    +0.000 C 
ATOM     15  O   UNL     1       1.950   5.700  20.332  0.00  0.00    +0.000 OA
ATOM     16  C   UNL     1       4.500   6.112  16.860  0.00  0.00    +0.000 A 
ATOM     17  H   UNL     1       3.314   7.784  18.318  0.00  0.00    +0.000 HD
ENDBRANCH   1  14
BRANCH   4  18
ATOM     18  N   UNL     1       0.206  11.713  21.627  0.00  0.00    +0.000 N 
ATOM     19  C   UNL     1      -0.921  11.902  22.403  0.00  0.00    +0.000 C 
ATOM     20  O   UNL     1      -1.618  11.017  22.896  0.00  0.00    +0.000 OA
ATOM     21  H   UNL     1       0.781  12.525  21.416  0.00  0.00    +0.000 HD
BRANCH  19  22
ATOM     22  C   UNL     1      -1.291  13.353  22.644  0.00  0.00    +0.000 C 
BRANCH  22  23
ATOM     23  C   UNL     1      -2.278  13.901  21.623  0.00  0.00    +0.000 C 
ATOM     24  S   UNL     1      -4.008  13.454  21.922  0.00  0.00    +0.000 S 
ATOM     25  C   UNL     1      -4.136  12.762  20.317  0.00  0.00    +0.000 C 
ATOM     26  N   UNL     1      -5.324  12.206  19.921  0.00  0.00    +0.000 N 
ATOM     27  C   UNL     1      -6.418  11.804  20.792  0.00  0.00    +0.000 C 
ATOM     28  C   UNL     1      -7.011  10.594  20.080  0.00  0.00    +0.000 C 
ATOM     29  C   UNL     1      -6.856  10.950  18.613  0.00  0.00    +0.000 C 
ATOM     30  C   UNL     1      -5.541  11.732  18.557  0.00  0.00    +0.000 C 
ATOM     31  N   UNL     1      -3.073  12.831  19.583  0.00  0.00    +0.000 NA
ATOM     32  C   UNL     1      -1.997  13.389  20.225  0.00  0.00    +0.000 C 
ATOM     33  O   UNL     1      -0.871  13.460  19.739  0.00  0.00    +0.000 OA
ENDBRANCH  22  23
ENDBRANCH  19  22
ENDBRANCH   4  18
TORSDOF 4
ENDMDL
