MODEL 1
REMARK VINA RESULT:      -7.4      0.000      0.000
REMARK  Name = 
REMARK  6 active torsions:
REMARK  status: ('A' for Active; 'I' for Inactive)
REMARK    1  A    between atoms: C_1  and  C_2
REMARK    2  A    between atoms: C_2  and  N_3
REMARK    3  A    between atoms: N_3  and  C_20
REMARK    4  A    between atoms: C_4  and  C_6
REMARK    5  A    between atoms: C_8  and  C_9
REMARK    6  A    between atoms: N_10  and  C_11
REMARK                            x       y       z     vdW  Elec       q    Type
REMARK                         _______ _______ _______ _____ _____    ______ ____
ROOT
ATOM      1  C   UNL     1       2.628   7.944  18.013  0.00  0.00    +0.000 A 
ATOM      2  C   UNL     1       3.875   7.996  17.334  0.00  0.00    +0.000 A 
ATOM      3  C   UNL     1       4.266   6.693  17.127  0.00  0.00    +0.000 A 
ATOM      4  C   UNL     1       5.367   6.194  16.262  0.00  0.00    +0.000 C 
ATOM      5  N   UNL     1       3.331   5.911  17.792  0.00  0.00    +0.000 N 
ATOM      6  N   UNL     1       2.297   6.666  18.247  0.00  0.00    +0.000 NA
ENDROOT
BRANCH   5   7
ATOM      7  C   UNL     1       3.374   4.517  18.068  0.00  0.00    +0.000 A 
ATOM      8  C   UNL     1       2.529   3.624  17.389  0.00  0.00    +0.000 A 
ATOM      9  C   UNL     1       2.600   2.253  17.644  0.00  0.00    +0.000 A 
ATOM     10  C   UNL     1       3.510   1.774  18.578  0.00  0.00    +0.000 A 
ATOM     11  F   UNL     1       3.578   0.458  18.815  0.00  0.00    +0.000 F 
ATOM     12  C   UNL     1       4.362   2.636  19.251  0.00  0.00    +0.000 A 
ATOM     13  C   UNL     1       4.298   4.004  18.988  0.00  0.00    +0.000 A 
ATOM     14  F   UNL     1       5.109   4.804  19.695  0.00  0.00    +0.000 F 
ENDBRANCH   5   7
BRANCH   1  16
ATOM     15  N   UNL     1       1.119   9.335  19.529  0.00  0.00    +0.000 N 
ATOM     16  C   UNL     1       1.801   9.150  18.292  0.00  0.00    +0.000 C 
ATOM     17  O   UNL     1       1.778  10.012  17.409  0.00  0.00    +0.000 OA
BRANCH  15  18
ATOM     18  C   UNL     1       0.246  10.486  19.718  0.00  0.00    +0.000 A 
ATOM     19  C   UNL     1      -1.049  10.547  19.190  0.00  0.00    +0.000 A 
ATOM     20  C   UNL     1      -1.860  11.668  19.393  0.00  0.00    +0.000 A 
ATOM     21  C   UNL     1      -1.364  12.718  20.141  0.00  0.00    +0.000 A 
ATOM     22  N   UNL     1      -0.136  12.712  20.690  0.00  0.00    +0.000 NA
ATOM     23  C   UNL     1       0.624  11.607  20.469  0.00  0.00    +0.000 A 
ENDBRANCH  15  18
BRANCH  15  25
ATOM     24  C   UNL     1       0.098   8.232  21.524  0.00  0.00    +0.000 C 
ATOM     25  C   UNL     1       1.363   8.493  20.714  0.00  0.00    +0.000 C 
ENDBRANCH  15  25
ENDBRANCH   1  16
TORSDOF 4
ENDMDL
MODEL 2
REMARK VINA RESULT:      -7.3      2.168      3.115
REMARK  Name = 
REMARK  6 active torsions:
REMARK  status: ('A' for Active; 'I' for Inactive)
REMARK    1  A    between atoms: C_1  and  C_2
REMARK    2  A    between atoms: C_2  and  N_3
REMARK    3  A    between atoms: N_3  and  C_20
REMARK    4  A    between atoms: C_4  and  C_6
REMARK    5  A    between atoms: C_8  and  C_9
REMARK    6  A    between atoms: N_10  and  C_11
REMARK                            x       y       z     vdW  Elec       q    Type
REMARK                         _______ _______ _______ _____ _____    ______ ____
ROOT
ATOM      1  C   UNL     1       2.127   6.974  20.103  0.00  0.00    +0.000 A 
ATOM      2  C   UNL     1       1.805   5.656  20.525  0.00  0.00    +0.000 A 
ATOM      3  C   UNL     1       2.766   4.826  19.995  0.00  0.00    +0.000 A 
ATOM      4  C   UNL     1       3.026   3.400  20.322  0.00  0.00    +0.000 C 
ATOM      5  N   UNL     1       3.546   5.632  19.175  0.00  0.00    +0.000 N 
ATOM      6  N   UNL     1       3.212   6.941  19.316  0.00  0.00    +0.000 NA
ENDROOT
BRANCH   5   7
ATOM      7  C   UNL     1       4.543   5.245  18.239  0.00  0.00    +0.000 A 
ATOM      8  C   UNL     1       4.194   4.867  16.932  0.00  0.00    +0.000 A 
ATOM      9  C   UNL     1       5.184   4.518  16.010  0.00  0.00    +0.000 A 
ATOM     10  C   UNL     1       6.519   4.544  16.393  0.00  0.00    +0.000 A 
ATOM     11  F   UNL     1       7.464   4.215  15.503  0.00  0.00    +0.000 F 
ATOM     12  C   UNL     1       6.887   4.926  17.674  0.00  0.00    +0.000 A 
ATOM     13  C   UNL     1       5.899   5.284  18.591  0.00  0.00    +0.000 A 
ATOM     14  F   UNL     1       6.298   5.602  19.830  0.00  0.00    +0.000 F 
ENDBRANCH   5   7
BRANCH   1  16
ATOM     15  N   UNL     1       1.088   9.274  19.728  0.00  0.00    +0.000 N 
ATOM     16  C   UNL     1       1.408   8.184  20.588  0.00  0.00    +0.000 C 
ATOM     17  O   UNL     1       1.055   8.171  21.771  0.00  0.00    +0.000 OA
BRANCH  15  18
ATOM     18  C   UNL     1       0.468  10.476  20.271  0.00  0.00    +0.000 A 
ATOM     19  C   UNL     1      -0.899  10.748  20.134  0.00  0.00    +0.000 A 
ATOM     20  C   UNL     1      -1.461  11.910  20.671  0.00  0.00    +0.000 A 
ATOM     21  C   UNL     1      -0.643  12.787  21.355  0.00  0.00    +0.000 A 
ATOM     22  N   UNL     1       0.673  12.574  21.537  0.00  0.00    +0.000 NA
ATOM     23  C   UNL     1       1.184  11.434  20.999  0.00  0.00    +0.000 A 
ENDBRANCH  15  18
BRANCH  15  25
ATOM     24  C   UNL     1       2.235  10.190  17.707  0.00  0.00    +0.000 C 
ATOM     25  C   UNL     1       1.213   9.204  18.262  0.00  0.00    +0.000 C 
ENDBRANCH  15  25
ENDBRANCH   1  16
TORSDOF 4
ENDMDL
MODEL 3
REMARK VINA RESULT:      -7.1      2.225      3.251
REMARK  Name = 
REMARK  6 active torsions:
REMARK  status: ('A' for Active; 'I' for Inactive)
REMARK    1  A    between atoms: C_1  and  C_2
REMARK    2  A    between atoms: C_2  and  N_3
REMARK    3  A    between atoms: N_3  and  C_20
REMARK    4  A    between atoms: C_4  and  C_6
REMARK    5  A    between atoms: C_8  and  C_9
REMARK    6  A    between atoms: N_10  and  C_11
REMARK                            x       y       z     vdW  Elec       q    Type
REMARK                         _______ _______ _______ _____ _____    ______ ____
ROOT
ATOM      1  C   UNL     1       1.790   7.290  20.438  0.00  0.00    +0.000 A 
ATOM      2  C   UNL     1       1.375   6.028  20.942  0.00  0.00    +0.000 A 
ATOM      3  C   UNL     1       2.251   5.095  20.436  0.00  0.00    +0.000 A 
ATOM      4  C   UNL     1       2.405   3.672  20.837  0.00  0.00    +0.000 C 
ATOM      5  N   UNL     1       3.068   5.788  19.553  0.00  0.00    +0.000 N 
ATOM      6  N   UNL     1       2.844   7.126  19.627  0.00  0.00    +0.000 NA
ENDROOT
BRANCH   5   7
ATOM      7  C   UNL     1       4.003   5.270  18.615  0.00  0.00    +0.000 A 
ATOM      8  C   UNL     1       5.384   5.413  18.824  0.00  0.00    +0.000 A 
ATOM      9  C   UNL     1       6.296   4.875  17.913  0.00  0.00    +0.000 A 
ATOM     10  C   UNL     1       5.829   4.196  16.794  0.00  0.00    +0.000 A 
ATOM     11  F   UNL     1       6.707   3.676  15.927  0.00  0.00    +0.000 F 
ATOM     12  C   UNL     1       4.470   4.033  16.574  0.00  0.00    +0.000 A 
ATOM     13  C   UNL     1       3.561   4.562  17.490  0.00  0.00    +0.000 A 
ATOM     14  F   UNL     1       2.257   4.418  17.213  0.00  0.00    +0.000 F 
ENDBRANCH   5   7
BRANCH   1  16
ATOM     15  N   UNL     1       0.870   9.619  19.949  0.00  0.00    +0.000 N 
ATOM     16  C   UNL     1       1.184   8.580  20.870  0.00  0.00    +0.000 C 
ATOM     17  O   UNL     1       0.920   8.682  22.072  0.00  0.00    +0.000 OA
BRANCH  15  18
ATOM     18  C   UNL     1       0.366  10.898  20.434  0.00  0.00    +0.000 A 
ATOM     19  C   UNL     1      -0.997  11.218  20.446  0.00  0.00    +0.000 A 
ATOM     20  C   UNL     1      -1.445  12.455  20.922  0.00  0.00    +0.000 A 
ATOM     21  C   UNL     1      -0.514  13.359  21.393  0.00  0.00    +0.000 A 
ATOM     22  N   UNL     1       0.807  13.105  21.425  0.00  0.00    +0.000 NA
ATOM     23  C   UNL     1       1.204  11.893  20.952  0.00  0.00    +0.000 A 
ENDBRANCH  15  18
BRANCH  15  25
ATOM     24  C   UNL     1       2.053  10.127  17.808  0.00  0.00    +0.000 C 
ATOM     25  C   UNL     1       0.880   9.428  18.488  0.00  0.00    +0.000 C 
ENDBRANCH  15  25
ENDBRANCH   1  16
TORSDOF 4
ENDMDL
MODEL 4
REMARK VINA RESULT:      -7.0      2.132      3.398
REMARK  Name = 
REMARK  6 active torsions:
REMARK  status: ('A' for Active; 'I' for Inactive)
REMARK    1  A    between atoms: C_1  and  C_2
REMARK    2  A    between atoms: C_2  and  N_3
REMARK    3  A    between atoms: N_3  and  C_20
REMARK    4  A    between atoms: C_4  and  C_6
REMARK    5  A    between atoms: C_8  and  C_9
REMARK    6  A    between atoms: N_10  and  C_11
REMARK                            x       y       z     vdW  Elec       q    Type
REMARK                         _______ _______ _______ _____ _____    ______ ____
ROOT
ATOM      1  C   UNL     1       2.292   6.767  19.795  0.00  0.00    +0.000 A 
ATOM      2  C   UNL     1       2.178   5.426  20.250  0.00  0.00    +0.000 A 
ATOM      3  C   UNL     1       3.200   4.721  19.657  0.00  0.00    +0.000 A 
ATOM      4  C   UNL     1       3.669   3.346  19.976  0.00  0.00    +0.000 C 
ATOM      5  N   UNL     1       3.806   5.607  18.777  0.00  0.00    +0.000 N 
ATOM      6  N   UNL     1       3.313   6.864  18.932  0.00  0.00    +0.000 NA
ENDROOT
BRANCH   5   7
ATOM      7  C   UNL     1       4.777   5.339  17.774  0.00  0.00    +0.000 A 
ATOM      8  C   UNL     1       6.049   5.933  17.828  0.00  0.00    +0.000 A 
ATOM      9  C   UNL     1       7.007   5.639  16.855  0.00  0.00    +0.000 A 
ATOM     10  C   UNL     1       6.695   4.757  15.828  0.00  0.00    +0.000 A 
ATOM     11  F   UNL     1       7.618   4.475  14.901  0.00  0.00    +0.000 F 
ATOM     12  C   UNL     1       5.450   4.151  15.762  0.00  0.00    +0.000 A 
ATOM     13  C   UNL     1       4.497   4.436  16.740  0.00  0.00    +0.000 A 
ATOM     14  F   UNL     1       3.293   3.862  16.610  0.00  0.00    +0.000 F 
ENDBRANCH   5   7
BRANCH   1  16
ATOM     15  N   UNL     1       1.178   9.051  19.559  0.00  0.00    +0.000 N 
ATOM     16  C   UNL     1       1.454   7.880  20.322  0.00  0.00    +0.000 C 
ATOM     17  O   UNL     1       0.966   7.712  21.443  0.00  0.00    +0.000 OA
BRANCH  15  18
ATOM     18  C   UNL     1       0.433  10.153  20.154  0.00  0.00    +0.000 A 
ATOM     19  C   UNL     1      -0.816  10.567  19.673  0.00  0.00    +0.000 A 
ATOM     20  C   UNL     1      -1.504  11.627  20.271  0.00  0.00    +0.000 A 
ATOM     21  C   UNL     1      -0.935  12.256  21.360  0.00  0.00    +0.000 A 
ATOM     22  N   UNL     1       0.251  11.893  21.880  0.00  0.00    +0.000 NA
ATOM     23  C   UNL     1       0.893  10.860  21.271  0.00  0.00    +0.000 A 
ENDBRANCH  15  18
BRANCH  15  25
ATOM     24  C   UNL     1       2.276  10.413  17.776  0.00  0.00    +0.000 C 
ATOM     25  C   UNL     1       1.478   9.161  18.120  0.00  0.00    +0.000 C 
ENDBRANCH  15  25
ENDBRANCH   1  16
TORSDOF 4
ENDMDL
MODEL 5
REMARK VINA RESULT:      -6.9      0.969      1.359
REMARK  Name = 
REMARK  6 active torsions:
REMARK  status: ('A' for Active; 'I' for Inactive)
REMARK    1  A    between atoms: C_1  and  C_2
REMARK    2  A    between atoms: C_2  and  N_3
REMARK    3  A    between atoms: N_3  and  C_20
REMARK    4  A    between atoms: C_4  and  C_6
REMARK    5  A    between atoms: C_8  and  C_9
REMARK    6  A    between atoms: N_10  and  C_11
REMARK                            x       y       z     vdW  Elec       q    Type
REMARK                         _______ _______ _______ _____ _____    ______ ____
ROOT
ATOM      1  C   UNL     1       2.584   8.006  18.067  0.00  0.00    +0.000 A 
ATOM      2  C   UNL     1       3.821   8.056  17.368  0.00  0.00    +0.000 A 
ATOM      3  C   UNL     1       4.205   6.752  17.154  0.00  0.00    +0.000 A 
ATOM      4  C   UNL     1       5.292   6.251  16.272  0.00  0.00    +0.000 C 
ATOM      5  N   UNL     1       3.278   5.972  17.833  0.00  0.00    +0.000 N 
ATOM      6  N   UNL     1       2.253   6.729  18.304  0.00  0.00    +0.000 NA
ENDROOT
BRANCH   5   7
ATOM      7  C   UNL     1       3.321   4.577  18.106  0.00  0.00    +0.000 A 
ATOM      8  C   UNL     1       4.381   4.022  18.842  0.00  0.00    +0.000 A 
ATOM      9  C   UNL     1       4.399   2.655  19.132  0.00  0.00    +0.000 A 
ATOM     10  C   UNL     1       3.363   1.845  18.684  0.00  0.00    +0.000 A 
ATOM     11  F   UNL     1       3.381   0.537  18.970  0.00  0.00    +0.000 F 
ATOM     12  C   UNL     1       2.302   2.374  17.966  0.00  0.00    +0.000 A 
ATOM     13  C   UNL     1       2.279   3.740  17.686  0.00  0.00    +0.000 A 
ATOM     14  F   UNL     1       1.257   4.199  16.951  0.00  0.00    +0.000 F 
ENDBRANCH   5   7
BRANCH   1  16
ATOM     15  N   UNL     1       1.092   9.393  19.603  0.00  0.00    +0.000 N 
ATOM     16  C   UNL     1       1.764   9.214  18.360  0.00  0.00    +0.000 C 
ATOM     17  O   UNL     1       1.738  10.082  17.483  0.00  0.00    +0.000 OA
BRANCH  15  18
ATOM     18  C   UNL     1       0.226  10.547  19.806  0.00  0.00    +0.000 A 
ATOM     19  C   UNL     1      -1.075  10.616  19.291  0.00  0.00    +0.000 A 
ATOM     20  C   UNL     1      -1.879  11.739  19.508  0.00  0.00    +0.000 A 
ATOM     21  C   UNL     1      -1.371  12.783  20.255  0.00  0.00    +0.000 A 
ATOM     22  N   UNL     1      -0.138  12.770  20.793  0.00  0.00    +0.000 NA
ATOM     23  C   UNL     1       0.616  11.662  20.558  0.00  0.00    +0.000 A 
ENDBRANCH  15  18
BRANCH  15  25
ATOM     24  C   UNL     1       0.076   8.265  21.587  0.00  0.00    +0.000 C 
ATOM     25  C   UNL     1       1.340   8.542  20.781  0.00  0.00    +0.000 C 
ENDBRANCH  15  25
ENDBRANCH   1  16
TORSDOF 4
ENDMDL
MODEL 6
REMARK VINA RESULT:      -6.9      2.447      3.805
REMARK  Name = 
REMARK  6 active torsions:
REMARK  status: ('A' for Active; 'I' for Inactive)
REMARK    1  A    between atoms: C_1  and  C_2
REMARK    2  A    between atoms: C_2  and  N_3
REMARK    3  A    between atoms: N_3  and  C_20
REMARK    4  A    between atoms: C_4  and  C_6
REMARK    5  A    between atoms: C_8  and  C_9
REMARK    6  A    between atoms: N_10  and  C_11
REMARK                            x       y       z     vdW  Elec       q    Type
REMARK                         _______ _______ _______ _____ _____    ______ ____
ROOT
ATOM      1  C   UNL     1       2.579   5.500  19.214  0.00  0.00    +0.000 A 
ATOM      2  C   UNL     1       2.324   4.104  19.145  0.00  0.00    +0.000 A 
ATOM      3  C   UNL     1       3.314   3.561  18.358  0.00  0.00    +0.000 A 
ATOM      4  C   UNL     1       3.644   2.125  18.164  0.00  0.00    +0.000 C 
ATOM      5  N   UNL     1       4.043   4.640  17.876  0.00  0.00    +0.000 N 
ATOM      6  N   UNL     1       3.652   5.798  18.468  0.00  0.00    +0.000 NA
ENDROOT
BRANCH   5   7
ATOM      7  C   UNL     1       5.043   4.655  16.865  0.00  0.00    +0.000 A 
ATOM      8  C   UNL     1       4.692   4.588  15.507  0.00  0.00    +0.000 A 
ATOM      9  C   UNL     1       5.680   4.635  14.520  0.00  0.00    +0.000 A 
ATOM     10  C   UNL     1       7.015   4.745  14.888  0.00  0.00    +0.000 A 
ATOM     11  F   UNL     1       7.957   4.796  13.939  0.00  0.00    +0.000 F 
ATOM     12  C   UNL     1       7.382   4.825  16.223  0.00  0.00    +0.000 A 
ATOM     13  C   UNL     1       6.395   4.789  17.207  0.00  0.00    +0.000 A 
ATOM     14  F   UNL     1       6.800   4.824  18.485  0.00  0.00    +0.000 F 
ENDBRANCH   5   7
BRANCH   1  16
ATOM     15  N   UNL     1       1.817   7.837  19.897  0.00  0.00    +0.000 N 
ATOM     16  C   UNL     1       1.812   6.426  20.092  0.00  0.00    +0.000 C 
ATOM     17  O   UNL     1       1.127   5.900  20.974  0.00  0.00    +0.000 OA
BRANCH  15  18
ATOM     18  C   UNL     1       1.127   8.708  20.840  0.00  0.00    +0.000 A 
ATOM     19  C   UNL     1      -0.047   9.398  20.512  0.00  0.00    +0.000 A 
ATOM     20  C   UNL     1      -0.684  10.224  21.444  0.00  0.00    +0.000 A 
ATOM     21  C   UNL     1      -0.139  10.339  22.708  0.00  0.00    +0.000 A 
ATOM     22  N   UNL     1       0.974   9.688  23.090  0.00  0.00    +0.000 NA
ATOM     23  C   UNL     1       1.567   8.897  22.156  0.00  0.00    +0.000 A 
ENDBRANCH  15  18
BRANCH  15  25
ATOM     24  C   UNL     1       1.283   8.861  17.681  0.00  0.00    +0.000 C 
ATOM     25  C   UNL     1       2.363   8.479  18.688  0.00  0.00    +0.000 C 
ENDBRANCH  15  25
ENDBRANCH   1  16
TORSDOF 4
ENDMDL
MODEL 7
REMARK VINA RESULT:      -6.8      2.271      3.176
REMARK  Name = 
REMARK  6 active torsions:
REMARK  status: ('A' for Active; 'I' for Inactive)
REMARK    1  A    between atoms: C_1  and  C_2
REMARK    2  A    between atoms: C_2  and  N_3
REMARK    3  A    between atoms: N_3  and  C_20
REMARK    4  A    between atoms: C_4  and  C_6
REMARK    5  A    between atoms: C_8  and  C_9
REMARK    6  A    between atoms: N_10  and  C_11
REMARK                            x       y       z     vdW  Elec       q    Type
REMARK                         _______ _______ _______ _____ _____    ______ ____
ROOT
ATOM      1  C   UNL     1       2.125   7.041  20.162  0.00  0.00    +0.000 A 
ATOM      2  C   UNL     1       1.689   5.734  20.510  0.00  0.00    +0.000 A 
ATOM      3  C   UNL     1       2.589   4.856  19.951  0.00  0.00    +0.000 A 
ATOM      4  C   UNL     1       2.725   3.398  20.207  0.00  0.00    +0.000 C 
ATOM      5  N   UNL     1       3.446   5.635  19.186  0.00  0.00    +0.000 N 
ATOM      6  N   UNL     1       3.218   6.959  19.389  0.00  0.00    +0.000 NA
ENDROOT
BRANCH   5   7
ATOM      7  C   UNL     1       4.426   5.215  18.245  0.00  0.00    +0.000 A 
ATOM      8  C   UNL     1       4.053   4.801  16.955  0.00  0.00    +0.000 A 
ATOM      9  C   UNL     1       5.025   4.419  16.027  0.00  0.00    +0.000 A 
ATOM     10  C   UNL     1       6.366   4.449  16.387  0.00  0.00    +0.000 A 
ATOM     11  F   UNL     1       7.295   4.088  15.492  0.00  0.00    +0.000 F 
ATOM     12  C   UNL     1       6.758   4.866  17.650  0.00  0.00    +0.000 A 
ATOM     13  C   UNL     1       5.787   5.257  18.572  0.00  0.00    +0.000 A 
ATOM     14  F   UNL     1       6.209   5.610  19.795  0.00  0.00    +0.000 F 
ENDBRANCH   5   7
BRANCH   1  16
ATOM     15  N   UNL     1       1.170   9.388  19.866  0.00  0.00    +0.000 N 
ATOM     16  C   UNL     1       1.498   8.280  20.699  0.00  0.00    +0.000 C 
ATOM     17  O   UNL     1       1.229   8.277  21.903  0.00  0.00    +0.000 OA
BRANCH  15  18
ATOM     18  C   UNL     1       0.645  10.614  20.454  0.00  0.00    +0.000 A 
ATOM     19  C   UNL     1       1.318  11.840  20.372  0.00  0.00    +0.000 A 
ATOM     20  C   UNL     1       0.782  12.997  20.946  0.00  0.00    +0.000 A 
ATOM     21  C   UNL     1      -0.437  12.914  21.590  0.00  0.00    +0.000 A 
ATOM     22  N   UNL     1      -1.141  11.772  21.686  0.00  0.00    +0.000 NA
ATOM     23  C   UNL     1      -0.587  10.667  21.118  0.00  0.00    +0.000 A 
ENDBRANCH  15  18
BRANCH  15  25
ATOM     24  C   UNL     1      -0.168   9.632  17.771  0.00  0.00    +0.000 C 
ATOM     25  C   UNL     1       1.188   9.320  18.394  0.00  0.00    +0.000 C 
ENDBRANCH  15  25
ENDBRANCH   1  16
TORSDOF 4
ENDMDL
MODEL 8
REMARK VINA RESULT:      -6.8      3.428      8.450
REMARK  Name = 
REMARK  6 active torsions:
REMARK  status: ('A' for Active; 'I' for Inactive)
REMARK    1  A    between atoms: C_1  and  C_2
REMARK    2  A    between atoms: C_2  and  N_3
REMARK    3  A    between atoms: N_3  and  C_20
REMARK    4  A    between atoms: C_4  and  C_6
REMARK    5  A    between atoms: C_8  and  C_9
REMARK    6  A    between atoms: N_10  and  C_11
REMARK                            x       y       z     vdW  Elec       q    Type
REMARK                         _______ _______ _______ _____ _____    ______ ____
ROOT
ATOM      1  C   UNL     1       1.361   8.090  20.539  0.00  0.00    +0.000 A 
ATOM      2  C   UNL     1       0.956   8.440  21.855  0.00  0.00    +0.000 A 
ATOM      3  C   UNL     1       0.415   9.703  21.778  0.00  0.00    +0.000 A 
ATOM      4  C   UNL     1      -0.364  10.430  22.815  0.00  0.00    +0.000 C 
ATOM      5  N   UNL     1       0.627  10.122  20.471  0.00  0.00    +0.000 N 
ATOM      6  N   UNL     1       1.115   9.111  19.706  0.00  0.00    +0.000 NA
ENDROOT
BRANCH   5   7
ATOM      7  C   UNL     1       0.446  11.417  19.914  0.00  0.00    +0.000 A 
ATOM      8  C   UNL     1       1.375  12.442  20.161  0.00  0.00    +0.000 A 
ATOM      9  C   UNL     1       1.206  13.703  19.584  0.00  0.00    +0.000 A 
ATOM     10  C   UNL     1       0.110  13.941  18.764  0.00  0.00    +0.000 A 
ATOM     11  F   UNL     1      -0.045  15.150  18.209  0.00  0.00    +0.000 F 
ATOM     12  C   UNL     1      -0.813  12.941  18.498  0.00  0.00    +0.000 A 
ATOM     13  C   UNL     1      -0.637  11.680  19.065  0.00  0.00    +0.000 A 
ATOM     14  F   UNL     1      -1.578  10.758  18.816  0.00  0.00    +0.000 F 
ENDBRANCH   5   7
BRANCH   1  16
ATOM     15  N   UNL     1       2.508   6.475  18.930  0.00  0.00    +0.000 N 
ATOM     16  C   UNL     1       1.865   6.737  20.174  0.00  0.00    +0.000 C 
ATOM     17  O   UNL     1       1.741   5.859  21.032  0.00  0.00    +0.000 OA
BRANCH  15  18
ATOM     18  C   UNL     1       2.898   5.115  18.581  0.00  0.00    +0.000 A 
ATOM     19  C   UNL     1       2.166   4.326  17.686  0.00  0.00    +0.000 A 
ATOM     20  C   UNL     1       2.572   3.025  17.371  0.00  0.00    +0.000 A 
ATOM     21  C   UNL     1       3.723   2.531  17.954  0.00  0.00    +0.000 A 
ATOM     22  N   UNL     1       4.479   3.246  18.806  0.00  0.00    +0.000 NA
ATOM     23  C   UNL     1       4.052   4.505  19.089  0.00  0.00    +0.000 A 
ENDBRANCH  15  18
BRANCH  15  25
ATOM     24  C   UNL     1       4.234   7.189  17.272  0.00  0.00    +0.000 C 
ATOM     25  C   UNL     1       2.950   7.541  18.014  0.00  0.00    +0.000 C 
ENDBRANCH  15  25
ENDBRANCH   1  16
TORSDOF 4
ENDMDL
MODEL 9
REMARK VINA RESULT:      -6.8      2.359      3.331
REMARK  Name = 
REMARK  6 active torsions:
REMARK  status: ('A' for Active; 'I' for Inactive)
REMARK    1  A    between atoms: C_1  and  C_2
REMARK    2  A    between atoms: C_2  and  N_3
REMARK    3  A    between atoms: N_3  and  C_20
REMARK    4  A    between atoms: C_4  and  C_6
REMARK    5  A    between atoms: C_8  and  C_9
REMARK    6  A    between atoms: N_10  and  C_11
REMARK                            x       y       z     vdW  Elec       q    Type
REMARK                         _______ _______ _______ _____ _____    ______ ____
ROOT
ATOM      1  C   UNL     1       1.677   7.583  20.517  0.00  0.00    +0.000 A 
ATOM      2  C   UNL     1       1.092   6.383  21.004  0.00  0.00    +0.000 A 
ATOM      3  C   UNL     1       1.818   5.344  20.468  0.00  0.00    +0.000 A 
ATOM      4  C   UNL     1       1.771   3.906  20.840  0.00  0.00    +0.000 C 
ATOM      5  N   UNL     1       2.716   5.931  19.586  0.00  0.00    +0.000 N 
ATOM      6  N   UNL     1       2.688   7.285  19.688  0.00  0.00    +0.000 NA
ENDROOT
BRANCH   5   7
ATOM      7  C   UNL     1       3.556   5.304  18.625  0.00  0.00    +0.000 A 
ATOM      8  C   UNL     1       4.954   5.394  18.726  0.00  0.00    +0.000 A 
ATOM      9  C   UNL     1       5.772   4.749  17.795  0.00  0.00    +0.000 A 
ATOM     10  C   UNL     1       5.195   4.017  16.764  0.00  0.00    +0.000 A 
ATOM     11  F   UNL     1       5.983   3.396  15.878  0.00  0.00    +0.000 F 
ATOM     12  C   UNL     1       3.817   3.905  16.653  0.00  0.00    +0.000 A 
ATOM     13  C   UNL     1       3.002   4.541  17.589  0.00  0.00    +0.000 A 
ATOM     14  F   UNL     1       1.676   4.441  17.416  0.00  0.00    +0.000 F 
ENDBRANCH   5   7
BRANCH   1  16
ATOM     15  N   UNL     1       0.949   9.988  20.076  0.00  0.00    +0.000 N 
ATOM     16  C   UNL     1       1.268   8.936  20.982  0.00  0.00    +0.000 C 
ATOM     17  O   UNL     1       1.171   9.087  22.204  0.00  0.00    +0.000 OA
BRANCH  15  18
ATOM     18  C   UNL     1       0.646  11.321  20.580  0.00  0.00    +0.000 A 
ATOM     19  C   UNL     1       1.407  12.447  20.243  0.00  0.00    +0.000 A 
ATOM     20  C   UNL     1       1.085  13.713  20.744  0.00  0.00    +0.000 A 
ATOM     21  C   UNL     1      -0.011  13.837  21.574  0.00  0.00    +0.000 A 
ATOM     22  N   UNL     1      -0.792  12.798  21.920  0.00  0.00    +0.000 NA
ATOM     23  C   UNL     1      -0.447  11.583  21.415  0.00  0.00    +0.000 A 
ENDBRANCH  15  18
BRANCH  15  25
ATOM     24  C   UNL     1      -0.680  10.030  18.183  0.00  0.00    +0.000 C 
ATOM     25  C   UNL     1       0.754   9.772  18.632  0.00  0.00    +0.000 C 
ENDBRANCH  15  25
ENDBRANCH   1  16
TORSDOF 4
ENDMDL
