MODEL 1
REMARK VINA RESULT:      -7.8      0.000      0.000
REMARK  Name = 
REMARK  6 active torsions:
REMARK  status: ('A' for Active; 'I' for Inactive)
REMARK    1  A    between atoms: C_1  and  O_2
REMARK    2  A    between atoms: O_2  and  C_3
REMARK    3  A    between atoms: C_8  and  C_9
REMARK    4  A    between atoms: C_9  and  C_10
REMARK    5  A    between atoms: N_11  and  N_12
REMARK    6  A    between atoms: C_16  and  C_17
REMARK                            x       y       z     vdW  Elec       q    Type
REMARK                         _______ _______ _______ _____ _____    ______ ____
ROOT
ATOM      1  N   UNL     1       2.639   6.605  19.530  0.00  0.00    +0.000 N 
ATOM      2  C   UNL     1       1.959   7.777  19.660  0.00  0.00    +0.000 A 
ATOM      3  N   UNL     1       1.387   8.101  20.798  0.00  0.00    +0.000 NA
ATOM      4  C   UNL     1       0.739   9.321  20.695  0.00  0.00    +0.000 A 
ATOM      5  C   UNL     1       0.055   9.980  21.749  0.00  0.00    +0.000 A 
ATOM      6  C   UNL     1       0.044   9.452  23.155  0.00  0.00    +0.000 C 
ATOM      7  C   UNL     1      -0.600  11.192  21.467  0.00  0.00    +0.000 A 
ATOM      8  C   UNL     1      -0.579  11.745  20.189  0.00  0.00    +0.000 A 
ATOM      9  C   UNL     1       0.118  11.119  19.153  0.00  0.00    +0.000 A 
ATOM     10  C   UNL     1       0.775   9.906  19.427  0.00  0.00    +0.000 A 
ATOM     11  S   UNL     1       1.726   8.914  18.388  0.00  0.00    +0.000 S 
ATOM     12  H   UNL     1       2.632   6.087  20.406  0.00  0.00    +0.000 HD
ENDROOT
BRANCH   1  15
ATOM     13  C   UNL     1       3.789   5.337  18.016  0.00  0.00    +0.000 C 
ATOM     14  C   UNL     1       2.649   4.337  17.944  0.00  0.00    +0.000 C 
ATOM     15  N   UNL     1       3.732   6.433  18.726  0.00  0.00    +0.000 NA
BRANCH  13  21
ATOM     16  C   UNL     1       6.285   4.802  17.722  0.00  0.00    +0.000 A 
ATOM     17  C   UNL     1       7.347   4.517  16.849  0.00  0.00    +0.000 A 
ATOM     18  C   UNL     1       7.183   4.618  15.465  0.00  0.00    +0.000 A 
ATOM     19  C   UNL     1       5.947   4.977  14.939  0.00  0.00    +0.000 A 
ATOM     20  C   UNL     1       4.866   5.193  15.793  0.00  0.00    +0.000 A 
ATOM     21  C   UNL     1       5.016   5.088  17.186  0.00  0.00    +0.000 A 
BRANCH  16  23
ATOM     22  C   UNL     1       7.547   5.623  19.554  0.00  0.00    +0.000 C 
ATOM     23  O   UNL     1       6.451   4.836  19.084  0.00  0.00    +0.000 OA
ENDBRANCH  16  23
ENDBRANCH  13  21
ENDBRANCH   1  15
TORSDOF 3
ENDMDL
MODEL 2
REMARK VINA RESULT:      -7.7      3.314      7.761
REMARK  Name = 
REMARK  6 active torsions:
REMARK  status: ('A' for Active; 'I' for Inactive)
REMARK    1  A    between atoms: C_1  and  O_2
REMARK    2  A    between atoms: O_2  and  C_3
REMARK    3  A    between atoms: C_8  and  C_9
REMARK    4  A    between atoms: C_9  and  C_10
REMARK    5  A    between atoms: N_11  and  N_12
REMARK    6  A    between atoms: C_16  and  C_17
REMARK                            x       y       z     vdW  Elec       q    Type
REMARK                         _______ _______ _______ _____ _____    ______ ____
ROOT
ATOM      1  N   UNL     1       2.050   7.697  20.556  0.00  0.00    +0.000 N 
ATOM      2  C   UNL     1       2.139   6.492  19.929  0.00  0.00    +0.000 A 
ATOM      3  N   UNL     1       1.924   5.375  20.587  0.00  0.00    +0.000 NA
ATOM      4  C   UNL     1       2.086   4.277  19.758  0.00  0.00    +0.000 A 
ATOM      5  C   UNL     1       1.891   2.924  20.138  0.00  0.00    +0.000 A 
ATOM      6  C   UNL     1       1.379   2.536  21.497  0.00  0.00    +0.000 C 
ATOM      7  C   UNL     1       2.151   1.917  19.191  0.00  0.00    +0.000 A 
ATOM      8  C   UNL     1       2.583   2.230  17.906  0.00  0.00    +0.000 A 
ATOM      9  C   UNL     1       2.748   3.560  17.511  0.00  0.00    +0.000 A 
ATOM     10  C   UNL     1       2.492   4.571  18.454  0.00  0.00    +0.000 A 
ATOM     11  S   UNL     1       2.576   6.283  18.277  0.00  0.00    +0.000 S 
ATOM     12  H   UNL     1       1.794   7.576  21.533  0.00  0.00    +0.000 HD
ENDROOT
BRANCH   1  15
ATOM     13  C   UNL     1       0.547   9.414  20.420  0.00  0.00    +0.000 C 
ATOM     14  C   UNL     1      -0.169   8.926  21.666  0.00  0.00    +0.000 C 
ATOM     15  N   UNL     1       1.631   8.851  19.952  0.00  0.00    +0.000 NA
BRANCH  13  21
ATOM     16  C   UNL     1       0.503  11.941  19.950  0.00  0.00    +0.000 A 
ATOM     17  C   UNL     1      -0.016  13.001  19.190  0.00  0.00    +0.000 A 
ATOM     18  C   UNL     1      -1.067  12.793  18.294  0.00  0.00    +0.000 A 
ATOM     19  C   UNL     1      -1.594  11.517  18.129  0.00  0.00    +0.000 A 
ATOM     20  C   UNL     1      -1.040  10.443  18.826  0.00  0.00    +0.000 A 
ATOM     21  C   UNL     1       0.022  10.638  19.724  0.00  0.00    +0.000 A 
BRANCH  16  23
ATOM     22  C   UNL     1       2.249  13.310  20.785  0.00  0.00    +0.000 C 
ATOM     23  O   UNL     1       1.445  12.137  20.927  0.00  0.00    +0.000 OA
ENDBRANCH  16  23
ENDBRANCH  13  21
ENDBRANCH   1  15
TORSDOF 3
ENDMDL
MODEL 3
REMARK VINA RESULT:      -7.7      3.459      7.987
REMARK  Name = 
REMARK  6 active torsions:
REMARK  status: ('A' for Active; 'I' for Inactive)
REMARK    1  A    between atoms: C_1  and  O_2
REMARK    2  A    between atoms: O_2  and  C_3
REMARK    3  A    between atoms: C_8  and  C_9
REMARK    4  A    between atoms: C_9  and  C_10
REMARK    5  A    between atoms: N_11  and  N_12
REMARK    6  A    between atoms: C_16  and  C_17
REMARK                            x       y       z     vdW  Elec       q    Type
REMARK                         _______ _______ _______ _____ _____    ______ ____
ROOT
ATOM      1  N   UNL     1       1.971   7.696  20.769  0.00  0.00    +0.000 N 
ATOM      2  C   UNL     1       2.057   6.519  20.090  0.00  0.00    +0.000 A 
ATOM      3  N   UNL     1       1.919   5.371  20.715  0.00  0.00    +0.000 NA
ATOM      4  C   UNL     1       2.062   4.311  19.834  0.00  0.00    +0.000 A 
ATOM      5  C   UNL     1       1.933   2.939  20.172  0.00  0.00    +0.000 A 
ATOM      6  C   UNL     1       1.521   2.483  21.543  0.00  0.00    +0.000 C 
ATOM      7  C   UNL     1       2.162   1.978  19.170  0.00  0.00    +0.000 A 
ATOM      8  C   UNL     1       2.501   2.353  17.874  0.00  0.00    +0.000 A 
ATOM      9  C   UNL     1       2.599   3.702  17.524  0.00  0.00    +0.000 A 
ATOM     10  C   UNL     1       2.373   4.668  18.520  0.00  0.00    +0.000 A 
ATOM     11  S   UNL     1       2.393   6.388  18.407  0.00  0.00    +0.000 S 
ATOM     12  H   UNL     1       1.783   7.529  21.755  0.00  0.00    +0.000 HD
ENDROOT
BRANCH   1  15
ATOM     13  C   UNL     1       0.305   9.257  20.656  0.00  0.00    +0.000 C 
ATOM     14  C   UNL     1      -0.453   8.572  21.779  0.00  0.00    +0.000 C 
ATOM     15  N   UNL     1       1.479   8.857  20.240  0.00  0.00    +0.000 NA
BRANCH  13  21
ATOM     16  C   UNL     1      -0.390  11.731  20.679  0.00  0.00    +0.000 A 
ATOM     17  C   UNL     1      -0.905  12.830  19.972  0.00  0.00    +0.000 A 
ATOM     18  C   UNL     1      -1.411  12.676  18.679  0.00  0.00    +0.000 A 
ATOM     19  C   UNL     1      -1.383  11.427  18.069  0.00  0.00    +0.000 A 
ATOM     20  C   UNL     1      -0.811  10.342  18.734  0.00  0.00    +0.000 A 
ATOM     21  C   UNL     1      -0.292  10.486  20.031  0.00  0.00    +0.000 A 
BRANCH  16  23
ATOM     22  C   UNL     1      -1.047  12.129  22.922  0.00  0.00    +0.000 C 
ATOM     23  O   UNL     1      -0.005  11.825  21.993  0.00  0.00    +0.000 OA
ENDBRANCH  16  23
ENDBRANCH  13  21
ENDBRANCH   1  15
TORSDOF 3
ENDMDL
MODEL 4
REMARK VINA RESULT:      -7.6      3.343      7.912
REMARK  Name = 
REMARK  6 active torsions:
REMARK  status: ('A' for Active; 'I' for Inactive)
REMARK    1  A    between atoms: C_1  and  O_2
REMARK    2  A    between atoms: O_2  and  C_3
REMARK    3  A    between atoms: C_8  and  C_9
REMARK    4  A    between atoms: C_9  and  C_10
REMARK    5  A    between atoms: N_11  and  N_12
REMARK    6  A    between atoms: C_16  and  C_17
REMARK                            x       y       z     vdW  Elec       q    Type
REMARK                         _______ _______ _______ _____ _____    ______ ____
ROOT
ATOM      1  N   UNL     1       2.050   7.825  20.450  0.00  0.00    +0.000 N 
ATOM      2  C   UNL     1       2.133   6.617  19.829  0.00  0.00    +0.000 A 
ATOM      3  N   UNL     1       1.868   5.506  20.480  0.00  0.00    +0.000 NA
ATOM      4  C   UNL     1       2.034   4.402  19.659  0.00  0.00    +0.000 A 
ATOM      5  C   UNL     1       1.793   3.055  20.035  0.00  0.00    +0.000 A 
ATOM      6  C   UNL     1       1.223   2.684  21.374  0.00  0.00    +0.000 C 
ATOM      7  C   UNL     1       2.063   2.041  19.099  0.00  0.00    +0.000 A 
ATOM      8  C   UNL     1       2.549   2.340  17.830  0.00  0.00    +0.000 A 
ATOM      9  C   UNL     1       2.759   3.665  17.440  0.00  0.00    +0.000 A 
ATOM     10  C   UNL     1       2.493   4.684  18.371  0.00  0.00    +0.000 A 
ATOM     11  S   UNL     1       2.625   6.393  18.195  0.00  0.00    +0.000 S 
ATOM     12  H   UNL     1       1.757   7.713  21.417  0.00  0.00    +0.000 HD
ENDROOT
BRANCH   1  15
ATOM     13  C   UNL     1       0.615   9.596  20.281  0.00  0.00    +0.000 C 
ATOM     14  C   UNL     1      -0.130   9.149  21.526  0.00  0.00    +0.000 C 
ATOM     15  N   UNL     1       1.681   8.987  19.830  0.00  0.00    +0.000 NA
BRANCH  13  21
ATOM     16  C   UNL     1      -0.990  10.876  18.734  0.00  0.00    +0.000 A 
ATOM     17  C   UNL     1      -1.376  12.103  18.172  0.00  0.00    +0.000 A 
ATOM     18  C   UNL     1      -0.594  13.247  18.345  0.00  0.00    +0.000 A 
ATOM     19  C   UNL     1       0.569  13.183  19.104  0.00  0.00    +0.000 A 
ATOM     20  C   UNL     1       0.926  11.987  19.726  0.00  0.00    +0.000 A 
ATOM     21  C   UNL     1       0.144  10.831  19.566  0.00  0.00    +0.000 A 
BRANCH  16  23
ATOM     22  C   UNL     1      -2.810   9.834  17.629  0.00  0.00    +0.000 C 
ATOM     23  O   UNL     1      -1.667   9.711  18.476  0.00  0.00    +0.000 OA
ENDBRANCH  16  23
ENDBRANCH  13  21
ENDBRANCH   1  15
TORSDOF 3
ENDMDL
MODEL 5
REMARK VINA RESULT:      -7.5      2.019      3.141
REMARK  Name = 
REMARK  6 active torsions:
REMARK  status: ('A' for Active; 'I' for Inactive)
REMARK    1  A    between atoms: C_1  and  O_2
REMARK    2  A    between atoms: O_2  and  C_3
REMARK    3  A    between atoms: C_8  and  C_9
REMARK    4  A    between atoms: C_9  and  C_10
REMARK    5  A    between atoms: N_11  and  N_12
REMARK    6  A    between atoms: C_16  and  C_17
REMARK                            x       y       z     vdW  Elec       q    Type
REMARK                         _______ _______ _______ _____ _____    ______ ____
ROOT
ATOM      1  N   UNL     1       1.876   8.518  19.346  0.00  0.00    +0.000 N 
ATOM      2  C   UNL     1       1.025   9.182  20.176  0.00  0.00    +0.000 A 
ATOM      3  N   UNL     1       0.339  10.218  19.748  0.00  0.00    +0.000 NA
ATOM      4  C   UNL     1      -0.444  10.745  20.762  0.00  0.00    +0.000 A 
ATOM      5  C   UNL     1      -1.334  11.841  20.629  0.00  0.00    +0.000 A 
ATOM      6  C   UNL     1      -1.600  12.505  19.307  0.00  0.00    +0.000 C 
ATOM      7  C   UNL     1      -2.018  12.292  21.772  0.00  0.00    +0.000 A 
ATOM      8  C   UNL     1      -1.839  11.679  23.009  0.00  0.00    +0.000 A 
ATOM      9  C   UNL     1      -0.989  10.579  23.144  0.00  0.00    +0.000 A 
ATOM     10  C   UNL     1      -0.300  10.124  22.005  0.00  0.00    +0.000 A 
ATOM     11  S   UNL     1       0.786   8.797  21.837  0.00  0.00    +0.000 S 
ATOM     12  H   UNL     1       1.866   8.931  18.417  0.00  0.00    +0.000 HD
ENDROOT
BRANCH   1  15
ATOM     13  C   UNL     1       2.870   6.655  18.472  0.00  0.00    +0.000 C 
ATOM     14  C   UNL     1       3.555   7.486  17.402  0.00  0.00    +0.000 C 
ATOM     15  N   UNL     1       2.131   7.177  19.417  0.00  0.00    +0.000 NA
BRANCH  13  21
ATOM     16  C   UNL     1       4.180   4.544  19.131  0.00  0.00    +0.000 A 
ATOM     17  C   UNL     1       4.254   3.142  19.134  0.00  0.00    +0.000 A 
ATOM     18  C   UNL     1       3.331   2.374  18.419  0.00  0.00    +0.000 A 
ATOM     19  C   UNL     1       2.308   2.999  17.716  0.00  0.00    +0.000 A 
ATOM     20  C   UNL     1       2.181   4.388  17.763  0.00  0.00    +0.000 A 
ATOM     21  C   UNL     1       3.099   5.170  18.484  0.00  0.00    +0.000 A 
BRANCH  16  23
ATOM     22  C   UNL     1       6.402   5.364  19.041  0.00  0.00    +0.000 C 
ATOM     23  O   UNL     1       5.143   5.326  19.715  0.00  0.00    +0.000 OA
ENDBRANCH  16  23
ENDBRANCH  13  21
ENDBRANCH   1  15
TORSDOF 3
ENDMDL
MODEL 6
REMARK VINA RESULT:      -7.3      0.910      1.071
REMARK  Name = 
REMARK  6 active torsions:
REMARK  status: ('A' for Active; 'I' for Inactive)
REMARK    1  A    between atoms: C_1  and  O_2
REMARK    2  A    between atoms: O_2  and  C_3
REMARK    3  A    between atoms: C_8  and  C_9
REMARK    4  A    between atoms: C_9  and  C_10
REMARK    5  A    between atoms: N_11  and  N_12
REMARK    6  A    between atoms: C_16  and  C_17
REMARK                            x       y       z     vdW  Elec       q    Type
REMARK                         _______ _______ _______ _____ _____    ______ ____
ROOT
ATOM      1  N   UNL     1       2.329   6.795  20.022  0.00  0.00    +0.000 N 
ATOM      2  C   UNL     1       1.657   7.978  20.032  0.00  0.00    +0.000 A 
ATOM      3  N   UNL     1       1.019   8.380  21.109  0.00  0.00    +0.000 NA
ATOM      4  C   UNL     1       0.394   9.596  20.887  0.00  0.00    +0.000 A 
ATOM      5  C   UNL     1      -0.346  10.329  21.851  0.00  0.00    +0.000 A 
ATOM      6  C   UNL     1      -0.450   9.893  23.285  0.00  0.00    +0.000 C 
ATOM      7  C   UNL     1      -0.967  11.525  21.451  0.00  0.00    +0.000 A 
ATOM      8  C   UNL     1      -0.859  11.993  20.144  0.00  0.00    +0.000 A 
ATOM      9  C   UNL     1      -0.107  11.295  19.196  0.00  0.00    +0.000 A 
ATOM     10  C   UNL     1       0.516  10.097  19.589  0.00  0.00    +0.000 A 
ATOM     11  S   UNL     1       1.518   9.031  18.678  0.00  0.00    +0.000 S 
ATOM     12  H   UNL     1       2.261   6.335  20.927  0.00  0.00    +0.000 HD
ENDROOT
BRANCH   1  15
ATOM     13  C   UNL     1       3.396   5.687  18.331  0.00  0.00    +0.000 C 
ATOM     14  C   UNL     1       2.095   5.039  17.894  0.00  0.00    +0.000 C 
ATOM     15  N   UNL     1       3.468   6.561  19.301  0.00  0.00    +0.000 NA
BRANCH  13  21
ATOM     16  C   UNL     1       5.664   4.507  18.065  0.00  0.00    +0.000 A 
ATOM     17  C   UNL     1       6.764   4.213  17.242  0.00  0.00    +0.000 A 
ATOM     18  C   UNL     1       6.913   4.831  15.999  0.00  0.00    +0.000 A 
ATOM     19  C   UNL     1       5.951   5.729  15.551  0.00  0.00    +0.000 A 
ATOM     20  C   UNL     1       4.818   5.976  16.328  0.00  0.00    +0.000 A 
ATOM     21  C   UNL     1       4.653   5.355  17.577  0.00  0.00    +0.000 A 
BRANCH  16  23
ATOM     22  C   UNL     1       4.679   2.899  19.502  0.00  0.00    +0.000 C 
ATOM     23  O   UNL     1       5.556   4.015  19.341  0.00  0.00    +0.000 OA
ENDBRANCH  16  23
ENDBRANCH  13  21
ENDBRANCH   1  15
TORSDOF 3
ENDMDL
MODEL 7
REMARK VINA RESULT:      -7.0      2.205      4.092
REMARK  Name = 
REMARK  6 active torsions:
REMARK  status: ('A' for Active; 'I' for Inactive)
REMARK    1  A    between atoms: C_1  and  O_2
REMARK    2  A    between atoms: O_2  and  C_3
REMARK    3  A    between atoms: C_8  and  C_9
REMARK    4  A    between atoms: C_9  and  C_10
REMARK    5  A    between atoms: N_11  and  N_12
REMARK    6  A    between atoms: C_16  and  C_17
REMARK                            x       y       z     vdW  Elec       q    Type
REMARK                         _______ _______ _______ _____ _____    ______ ____
ROOT
ATOM      1  N   UNL     1       1.637   8.622  20.240  0.00  0.00    +0.000 N 
ATOM      2  C   UNL     1       0.720   9.445  20.820  0.00  0.00    +0.000 A 
ATOM      3  N   UNL     1       0.154  10.412  20.132  0.00  0.00    +0.000 NA
ATOM      4  C   UNL     1      -0.726  11.130  20.924  0.00  0.00    +0.000 A 
ATOM      5  C   UNL     1      -1.531  12.213  20.486  0.00  0.00    +0.000 A 
ATOM      6  C   UNL     1      -1.584  12.645  19.047  0.00  0.00    +0.000 C 
ATOM      7  C   UNL     1      -2.335  12.876  21.430  0.00  0.00    +0.000 A 
ATOM      8  C   UNL     1      -2.355  12.482  22.765  0.00  0.00    +0.000 A 
ATOM      9  C   UNL     1      -1.590  11.397  23.200  0.00  0.00    +0.000 A 
ATOM     10  C   UNL     1      -0.782  10.731  22.262  0.00  0.00    +0.000 A 
ATOM     11  S   UNL     1       0.244   9.363  22.472  0.00  0.00    +0.000 S 
ATOM     12  H   UNL     1       1.773   8.868  19.262  0.00  0.00    +0.000 HD
ENDROOT
BRANCH   1  15
ATOM     13  C   UNL     1       2.164   6.488  19.613  0.00  0.00    +0.000 C 
ATOM     14  C   UNL     1       2.521   6.956  18.214  0.00  0.00    +0.000 C 
ATOM     15  N   UNL     1       1.808   7.306  20.570  0.00  0.00    +0.000 NA
BRANCH  13  21
ATOM     16  C   UNL     1       3.486   4.302  19.886  0.00  0.00    +0.000 A 
ATOM     17  C   UNL     1       3.489   2.952  20.274  0.00  0.00    +0.000 A 
ATOM     18  C   UNL     1       2.298   2.300  20.602  0.00  0.00    +0.000 A 
ATOM     19  C   UNL     1       1.096   2.997  20.574  0.00  0.00    +0.000 A 
ATOM     20  C   UNL     1       1.089   4.356  20.259  0.00  0.00    +0.000 A 
ATOM     21  C   UNL     1       2.281   5.025  19.933  0.00  0.00    +0.000 A 
BRANCH  16  23
ATOM     22  C   UNL     1       5.271   4.314  18.325  0.00  0.00    +0.000 C 
ATOM     23  O   UNL     1       4.619   4.932  19.435  0.00  0.00    +0.000 OA
ENDBRANCH  16  23
ENDBRANCH  13  21
ENDBRANCH   1  15
TORSDOF 3
ENDMDL
MODEL 8
REMARK VINA RESULT:      -7.0      3.360      8.429
REMARK  Name = 
REMARK  6 active torsions:
REMARK  status: ('A' for Active; 'I' for Inactive)
REMARK    1  A    between atoms: C_1  and  O_2
REMARK    2  A    between atoms: O_2  and  C_3
REMARK    3  A    between atoms: C_8  and  C_9
REMARK    4  A    between atoms: C_9  and  C_10
REMARK    5  A    between atoms: N_11  and  N_12
REMARK    6  A    between atoms: C_16  and  C_17
REMARK                            x       y       z     vdW  Elec       q    Type
REMARK                         _______ _______ _______ _____ _____    ______ ____
ROOT
ATOM      1  N   UNL     1       4.925   3.507  16.992  0.00  0.00    +0.000 N 
ATOM      2  C   UNL     1       5.594   3.948  15.892  0.00  0.00    +0.000 A 
ATOM      3  N   UNL     1       5.518   3.298  14.752  0.00  0.00    +0.000 NA
ATOM      4  C   UNL     1       6.290   3.914  13.780  0.00  0.00    +0.000 A 
ATOM      5  C   UNL     1       6.400   3.494  12.430  0.00  0.00    +0.000 A 
ATOM      6  C   UNL     1       5.590   2.358  11.872  0.00  0.00    +0.000 C 
ATOM      7  C   UNL     1       7.272   4.196  11.579  0.00  0.00    +0.000 A 
ATOM      8  C   UNL     1       8.008   5.284  12.038  0.00  0.00    +0.000 A 
ATOM      9  C   UNL     1       7.883   5.725  13.358  0.00  0.00    +0.000 A 
ATOM     10  C   UNL     1       7.015   5.026  14.215  0.00  0.00    +0.000 A 
ATOM     11  S   UNL     1       6.625   5.327  15.866  0.00  0.00    +0.000 S 
ATOM     12  H   UNL     1       4.393   2.667  16.776  0.00  0.00    +0.000 HD
ENDROOT
BRANCH   1  15
ATOM     13  C   UNL     1       3.111   4.463  18.002  0.00  0.00    +0.000 C 
ATOM     14  C   UNL     1       2.164   3.662  17.126  0.00  0.00    +0.000 C 
ATOM     15  N   UNL     1       4.411   4.324  17.960  0.00  0.00    +0.000 NA
BRANCH  13  21
ATOM     16  C   UNL     1       1.872   5.017  20.185  0.00  0.00    +0.000 A 
ATOM     17  C   UNL     1       1.428   5.999  21.085  0.00  0.00    +0.000 A 
ATOM     18  C   UNL     1       1.535   7.356  20.775  0.00  0.00    +0.000 A 
ATOM     19  C   UNL     1       2.114   7.748  19.573  0.00  0.00    +0.000 A 
ATOM     20  C   UNL     1       2.624   6.785  18.702  0.00  0.00    +0.000 A 
ATOM     21  C   UNL     1       2.528   5.417  19.006  0.00  0.00    +0.000 A 
BRANCH  16  23
ATOM     22  C   UNL     1       2.193   3.162  21.627  0.00  0.00    +0.000 C 
ATOM     23  O   UNL     1       1.664   3.679  20.404  0.00  0.00    +0.000 OA
ENDBRANCH  16  23
ENDBRANCH  13  21
ENDBRANCH   1  15
TORSDOF 3
ENDMDL
MODEL 9
REMARK VINA RESULT:      -6.9      3.176      7.890
REMARK  Name = 
REMARK  6 active torsions:
REMARK  status: ('A' for Active; 'I' for Inactive)
REMARK    1  A    between atoms: C_1  and  O_2
REMARK    2  A    between atoms: O_2  and  C_3
REMARK    3  A    between atoms: C_8  and  C_9
REMARK    4  A    between atoms: C_9  and  C_10
REMARK    5  A    between atoms: N_11  and  N_12
REMARK    6  A    between atoms: C_16  and  C_17
REMARK                            x       y       z     vdW  Elec       q    Type
REMARK                         _______ _______ _______ _____ _____    ______ ____
ROOT
ATOM      1  N   UNL     1       1.889   7.736  20.647  0.00  0.00    +0.000 N 
ATOM      2  C   UNL     1       2.007   6.550  19.989  0.00  0.00    +0.000 A 
ATOM      3  N   UNL     1       1.911   5.410  20.636  0.00  0.00    +0.000 NA
ATOM      4  C   UNL     1       2.081   4.339  19.774  0.00  0.00    +0.000 A 
ATOM      5  C   UNL     1       1.999   2.970  20.138  0.00  0.00    +0.000 A 
ATOM      6  C   UNL     1       1.613   2.527  21.521  0.00  0.00    +0.000 C 
ATOM      7  C   UNL     1       2.251   1.999  19.153  0.00  0.00    +0.000 A 
ATOM      8  C   UNL     1       2.567   2.360  17.847  0.00  0.00    +0.000 A 
ATOM      9  C   UNL     1       2.620   3.705  17.471  0.00  0.00    +0.000 A 
ATOM     10  C   UNL     1       2.370   4.682  18.452  0.00  0.00    +0.000 A 
ATOM     11  S   UNL     1       2.334   6.398  18.306  0.00  0.00    +0.000 S 
ATOM     12  H   UNL     1       1.714   7.582  21.637  0.00  0.00    +0.000 HD
ENDROOT
BRANCH   1  15
ATOM     13  C   UNL     1       0.747   9.699  20.910  0.00  0.00    +0.000 C 
ATOM     14  C   UNL     1       0.733   9.523  22.418  0.00  0.00    +0.000 C 
ATOM     15  N   UNL     1       1.355   8.871  20.101  0.00  0.00    +0.000 NA
BRANCH  13  21
ATOM     16  C   UNL     1       0.567  11.608  19.199  0.00  0.00    +0.000 A 
ATOM     17  C   UNL     1      -0.174  12.689  18.695  0.00  0.00    +0.000 A 
ATOM     18  C   UNL     1      -1.320  13.140  19.353  0.00  0.00    +0.000 A 
ATOM     19  C   UNL     1      -1.753  12.499  20.508  0.00  0.00    +0.000 A 
ATOM     20  C   UNL     1      -1.065  11.380  20.980  0.00  0.00    +0.000 A 
ATOM     21  C   UNL     1       0.084  10.912  20.322  0.00  0.00    +0.000 A 
BRANCH  16  23
ATOM     22  C   UNL     1       2.569  12.281  18.122  0.00  0.00    +0.000 C 
ATOM     23  O   UNL     1       1.764  11.225  18.648  0.00  0.00    +0.000 OA
ENDBRANCH  16  23
ENDBRANCH  13  21
ENDBRANCH   1  15
TORSDOF 3
ENDMDL
