MODEL 1
REMARK VINA RESULT:      -8.5      0.000      0.000
REMARK  Name = 
REMARK  8 active torsions:
REMARK  status: ('A' for Active; 'I' for Inactive)
REMARK    1  A    between atoms: C_1  and  C_2
REMARK    2  A    between atoms: C_2  and  C_3
REMARK    3  A    between atoms: C_2  and  C_4
REMARK    4  A    between atoms: C_5  and  C_6
REMARK    5  A    between atoms: CA_17  and  C_18
REMARK    6  A    between atoms: C_18  and  OXT_20
REMARK    7  A    between atoms: C_21  and  C_22
REMARK    8  A    between atoms: C_28  and  C_29
REMARK                            x       y       z     vdW  Elec       q    Type
REMARK                         _______ _______ _______ _____ _____    ______ ____
ROOT
ATOM      1  C   UNL     1      -1.315  11.912  20.540  0.00  0.00    +0.000 A 
ATOM      2  C   UNL     1      -2.204  12.127  21.640  0.00  0.00    +0.000 A 
ATOM      3  N   UNL     1      -1.436  11.629  22.677  0.00  0.00    +0.000 N 
ATOM      4  CA  UNL     1      -0.449  10.745  22.256  0.00  0.00    +0.000 A 
ATOM      5  C   UNL     1      -0.051  11.148  20.950  0.00  0.00    +0.000 A 
ATOM      6  H   UNL     1      -1.793  11.510  23.616  0.00  0.00    +0.000 HD
ENDROOT
BRANCH   2   7
ATOM      7  C   UNL     1      -3.662  12.556  21.934  0.00  0.00    +0.000 A 
ATOM      8  C   UNL     1      -3.912  13.140  23.225  0.00  0.00    +0.000 A 
ATOM      9  C   UNL     1      -5.174  13.565  23.628  0.00  0.00    +0.000 A 
ATOM     10  F   UNL     1      -5.288  14.825  24.080  0.00  0.00    +0.000 F 
ATOM     11  C   UNL     1      -6.281  12.985  23.069  0.00  0.00    +0.000 A 
ATOM     12  C   UNL     1      -6.058  13.067  21.702  0.00  0.00    +0.000 A 
ATOM     13  N   UNL     1      -6.946  13.538  20.762  0.00  0.00    +0.000 N 
ATOM     14  C   UNL     1      -6.534  13.068  19.543  0.00  0.00    +0.000 A 
ATOM     15  C   UNL     1      -5.256  12.531  19.707  0.00  0.00    +0.000 A 
ATOM     16  C   UNL     1      -4.835  12.686  21.084  0.00  0.00    +0.000 A 
ATOM     17  H   UNL     1      -7.779  14.072  20.978  0.00  0.00    +0.000 HD
ENDBRANCH   2   7
BRANCH   5  18
ATOM     18  C   UNL     1       0.959  10.289  20.067  0.00  0.00    +0.000 A 
ATOM     19  C   UNL     1       1.538  11.079  19.041  0.00  0.00    +0.000 A 
ATOM     20  C   UNL     1       1.876  10.552  17.799  0.00  0.00    +0.000 A 
ATOM     21  C   UNL     1       2.557   9.365  17.833  0.00  0.00    +0.000 A 
ATOM     22  C   UNL     1       1.868   8.462  18.637  0.00  0.00    +0.000 A 
ATOM     23  N   UNL     1       1.931   7.106  18.546  0.00  0.00    +0.000 N 
ATOM     24  C   UNL     1       2.303   6.633  19.778  0.00  0.00    +0.000 A 
ATOM     25  C   UNL     1       1.795   7.619  20.666  0.00  0.00    +0.000 A 
ATOM     26  C   UNL     1       1.325   8.840  19.896  0.00  0.00    +0.000 A 
ATOM     27  H   UNL     1       2.199   6.621  17.713  0.00  0.00    +0.000 HD
BRANCH  24  28
ATOM     28  C   UNL     1       3.130   5.421  19.716  0.00  0.00    +0.000 A 
ATOM     29  N   UNL     1       2.603   4.262  20.155  0.00  0.00    +0.000 NA
ATOM     30  C   UNL     1       3.443   3.194  19.876  0.00  0.00    +0.000 A 
ATOM     31  C   UNL     1       4.614   3.512  19.228  0.00  0.00    +0.000 A 
ATOM     32  S   UNL     1       4.658   5.237  18.962  0.00  0.00    +0.000 S 
ENDBRANCH  24  28
ENDBRANCH   5  18
BRANCH   1  34
ATOM     33  C   UNL     1      -0.731  13.103  18.461  0.00  0.00    +0.000 C 
ATOM     34  C   UNL     1      -1.703  12.148  19.129  0.00  0.00    +0.000 C 
ATOM     35  C   UNL     1      -1.868  10.792  18.447  0.00  0.00    +0.000 C 
ENDBRANCH   1  34
BRANCH   4  36
ATOM     36  C   UNL     1      -0.242   9.631  23.194  0.00  0.00    +0.000 C 
ATOM     37  O   UNL     1       0.585   9.657  24.087  0.00  0.00    +0.000 OA
BRANCH  36  38
ATOM     38  OXT UNL     1      -0.983   8.535  22.966  0.00  0.00    +0.000 OA
ATOM     39  HXT UNL     1      -1.223   8.490  22.029  0.00  0.00    +0.000 HD
ENDBRANCH  36  38
ENDBRANCH   4  36
TORSDOF 6
ENDMDL
MODEL 2
REMARK VINA RESULT:      -8.2      4.239      9.181
REMARK  Name = 
REMARK  8 active torsions:
REMARK  status: ('A' for Active; 'I' for Inactive)
REMARK    1  A    between atoms: C_1  and  C_2
REMARK    2  A    between atoms: C_2  and  C_3
REMARK    3  A    between atoms: C_2  and  C_4
REMARK    4  A    between atoms: C_5  and  C_6
REMARK    5  A    between atoms: CA_17  and  C_18
REMARK    6  A    between atoms: C_18  and  OXT_20
REMARK    7  A    between atoms: C_21  and  C_22
REMARK    8  A    between atoms: C_28  and  C_29
REMARK                            x       y       z     vdW  Elec       q    Type
REMARK                         _______ _______ _______ _____ _____    ______ ____
ROOT
ATOM      1  C   UNL     1       0.914   8.823  19.492  0.00  0.00    +0.000 A 
ATOM      2  C   UNL     1       1.646   7.685  19.958  0.00  0.00    +0.000 A 
ATOM      3  N   UNL     1       1.346   7.736  21.308  0.00  0.00    +0.000 N 
ATOM      4  CA  UNL     1       0.940   8.996  21.734  0.00  0.00    +0.000 A 
ATOM      5  C   UNL     1       0.281   9.620  20.638  0.00  0.00    +0.000 A 
ATOM      6  H   UNL     1       1.791   7.137  21.991  0.00  0.00    +0.000 HD
ENDROOT
BRANCH   2   7
ATOM      7  C   UNL     1       2.679   6.643  19.465  0.00  0.00    +0.000 A 
ATOM      8  C   UNL     1       2.618   5.340  20.072  0.00  0.00    +0.000 A 
ATOM      9  C   UNL     1       3.487   4.309  19.732  0.00  0.00    +0.000 A 
ATOM     10  F   UNL     1       2.943   3.133  19.375  0.00  0.00    +0.000 F 
ATOM     11  C   UNL     1       4.723   4.618  19.231  0.00  0.00    +0.000 A 
ATOM     12  C   UNL     1       4.462   5.511  18.201  0.00  0.00    +0.000 A 
ATOM     13  N   UNL     1       4.960   5.440  16.920  0.00  0.00    +0.000 N 
ATOM     14  C   UNL     1       4.825   6.684  16.363  0.00  0.00    +0.000 A 
ATOM     15  C   UNL     1       4.012   7.441  17.209  0.00  0.00    +0.000 A 
ATOM     16  C   UNL     1       3.599   6.634  18.338  0.00  0.00    +0.000 A 
ATOM     17  H   UNL     1       5.402   4.621  16.523  0.00  0.00    +0.000 HD
ENDBRANCH   2   7
BRANCH   5  18
ATOM     18  C   UNL     1      -0.197  11.139  20.688  0.00  0.00    +0.000 A 
ATOM     19  C   UNL     1      -1.198  11.326  21.675  0.00  0.00    +0.000 A 
ATOM     20  C   UNL     1      -2.224  12.253  21.526  0.00  0.00    +0.000 A 
ATOM     21  C   UNL     1      -1.833  13.494  21.101  0.00  0.00    +0.000 A 
ATOM     22  C   UNL     1      -1.048  13.364  19.959  0.00  0.00    +0.000 A 
ATOM     23  N   UNL     1      -0.881  14.310  18.995  0.00  0.00    +0.000 N 
ATOM     24  C   UNL     1       0.466  14.537  18.879  0.00  0.00    +0.000 A 
ATOM     25  C   UNL     1       1.034  13.291  19.258  0.00  0.00    +0.000 A 
ATOM     26  C   UNL     1      -0.024  12.383  19.860  0.00  0.00    +0.000 A 
ATOM     27  H   UNL     1      -1.537  15.047  18.826  0.00  0.00    +0.000 HD
BRANCH  24  28
ATOM     28  C   UNL     1       0.800  15.924  18.534  0.00  0.00    +0.000 A 
ATOM     29  N   UNL     1       2.074  16.215  18.209  0.00  0.00    +0.000 NA
ATOM     30  C   UNL     1       2.188  17.520  17.752  0.00  0.00    +0.000 A 
ATOM     31  C   UNL     1       1.019  18.243  17.721  0.00  0.00    +0.000 A 
ATOM     32  S   UNL     1      -0.282  17.232  18.297  0.00  0.00    +0.000 S 
ENDBRANCH  24  28
ENDBRANCH   5  18
BRANCH   1  34
ATOM     33  C   UNL     1      -0.351   9.842  17.636  0.00  0.00    +0.000 C 
ATOM     34  C   UNL     1       0.999   9.324  18.100  0.00  0.00    +0.000 C 
ATOM     35  C   UNL     1       2.150  10.324  18.023  0.00  0.00    +0.000 C 
ENDBRANCH   1  34
BRANCH   4  36
ATOM     36  C   UNL     1       1.431   9.327  23.080  0.00  0.00    +0.000 C 
ATOM     37  O   UNL     1       0.694   9.609  24.008  0.00  0.00    +0.000 OA
BRANCH  36  38
ATOM     38  OXT UNL     1       2.766   9.371  23.217  0.00  0.00    +0.000 OA
ATOM     39  HXT UNL     1       3.189   9.174  22.369  0.00  0.00    +0.000 HD
ENDBRANCH  36  38
ENDBRANCH   4  36
TORSDOF 6
ENDMDL
MODEL 3
REMARK VINA RESULT:      -8.0      4.260      9.163
REMARK  Name = 
REMARK  8 active torsions:
REMARK  status: ('A' for Active; 'I' for Inactive)
REMARK    1  A    between atoms: C_1  and  C_2
REMARK    2  A    between atoms: C_2  and  C_3
REMARK    3  A    between atoms: C_2  and  C_4
REMARK    4  A    between atoms: C_5  and  C_6
REMARK    5  A    between atoms: CA_17  and  C_18
REMARK    6  A    between atoms: C_18  and  OXT_20
REMARK    7  A    between atoms: C_21  and  C_22
REMARK    8  A    between atoms: C_28  and  C_29
REMARK                            x       y       z     vdW  Elec       q    Type
REMARK                         _______ _______ _______ _____ _____    ______ ____
ROOT
ATOM      1  C   UNL     1       0.995   8.809  19.422  0.00  0.00    +0.000 A 
ATOM      2  C   UNL     1       1.656   7.645  19.929  0.00  0.00    +0.000 A 
ATOM      3  N   UNL     1       1.321   7.735  21.268  0.00  0.00    +0.000 N 
ATOM      4  CA  UNL     1       0.966   9.021  21.662  0.00  0.00    +0.000 A 
ATOM      5  C   UNL     1       0.369   9.657  20.536  0.00  0.00    +0.000 A 
ATOM      6  H   UNL     1       1.716   7.128  21.974  0.00  0.00    +0.000 HD
ENDROOT
BRANCH   2   7
ATOM      7  C   UNL     1       2.650   6.545  19.484  0.00  0.00    +0.000 A 
ATOM      8  C   UNL     1       2.501   5.255  20.103  0.00  0.00    +0.000 A 
ATOM      9  C   UNL     1       3.326   4.177  19.805  0.00  0.00    +0.000 A 
ATOM     10  F   UNL     1       2.736   3.026  19.442  0.00  0.00    +0.000 F 
ATOM     11  C   UNL     1       4.593   4.415  19.344  0.00  0.00    +0.000 A 
ATOM     12  C   UNL     1       4.414   5.307  18.296  0.00  0.00    +0.000 A 
ATOM     13  N   UNL     1       4.952   5.194  17.034  0.00  0.00    +0.000 N 
ATOM     14  C   UNL     1       4.901   6.436  16.459  0.00  0.00    +0.000 A 
ATOM     15  C   UNL     1       4.099   7.244  17.267  0.00  0.00    +0.000 A 
ATOM     16  C   UNL     1       3.607   6.474  18.390  0.00  0.00    +0.000 A 
ATOM     17  H   UNL     1       5.365   4.348  16.661  0.00  0.00    +0.000 HD
ENDBRANCH   2   7
BRANCH   5  18
ATOM     18  C   UNL     1      -0.034  11.198  20.547  0.00  0.00    +0.000 A 
ATOM     19  C   UNL     1      -1.428  11.358  20.744  0.00  0.00    +0.000 A 
ATOM     20  C   UNL     1      -2.146  12.402  20.168  0.00  0.00    +0.000 A 
ATOM     21  C   UNL     1      -1.573  13.639  20.284  0.00  0.00    +0.000 A 
ATOM     22  C   UNL     1      -0.253  13.579  19.845  0.00  0.00    +0.000 A 
ATOM     23  N   UNL     1       0.473  14.621  19.356  0.00  0.00    +0.000 N 
ATOM     24  C   UNL     1       1.610  14.715  20.116  0.00  0.00    +0.000 A 
ATOM     25  C   UNL     1       1.822  13.376  20.542  0.00  0.00    +0.000 A 
ATOM     26  C   UNL     1       0.614  12.515  20.218  0.00  0.00    +0.000 A 
ATOM     27  H   UNL     1       0.060  15.440  18.955  0.00  0.00    +0.000 HD
BRANCH  24  28
ATOM     28  C   UNL     1       2.090  16.092  20.286  0.00  0.00    +0.000 A 
ATOM     29  N   UNL     1       1.235  17.104  20.043  0.00  0.00    +0.000 NA
ATOM     30  C   UNL     1       1.787  18.324  20.408  0.00  0.00    +0.000 A 
ATOM     31  C   UNL     1       3.059  18.268  20.927  0.00  0.00    +0.000 A 
ATOM     32  S   UNL     1       3.583  16.603  20.955  0.00  0.00    +0.000 S 
ENDBRANCH  24  28
ENDBRANCH   5  18
BRANCH   1  34
ATOM     33  C   UNL     1      -0.191   9.747  17.474  0.00  0.00    +0.000 C 
ATOM     34  C   UNL     1       1.144   9.280  18.025  0.00  0.00    +0.000 C 
ATOM     35  C   UNL     1       2.269  10.311  17.988  0.00  0.00    +0.000 C 
ENDBRANCH   1  34
BRANCH   4  36
ATOM     36  C   UNL     1       1.434   9.352  23.015  0.00  0.00    +0.000 C 
ATOM     37  O   UNL     1       0.682   9.662  23.923  0.00  0.00    +0.000 OA
BRANCH  36  38
ATOM     38  OXT UNL     1       2.766   9.362  23.183  0.00  0.00    +0.000 OA
ATOM     39  HXT UNL     1       3.126   8.483  22.998  0.00  0.00    +0.000 HD
ENDBRANCH  36  38
ENDBRANCH   4  36
TORSDOF 6
ENDMDL
MODEL 4
REMARK VINA RESULT:      -8.0      1.286      1.929
REMARK  Name = 
REMARK  8 active torsions:
REMARK  status: ('A' for Active; 'I' for Inactive)
REMARK    1  A    between atoms: C_1  and  C_2
REMARK    2  A    between atoms: C_2  and  C_3
REMARK    3  A    between atoms: C_2  and  C_4
REMARK    4  A    between atoms: C_5  and  C_6
REMARK    5  A    between atoms: CA_17  and  C_18
REMARK    6  A    between atoms: C_18  and  OXT_20
REMARK    7  A    between atoms: C_21  and  C_22
REMARK    8  A    between atoms: C_28  and  C_29
REMARK                            x       y       z     vdW  Elec       q    Type
REMARK                         _______ _______ _______ _____ _____    ______ ____
ROOT
ATOM      1  C   UNL     1      -1.124  11.876  20.348  0.00  0.00    +0.000 A 
ATOM      2  C   UNL     1      -2.016  12.135  21.437  0.00  0.00    +0.000 A 
ATOM      3  N   UNL     1      -1.275  11.626  22.488  0.00  0.00    +0.000 N 
ATOM      4  CA  UNL     1      -0.313  10.704  22.088  0.00  0.00    +0.000 A 
ATOM      5  C   UNL     1       0.110  11.076  20.781  0.00  0.00    +0.000 A 
ATOM      6  H   UNL     1      -1.645  11.532  23.425  0.00  0.00    +0.000 HD
ENDROOT
BRANCH   2   7
ATOM      7  C   UNL     1      -3.461  12.616  21.711  0.00  0.00    +0.000 A 
ATOM      8  C   UNL     1      -4.289  12.853  20.558  0.00  0.00    +0.000 A 
ATOM      9  C   UNL     1      -5.604  13.293  20.653  0.00  0.00    +0.000 A 
ATOM     10  F   UNL     1      -6.545  12.578  20.013  0.00  0.00    +0.000 F 
ATOM     11  C   UNL     1      -5.989  14.009  21.755  0.00  0.00    +0.000 A 
ATOM     12  C   UNL     1      -5.562  13.241  22.829  0.00  0.00    +0.000 A 
ATOM     13  N   UNL     1      -6.320  12.882  23.921  0.00  0.00    +0.000 N 
ATOM     14  C   UNL     1      -5.451  12.515  24.914  0.00  0.00    +0.000 A 
ATOM     15  C   UNL     1      -4.181  12.402  24.345  0.00  0.00    +0.000 A 
ATOM     16  C   UNL     1      -4.255  12.692  22.928  0.00  0.00    +0.000 A 
ATOM     17  H   UNL     1      -7.328  12.957  23.967  0.00  0.00    +0.000 HD
ENDBRANCH   2   7
BRANCH   5  18
ATOM     18  C   UNL     1       1.099  10.172  19.920  0.00  0.00    +0.000 A 
ATOM     19  C   UNL     1       1.754  10.940  18.924  0.00  0.00    +0.000 A 
ATOM     20  C   UNL     1       2.103  10.410  17.686  0.00  0.00    +0.000 A 
ATOM     21  C   UNL     1       2.716   9.187  17.726  0.00  0.00    +0.000 A 
ATOM     22  C   UNL     1       1.952   8.314  18.496  0.00  0.00    +0.000 A 
ATOM     23  N   UNL     1       1.943   6.957  18.389  0.00  0.00    +0.000 N 
ATOM     24  C   UNL     1       2.248   6.451  19.626  0.00  0.00    +0.000 A 
ATOM     25  C   UNL     1       1.766   7.453  20.511  0.00  0.00    +0.000 A 
ATOM     26  C   UNL     1       1.390   8.708  19.742  0.00  0.00    +0.000 A 
ATOM     27  H   UNL     1       2.211   6.468  17.559  0.00  0.00    +0.000 HD
BRANCH  24  28
ATOM     28  C   UNL     1       3.008   5.196  19.574  0.00  0.00    +0.000 A 
ATOM     29  N   UNL     1       4.288   5.237  19.159  0.00  0.00    +0.000 NA
ATOM     30  C   UNL     1       4.909   4.008  19.326  0.00  0.00    +0.000 A 
ATOM     31  C   UNL     1       4.124   3.015  19.865  0.00  0.00    +0.000 A 
ATOM     32  S   UNL     1       2.532   3.661  20.171  0.00  0.00    +0.000 S 
ENDBRANCH  24  28
ENDBRANCH   5  18
BRANCH   1  34
ATOM     33  C   UNL     1      -0.525  13.080  18.281  0.00  0.00    +0.000 C 
ATOM     34  C   UNL     1      -1.491  12.105  18.931  0.00  0.00    +0.000 C 
ATOM     35  C   UNL     1      -1.617  10.747  18.246  0.00  0.00    +0.000 C 
ENDBRANCH   1  34
BRANCH   4  36
ATOM     36  C   UNL     1      -0.153   9.597  23.043  0.00  0.00    +0.000 C 
ATOM     37  O   UNL     1       0.635   9.626  23.971  0.00  0.00    +0.000 OA
BRANCH  36  38
ATOM     38  OXT UNL     1      -0.888   8.502  22.791  0.00  0.00    +0.000 OA
ATOM     39  HXT UNL     1      -0.588   8.087  21.970  0.00  0.00    +0.000 HD
ENDBRANCH  36  38
ENDBRANCH   4  36
TORSDOF 6
ENDMDL
MODEL 5
REMARK VINA RESULT:      -7.8      1.266      1.624
REMARK  Name = 
REMARK  8 active torsions:
REMARK  status: ('A' for Active; 'I' for Inactive)
REMARK    1  A    between atoms: C_1  and  C_2
REMARK    2  A    between atoms: C_2  and  C_3
REMARK    3  A    between atoms: C_2  and  C_4
REMARK    4  A    between atoms: C_5  and  C_6
REMARK    5  A    between atoms: CA_17  and  C_18
REMARK    6  A    between atoms: C_18  and  OXT_20
REMARK    7  A    between atoms: C_21  and  C_22
REMARK    8  A    between atoms: C_28  and  C_29
REMARK                            x       y       z     vdW  Elec       q    Type
REMARK                         _______ _______ _______ _____ _____    ______ ____
ROOT
ATOM      1  C   UNL     1      -1.399  12.607  21.152  0.00  0.00    +0.000 A 
ATOM      2  C   UNL     1      -2.339  12.442  22.218  0.00  0.00    +0.000 A 
ATOM      3  N   UNL     1      -1.631  11.583  23.039  0.00  0.00    +0.000 N 
ATOM      4  CA  UNL     1      -0.636  10.877  22.371  0.00  0.00    +0.000 A 
ATOM      5  C   UNL     1      -0.167  11.708  21.314  0.00  0.00    +0.000 A 
ATOM      6  H   UNL     1      -2.037  11.147  23.857  0.00  0.00    +0.000 HD
ENDROOT
BRANCH   2   7
ATOM      7  C   UNL     1      -3.804  12.783  22.585  0.00  0.00    +0.000 A 
ATOM      8  C   UNL     1      -3.999  13.620  23.738  0.00  0.00    +0.000 A 
ATOM      9  C   UNL     1      -5.259  14.000  24.188  0.00  0.00    +0.000 A 
ATOM     10  F   UNL     1      -5.483  15.314  24.366  0.00  0.00    +0.000 F 
ATOM     11  C   UNL     1      -6.336  13.203  23.905  0.00  0.00    +0.000 A 
ATOM     12  C   UNL     1      -6.255  12.991  22.536  0.00  0.00    +0.000 A 
ATOM     13  N   UNL     1      -7.280  13.144  21.630  0.00  0.00    +0.000 N 
ATOM     14  C   UNL     1      -6.931  12.450  20.503  0.00  0.00    +0.000 A 
ATOM     15  C   UNL     1      -5.587  12.092  20.624  0.00  0.00    +0.000 A 
ATOM     16  C   UNL     1      -5.059  12.599  21.874  0.00  0.00    +0.000 A 
ATOM     17  H   UNL     1      -8.147  13.629  21.824  0.00  0.00    +0.000 HD
ENDBRANCH   2   7
BRANCH   5  18
ATOM     18  C   UNL     1       0.874  11.190  20.225  0.00  0.00    +0.000 A 
ATOM     19  C   UNL     1       1.538  12.275  19.600  0.00  0.00    +0.000 A 
ATOM     20  C   UNL     1       1.942  12.233  18.269  0.00  0.00    +0.000 A 
ATOM     21  C   UNL     1       2.586  11.086  17.890  0.00  0.00    +0.000 A 
ATOM     22  C   UNL     1       1.823   9.983  18.262  0.00  0.00    +0.000 A 
ATOM     23  N   UNL     1       1.854   8.757  17.674  0.00  0.00    +0.000 N 
ATOM     24  C   UNL     1       2.133   7.842  18.656  0.00  0.00    +0.000 A 
ATOM     25  C   UNL     1       1.596   8.451  19.822  0.00  0.00    +0.000 A 
ATOM     26  C   UNL     1       1.210   9.893  19.543  0.00  0.00    +0.000 A 
ATOM     27  H   UNL     1       2.163   8.604  16.734  0.00  0.00    +0.000 HD
BRANCH  24  28
ATOM     28  C   UNL     1       2.929   6.701  18.186  0.00  0.00    +0.000 A 
ATOM     29  N   UNL     1       2.385   5.471  18.249  0.00  0.00    +0.000 NA
ATOM     30  C   UNL     1       3.192   4.535  17.618  0.00  0.00    +0.000 A 
ATOM     31  C   UNL     1       4.354   5.025  17.071  0.00  0.00    +0.000 A 
ATOM     32  S   UNL     1       4.434   6.744  17.366  0.00  0.00    +0.000 S 
ENDBRANCH  24  28
ENDBRANCH   5  18
BRANCH   1  34
ATOM     33  C   UNL     1      -2.514  12.469  18.956  0.00  0.00    +0.000 C 
ATOM     34  C   UNL     1      -1.712  13.343  19.904  0.00  0.00    +0.000 C 
ATOM     35  C   UNL     1      -2.361  14.671  20.284  0.00  0.00    +0.000 C 
ENDBRANCH   1  34
BRANCH   4  36
ATOM     36  C   UNL     1      -0.493   9.497  22.855  0.00  0.00    +0.000 C 
ATOM     37  O   UNL     1      -0.899   8.528  22.238  0.00  0.00    +0.000 OA
BRANCH  36  38
ATOM     38  OXT UNL     1       0.061   9.362  24.071  0.00  0.00    +0.000 OA
ATOM     39  HXT UNL     1      -0.625   9.161  24.723  0.00  0.00    +0.000 HD
ENDBRANCH  36  38
ENDBRANCH   4  36
TORSDOF 6
ENDMDL
MODEL 6
REMARK VINA RESULT:      -7.8      4.033      9.291
REMARK  Name = 
REMARK  8 active torsions:
REMARK  status: ('A' for Active; 'I' for Inactive)
REMARK    1  A    between atoms: C_1  and  C_2
REMARK    2  A    between atoms: C_2  and  C_3
REMARK    3  A    between atoms: C_2  and  C_4
REMARK    4  A    between atoms: C_5  and  C_6
REMARK    5  A    between atoms: CA_17  and  C_18
REMARK    6  A    between atoms: C_18  and  OXT_20
REMARK    7  A    between atoms: C_21  and  C_22
REMARK    8  A    between atoms: C_28  and  C_29
REMARK                            x       y       z     vdW  Elec       q    Type
REMARK                         _______ _______ _______ _____ _____    ______ ____
ROOT
ATOM      1  C   UNL     1       0.666   9.101  19.445  0.00  0.00    +0.000 A 
ATOM      2  C   UNL     1       1.473   7.958  19.744  0.00  0.00    +0.000 A 
ATOM      3  N   UNL     1       1.298   7.885  21.114  0.00  0.00    +0.000 N 
ATOM      4  CA  UNL     1       0.894   9.088  21.683  0.00  0.00    +0.000 A 
ATOM      5  C   UNL     1       0.117   9.775  20.708  0.00  0.00    +0.000 A 
ATOM      6  H   UNL     1       1.822   7.248  21.700  0.00  0.00    +0.000 HD
ENDROOT
BRANCH   2   7
ATOM      7  C   UNL     1       2.488   7.002  19.071  0.00  0.00    +0.000 A 
ATOM      8  C   UNL     1       3.364   7.582  18.089  0.00  0.00    +0.000 A 
ATOM      9  C   UNL     1       4.319   6.843  17.400  0.00  0.00    +0.000 A 
ATOM     10  F   UNL     1       5.586   7.292  17.423  0.00  0.00    +0.000 F 
ATOM     11  C   UNL     1       4.123   5.498  17.228  0.00  0.00    +0.000 A 
ATOM     12  C   UNL     1       3.841   5.027  18.502  0.00  0.00    +0.000 A 
ATOM     13  N   UNL     1       4.428   3.943  19.114  0.00  0.00    +0.000 N 
ATOM     14  C   UNL     1       3.606   3.561  20.140  0.00  0.00    +0.000 A 
ATOM     15  C   UNL     1       2.654   4.567  20.315  0.00  0.00    +0.000 A 
ATOM     16  C   UNL     1       2.898   5.639  19.372  0.00  0.00    +0.000 A 
ATOM     17  H   UNL     1       5.277   3.494  18.792  0.00  0.00    +0.000 HD
ENDBRANCH   2   7
BRANCH   5  18
ATOM     18  C   UNL     1      -0.401  11.265  20.932  0.00  0.00    +0.000 A 
ATOM     19  C   UNL     1      -1.299  11.332  22.027  0.00  0.00    +0.000 A 
ATOM     20  C   UNL     1      -2.365  12.226  22.060  0.00  0.00    +0.000 A 
ATOM     21  C   UNL     1      -2.060  13.512  21.703  0.00  0.00    +0.000 A 
ATOM     22  C   UNL     1      -1.395  13.505  20.480  0.00  0.00    +0.000 A 
ATOM     23  N   UNL     1      -1.358  14.530  19.586  0.00  0.00    +0.000 N 
ATOM     24  C   UNL     1      -0.039  14.819  19.353  0.00  0.00    +0.000 A 
ATOM     25  C   UNL     1       0.605  13.571  19.569  0.00  0.00    +0.000 A 
ATOM     26  C   UNL     1      -0.355  12.576  20.197  0.00  0.00    +0.000 A 
ATOM     27  H   UNL     1      -2.052  15.251  19.546  0.00  0.00    +0.000 HD
BRANCH  24  28
ATOM     28  C   UNL     1       0.213  16.242  19.093  0.00  0.00    +0.000 A 
ATOM     29  N   UNL     1      -0.663  17.146  19.570  0.00  0.00    +0.000 NA
ATOM     30  C   UNL     1      -0.197  18.440  19.384  0.00  0.00    +0.000 A 
ATOM     31  C   UNL     1       1.028  18.547  18.767  0.00  0.00    +0.000 A 
ATOM     32  S   UNL     1       1.616  16.945  18.403  0.00  0.00    +0.000 S 
ENDBRANCH  24  28
ENDBRANCH   5  18
BRANCH   1  34
ATOM     33  C   UNL     1      -0.793  10.235  17.811  0.00  0.00    +0.000 C 
ATOM     34  C   UNL     1       0.606   9.720  18.100  0.00  0.00    +0.000 C 
ATOM     35  C   UNL     1       1.723  10.757  18.002  0.00  0.00    +0.000 C 
ENDBRANCH   1  34
BRANCH   4  36
ATOM     36  C   UNL     1       1.497   9.324  23.003  0.00  0.00    +0.000 C 
ATOM     37  O   UNL     1       0.840   9.521  24.010  0.00  0.00    +0.000 OA
BRANCH  36  38
ATOM     38  OXT UNL     1       2.838   9.381  23.028  0.00  0.00    +0.000 OA
ATOM     39  HXT UNL     1       3.124  10.128  23.573  0.00  0.00    +0.000 HD
ENDBRANCH  36  38
ENDBRANCH   4  36
TORSDOF 6
ENDMDL
MODEL 7
REMARK VINA RESULT:      -7.7      4.254      9.117
REMARK  Name = 
REMARK  8 active torsions:
REMARK  status: ('A' for Active; 'I' for Inactive)
REMARK    1  A    between atoms: C_1  and  C_2
REMARK    2  A    between atoms: C_2  and  C_3
REMARK    3  A    between atoms: C_2  and  C_4
REMARK    4  A    between atoms: C_5  and  C_6
REMARK    5  A    between atoms: CA_17  and  C_18
REMARK    6  A    between atoms: C_18  and  OXT_20
REMARK    7  A    between atoms: C_21  and  C_22
REMARK    8  A    between atoms: C_28  and  C_29
REMARK                            x       y       z     vdW  Elec       q    Type
REMARK                         _______ _______ _______ _____ _____    ______ ____
ROOT
ATOM      1  C   UNL     1       0.941   8.752  19.461  0.00  0.00    +0.000 A 
ATOM      2  C   UNL     1       1.516   7.554  19.992  0.00  0.00    +0.000 A 
ATOM      3  N   UNL     1       1.196   7.701  21.330  0.00  0.00    +0.000 N 
ATOM      4  CA  UNL     1       0.940   9.018  21.695  0.00  0.00    +0.000 A 
ATOM      5  C   UNL     1       0.387   9.671  20.557  0.00  0.00    +0.000 A 
ATOM      6  H   UNL     1       1.548   7.082  22.049  0.00  0.00    +0.000 HD
ENDROOT
BRANCH   2   7
ATOM      7  C   UNL     1       2.422   6.373  19.569  0.00  0.00    +0.000 A 
ATOM      8  C   UNL     1       3.529   6.689  18.707  0.00  0.00    +0.000 A 
ATOM      9  C   UNL     1       4.420   5.728  18.242  0.00  0.00    +0.000 A 
ATOM     10  F   UNL     1       5.731   5.949  18.443  0.00  0.00    +0.000 F 
ATOM     11  C   UNL     1       4.003   4.428  18.137  0.00  0.00    +0.000 A 
ATOM     12  C   UNL     1       3.448   4.145  19.377  0.00  0.00    +0.000 A 
ATOM     13  N   UNL     1       3.722   3.042  20.154  0.00  0.00    +0.000 N 
ATOM     14  C   UNL     1       2.697   2.917  21.054  0.00  0.00    +0.000 A 
ATOM     15  C   UNL     1       1.936   4.086  20.995  0.00  0.00    +0.000 A 
ATOM     16  C   UNL     1       2.517   4.997  20.031  0.00  0.00    +0.000 A 
ATOM     17  H   UNL     1       4.509   2.422  20.011  0.00  0.00    +0.000 HD
ENDBRANCH   2   7
BRANCH   5  18
ATOM     18  C   UNL     1       0.101  11.238  20.533  0.00  0.00    +0.000 A 
ATOM     19  C   UNL     1      -1.289  11.503  20.625  0.00  0.00    +0.000 A 
ATOM     20  C   UNL     1      -1.882  12.592  19.993  0.00  0.00    +0.000 A 
ATOM     21  C   UNL     1      -1.228  13.784  20.148  0.00  0.00    +0.000 A 
ATOM     22  C   UNL     1       0.113  13.622  19.809  0.00  0.00    +0.000 A 
ATOM     23  N   UNL     1       0.949  14.603  19.373  0.00  0.00    +0.000 N 
ATOM     24  C   UNL     1       2.030  14.619  20.215  0.00  0.00    +0.000 A 
ATOM     25  C   UNL     1       2.110  13.272  20.659  0.00  0.00    +0.000 A 
ATOM     26  C   UNL     1       0.868  12.500  20.249  0.00  0.00    +0.000 A 
ATOM     27  H   UNL     1       0.629  15.447  18.939  0.00  0.00    +0.000 HD
BRANCH  24  28
ATOM     28  C   UNL     1       2.598  15.958  20.416  0.00  0.00    +0.000 A 
ATOM     29  N   UNL     1       1.798  16.928  20.899  0.00  0.00    +0.000 NA
ATOM     30  C   UNL     1       2.522  18.077  21.185  0.00  0.00    +0.000 A 
ATOM     31  C   UNL     1       3.872  18.008  20.928  0.00  0.00    +0.000 A 
ATOM     32  S   UNL     1       4.243  16.424  20.294  0.00  0.00    +0.000 S 
ENDBRANCH  24  28
ENDBRANCH   5  18
BRANCH   1  34
ATOM     33  C   UNL     1      -0.179   9.748  17.501  0.00  0.00    +0.000 C 
ATOM     34  C   UNL     1       1.117   9.178  18.052  0.00  0.00    +0.000 C 
ATOM     35  C   UNL     1       2.327  10.107  17.983  0.00  0.00    +0.000 C 
ENDBRANCH   1  34
BRANCH   4  36
ATOM     36  C   UNL     1       1.440   9.345  23.038  0.00  0.00    +0.000 C 
ATOM     37  O   UNL     1       0.709   9.632  23.970  0.00  0.00    +0.000 OA
BRANCH  36  38
ATOM     38  OXT UNL     1       2.776   9.378  23.170  0.00  0.00    +0.000 OA
ATOM     39  HXT UNL     1       3.114   8.480  23.300  0.00  0.00    +0.000 HD
ENDBRANCH  36  38
ENDBRANCH   4  36
TORSDOF 6
ENDMDL
MODEL 8
REMARK VINA RESULT:      -7.7      1.169      1.817
REMARK  Name = 
REMARK  8 active torsions:
REMARK  status: ('A' for Active; 'I' for Inactive)
REMARK    1  A    between atoms: C_1  and  C_2
REMARK    2  A    between atoms: C_2  and  C_3
REMARK    3  A    between atoms: C_2  and  C_4
REMARK    4  A    between atoms: C_5  and  C_6
REMARK    5  A    between atoms: CA_17  and  C_18
REMARK    6  A    between atoms: C_18  and  OXT_20
REMARK    7  A    between atoms: C_21  and  C_22
REMARK    8  A    between atoms: C_28  and  C_29
REMARK                            x       y       z     vdW  Elec       q    Type
REMARK                         _______ _______ _______ _____ _____    ______ ____
ROOT
ATOM      1  C   UNL     1      -1.017  11.920  20.296  0.00  0.00    +0.000 A 
ATOM      2  C   UNL     1      -1.915  12.272  21.352  0.00  0.00    +0.000 A 
ATOM      3  N   UNL     1      -1.238  11.746  22.437  0.00  0.00    +0.000 N 
ATOM      4  CA  UNL     1      -0.333  10.748  22.090  0.00  0.00    +0.000 A 
ATOM      5  C   UNL     1       0.148  11.051  20.785  0.00  0.00    +0.000 A 
ATOM      6  H   UNL     1      -1.637  11.706  23.366  0.00  0.00    +0.000 HD
ENDROOT
BRANCH   2   7
ATOM      7  C   UNL     1      -3.331  12.859  21.572  0.00  0.00    +0.000 A 
ATOM      8  C   UNL     1      -4.411  12.206  20.882  0.00  0.00    +0.000 A 
ATOM      9  C   UNL     1      -5.732  12.628  20.981  0.00  0.00    +0.000 A 
ATOM     10  F   UNL     1      -6.651  11.713  21.332  0.00  0.00    +0.000 F 
ATOM     11  C   UNL     1      -5.992  13.939  21.282  0.00  0.00    +0.000 A 
ATOM     12  C   UNL     1      -5.223  14.191  22.409  0.00  0.00    +0.000 A 
ATOM     13  N   UNL     1      -5.660  14.781  23.573  0.00  0.00    +0.000 N 
ATOM     14  C   UNL     1      -4.552  15.226  24.243  0.00  0.00    +0.000 A 
ATOM     15  C   UNL     1      -3.431  14.679  23.617  0.00  0.00    +0.000 A 
ATOM     16  C   UNL     1      -3.850  13.837  22.515  0.00  0.00    +0.000 A 
ATOM     17  H   UNL     1      -6.634  14.907  23.820  0.00  0.00    +0.000 HD
ENDBRANCH   2   7
BRANCH   5  18
ATOM     18  C   UNL     1       1.094  10.056  19.978  0.00  0.00    +0.000 A 
ATOM     19  C   UNL     1       1.729  10.720  18.898  0.00  0.00    +0.000 A 
ATOM     20  C   UNL     1       2.029  10.076  17.702  0.00  0.00    +0.000 A 
ATOM     21  C   UNL     1       2.623   8.850  17.832  0.00  0.00    +0.000 A 
ATOM     22  C   UNL     1       1.870   8.063  18.699  0.00  0.00    +0.000 A 
ATOM     23  N   UNL     1       1.834   6.703  18.713  0.00  0.00    +0.000 N 
ATOM     24  C   UNL     1       2.171   6.301  19.980  0.00  0.00    +0.000 A 
ATOM     25  C   UNL     1       1.734   7.386  20.786  0.00  0.00    +0.000 A 
ATOM     26  C   UNL     1       1.355   8.576  19.922  0.00  0.00    +0.000 A 
ATOM     27  H   UNL     1       2.068   6.137  17.921  0.00  0.00    +0.000 HD
BRANCH  24  28
ATOM     28  C   UNL     1       2.908   5.032  20.017  0.00  0.00    +0.000 A 
ATOM     29  N   UNL     1       2.390   4.010  20.725  0.00  0.00    +0.000 NA
ATOM     30  C   UNL     1       3.115   2.844  20.523  0.00  0.00    +0.000 A 
ATOM     31  C   UNL     1       4.187   2.952  19.669  0.00  0.00    +0.000 A 
ATOM     32  S   UNL     1       4.288   4.598  19.097  0.00  0.00    +0.000 S 
ENDBRANCH  24  28
ENDBRANCH   5  18
BRANCH   1  34
ATOM     33  C   UNL     1      -0.275  13.004  18.208  0.00  0.00    +0.000 C 
ATOM     34  C   UNL     1      -1.330  12.130  18.863  0.00  0.00    +0.000 C 
ATOM     35  C   UNL     1      -1.547  10.763  18.217  0.00  0.00    +0.000 C 
ENDBRANCH   1  34
BRANCH   4  36
ATOM     36  C   UNL     1      -0.274   9.663  23.080  0.00  0.00    +0.000 C 
ATOM     37  O   UNL     1       0.425   9.707  24.077  0.00  0.00    +0.000 OA
BRANCH  36  38
ATOM     38  OXT UNL     1      -0.994   8.569  22.786  0.00  0.00    +0.000 OA
ATOM     39  HXT UNL     1      -1.711   8.802  22.179  0.00  0.00    +0.000 HD
ENDBRANCH  36  38
ENDBRANCH   4  36
TORSDOF 6
ENDMDL
MODEL 9
REMARK VINA RESULT:      -7.7      1.395      1.682
REMARK  Name = 
REMARK  8 active torsions:
REMARK  status: ('A' for Active; 'I' for Inactive)
REMARK    1  A    between atoms: C_1  and  C_2
REMARK    2  A    between atoms: C_2  and  C_3
REMARK    3  A    between atoms: C_2  and  C_4
REMARK    4  A    between atoms: C_5  and  C_6
REMARK    5  A    between atoms: CA_17  and  C_18
REMARK    6  A    between atoms: C_18  and  OXT_20
REMARK    7  A    between atoms: C_21  and  C_22
REMARK    8  A    between atoms: C_28  and  C_29
REMARK                            x       y       z     vdW  Elec       q    Type
REMARK                         _______ _______ _______ _____ _____    ______ ____
ROOT
ATOM      1  C   UNL     1      -0.569  11.330  19.740  0.00  0.00    +0.000 A 
ATOM      2  C   UNL     1      -1.463  11.873  20.718  0.00  0.00    +0.000 A 
ATOM      3  N   UNL     1      -0.849  11.440  21.879  0.00  0.00    +0.000 N 
ATOM      4  CA  UNL     1      -0.010  10.347  21.685  0.00  0.00    +0.000 A 
ATOM      5  C   UNL     1       0.520  10.451  20.368  0.00  0.00    +0.000 A 
ATOM      6  H   UNL     1      -1.270  11.543  22.793  0.00  0.00    +0.000 HD
ENDROOT
BRANCH   2   7
ATOM      7  C   UNL     1      -2.837  12.578  20.821  0.00  0.00    +0.000 A 
ATOM      8  C   UNL     1      -2.931  13.667  21.757  0.00  0.00    +0.000 A 
ATOM      9  C   UNL     1      -4.104  14.386  21.960  0.00  0.00    +0.000 A 
ATOM     10  F   UNL     1      -4.037  15.724  21.850  0.00  0.00    +0.000 F 
ATOM     11  C   UNL     1      -5.306  13.785  21.701  0.00  0.00    +0.000 A 
ATOM     12  C   UNL     1      -5.164  13.269  20.421  0.00  0.00    +0.000 A 
ATOM     13  N   UNL     1      -6.049  13.430  19.379  0.00  0.00    +0.000 N 
ATOM     14  C   UNL     1      -5.775  12.452  18.461  0.00  0.00    +0.000 A 
ATOM     15  C   UNL     1      -4.563  11.860  18.820  0.00  0.00    +0.000 A 
ATOM     16  C   UNL     1      -4.038  12.506  20.005  0.00  0.00    +0.000 A 
ATOM     17  H   UNL     1      -6.796  14.113  19.362  0.00  0.00    +0.000 HD
ENDBRANCH   2   7
BRANCH   5  18
ATOM     18  C   UNL     1       1.409   9.301  19.717  0.00  0.00    +0.000 A 
ATOM     19  C   UNL     1       2.169   9.799  18.628  0.00  0.00    +0.000 A 
ATOM     20  C   UNL     1       2.474   9.019  17.517  0.00  0.00    +0.000 A 
ATOM     21  C   UNL     1       2.935   7.761  17.795  0.00  0.00    +0.000 A 
ATOM     22  C   UNL     1       2.058   7.133  18.675  0.00  0.00    +0.000 A 
ATOM     23  N   UNL     1       1.888   5.789  18.807  0.00  0.00    +0.000 N 
ATOM     24  C   UNL     1       2.108   5.479  20.124  0.00  0.00    +0.000 A 
ATOM     25  C   UNL     1       1.734   6.672  20.800  0.00  0.00    +0.000 A 
ATOM     26  C   UNL     1       1.525   7.804  19.810  0.00  0.00    +0.000 A 
ATOM     27  H   UNL     1       2.111   5.132  18.086  0.00  0.00    +0.000 HD
BRANCH  24  28
ATOM     28  C   UNL     1       2.713   4.157  20.322  0.00  0.00    +0.000 A 
ATOM     29  N   UNL     1       3.789   3.826  19.585  0.00  0.00    +0.000 NA
ATOM     30  C   UNL     1       4.335   2.622  20.008  0.00  0.00    +0.000 A 
ATOM     31  C   UNL     1       3.693   2.017  21.062  0.00  0.00    +0.000 A 
ATOM     32  S   UNL     1       2.338   3.009  21.540  0.00  0.00    +0.000 S 
ENDBRANCH  24  28
ENDBRANCH   5  18
BRANCH   1  34
ATOM     33  C   UNL     1      -1.920  10.389  17.904  0.00  0.00    +0.000 C 
ATOM     34  C   UNL     1      -0.836  11.382  18.283  0.00  0.00    +0.000 C 
ATOM     35  C   UNL     1      -1.109  12.834  17.900  0.00  0.00    +0.000 C 
ENDBRANCH   1  34
BRANCH   4  36
ATOM     36  C   UNL     1      -0.050   9.392  22.802  0.00  0.00    +0.000 C 
ATOM     37  O   UNL     1       0.638   9.504  23.800  0.00  0.00    +0.000 OA
BRANCH  36  38
ATOM     38  OXT UNL     1      -0.854   8.330  22.629  0.00  0.00    +0.000 OA
ATOM     39  HXT UNL     1      -0.968   7.865  23.470  0.00  0.00    +0.000 HD
ENDBRANCH  36  38
ENDBRANCH   4  36
TORSDOF 6
ENDMDL
