MODEL 1
REMARK VINA RESULT:      -7.9      0.000      0.000
REMARK  Name = 
REMARK  4 active torsions:
REMARK  status: ('A' for Active; 'I' for Inactive)
REMARK    1  A    between atoms: C_2  and  C_3
REMARK    2  A    between atoms: C_6  and  N_7
REMARK    3  A    between atoms: N_16  and  C_17
REMARK    4  A    between atoms: C_17  and  C_19
REMARK                            x       y       z     vdW  Elec       q    Type
REMARK                         _______ _______ _______ _____ _____    ______ ____
ROOT
ATOM      1  N   UNL     1       3.768   6.091  17.461  0.00  0.00    +0.000 N 
ATOM      2  C   UNL     1       4.568   6.925  16.550  0.00  0.00    +0.000 C 
ATOM      3  C   UNL     1       5.379   5.905  15.819  0.00  0.00    +0.000 A 
ATOM      4  C   UNL     1       6.280   6.116  14.784  0.00  0.00    +0.000 A 
ATOM      5  C   UNL     1       6.846   4.998  14.167  0.00  0.00    +0.000 A 
ATOM      6  C   UNL     1       6.512   3.699  14.590  0.00  0.00    +0.000 A 
ATOM      7  C   UNL     1       5.604   3.495  15.637  0.00  0.00    +0.000 A 
ATOM      8  C   UNL     1       5.058   4.613  16.242  0.00  0.00    +0.000 A 
ATOM      9  C   UNL     1       3.948   4.720  17.231  0.00  0.00    +0.000 C 
ATOM     10  N   UNL     1       3.339   3.629  17.569  0.00  0.00    +0.000 NA
ENDROOT
BRANCH   1  14
ATOM     11  C   UNL     1       1.651   8.228  20.421  0.00  0.00    +0.000 A 
ATOM     12  C   UNL     1       2.235   7.001  20.733  0.00  0.00    +0.000 A 
ATOM     13  C   UNL     1       2.878   6.263  19.736  0.00  0.00    +0.000 A 
ATOM     14  C   UNL     1       2.963   6.733  18.414  0.00  0.00    +0.000 A 
ATOM     15  C   UNL     1       2.256   7.904  18.104  0.00  0.00    +0.000 A 
ATOM     16  C   UNL     1       1.639   8.667  19.099  0.00  0.00    +0.000 A 
BRANCH  11  18
ATOM     17  N   UNL     1       0.623   9.687  22.300  0.00  0.00    +0.000 NA
ATOM     18  C   UNL     1       1.082   9.033  21.454  0.00  0.00    +0.000 C 
ENDBRANCH  11  18
ENDBRANCH   1  14
BRANCH  10  19
ATOM     19  C   UNL     1       2.041   3.712  18.015  0.00  0.00    +0.000 C 
ATOM     20  O   UNL     1       1.100   4.004  17.283  0.00  0.00    +0.000 OA
BRANCH  19  21
ATOM     21  C   UNL     1       1.867   3.273  19.403  0.00  0.00    +0.000 A 
ATOM     22  C   UNL     1       0.777   3.316  20.256  0.00  0.00    +0.000 A 
ATOM     23  C   UNL     1       1.094   2.876  21.581  0.00  0.00    +0.000 A 
ATOM     24  C   UNL     1       2.404   2.468  21.691  0.00  0.00    +0.000 A 
ATOM     25  S   UNL     1       3.231   2.584  20.204  0.00  0.00    +0.000 S 
ENDBRANCH  19  21
ENDBRANCH  10  19
TORSDOF 4
ENDMDL
MODEL 2
REMARK VINA RESULT:      -7.8      0.357      1.025
REMARK  Name = 
REMARK  4 active torsions:
REMARK  status: ('A' for Active; 'I' for Inactive)
REMARK    1  A    between atoms: C_2  and  C_3
REMARK    2  A    between atoms: C_6  and  N_7
REMARK    3  A    between atoms: N_16  and  C_17
REMARK    4  A    between atoms: C_17  and  C_19
REMARK                            x       y       z     vdW  Elec       q    Type
REMARK                         _______ _______ _______ _____ _____    ______ ____
ROOT
ATOM      1  N   UNL     1       3.946   6.099  17.415  0.00  0.00    +0.000 N 
ATOM      2  C   UNL     1       4.773   6.892  16.491  0.00  0.00    +0.000 C 
ATOM      3  C   UNL     1       5.485   5.831  15.716  0.00  0.00    +0.000 A 
ATOM      4  C   UNL     1       6.364   5.997  14.654  0.00  0.00    +0.000 A 
ATOM      5  C   UNL     1       6.827   4.854  14.000  0.00  0.00    +0.000 A 
ATOM      6  C   UNL     1       6.416   3.574  14.412  0.00  0.00    +0.000 A 
ATOM      7  C   UNL     1       5.530   3.415  15.486  0.00  0.00    +0.000 A 
ATOM      8  C   UNL     1       5.086   4.557  16.128  0.00  0.00    +0.000 A 
ATOM      9  C   UNL     1       4.020   4.723  17.156  0.00  0.00    +0.000 C 
ATOM     10  N   UNL     1       3.346   3.673  17.496  0.00  0.00    +0.000 NA
ENDROOT
BRANCH   1  14
ATOM     11  C   UNL     1       1.464   7.933  20.294  0.00  0.00    +0.000 A 
ATOM     12  C   UNL     1       1.629   8.522  19.041  0.00  0.00    +0.000 A 
ATOM     13  C   UNL     1       2.503   7.950  18.112  0.00  0.00    +0.000 A 
ATOM     14  C   UNL     1       3.221   6.778  18.405  0.00  0.00    +0.000 A 
ATOM     15  C   UNL     1       3.133   6.284  19.716  0.00  0.00    +0.000 A 
ATOM     16  C   UNL     1       2.237   6.827  20.640  0.00  0.00    +0.000 A 
BRANCH  11  18
ATOM     17  N   UNL     1      -0.293   8.871  21.952  0.00  0.00    +0.000 NA
ATOM     18  C   UNL     1       0.499   8.453  21.208  0.00  0.00    +0.000 C 
ENDBRANCH  11  18
ENDBRANCH   1  14
BRANCH  10  19
ATOM     19  C   UNL     1       2.072   3.839  17.989  0.00  0.00    +0.000 C 
ATOM     20  O   UNL     1       1.136   4.230  17.299  0.00  0.00    +0.000 OA
BRANCH  19  21
ATOM     21  C   UNL     1       1.907   3.362  19.365  0.00  0.00    +0.000 A 
ATOM     22  C   UNL     1       0.820   3.374  20.222  0.00  0.00    +0.000 A 
ATOM     23  C   UNL     1       1.145   2.901  21.534  0.00  0.00    +0.000 A 
ATOM     24  C   UNL     1       2.459   2.500  21.629  0.00  0.00    +0.000 A 
ATOM     25  S   UNL     1       3.280   2.663  20.143  0.00  0.00    +0.000 S 
ENDBRANCH  19  21
ENDBRANCH  10  19
TORSDOF 4
ENDMDL
MODEL 3
REMARK VINA RESULT:      -7.1      3.613      6.633
REMARK  Name = 
REMARK  4 active torsions:
REMARK  status: ('A' for Active; 'I' for Inactive)
REMARK    1  A    between atoms: C_2  and  C_3
REMARK    2  A    between atoms: C_6  and  N_7
REMARK    3  A    between atoms: N_16  and  C_17
REMARK    4  A    between atoms: C_17  and  C_19
REMARK                            x       y       z     vdW  Elec       q    Type
REMARK                         _______ _______ _______ _____ _____    ______ ____
ROOT
ATOM      1  N   UNL     1       5.509   5.302  18.172  0.00  0.00    +0.000 N 
ATOM      2  C   UNL     1       4.813   5.126  19.457  0.00  0.00    +0.000 C 
ATOM      3  C   UNL     1       3.817   4.059  19.133  0.00  0.00    +0.000 A 
ATOM      4  C   UNL     1       2.917   3.446  19.993  0.00  0.00    +0.000 A 
ATOM      5  C   UNL     1       2.153   2.387  19.499  0.00  0.00    +0.000 A 
ATOM      6  C   UNL     1       2.293   1.962  18.165  0.00  0.00    +0.000 A 
ATOM      7  C   UNL     1       3.202   2.588  17.303  0.00  0.00    +0.000 A 
ATOM      8  C   UNL     1       3.946   3.640  17.806  0.00  0.00    +0.000 A 
ATOM      9  C   UNL     1       5.101   4.368  17.209  0.00  0.00    +0.000 C 
ATOM     10  N   UNL     1       5.542   3.956  16.065  0.00  0.00    +0.000 NA
ENDROOT
BRANCH   1  14
ATOM     11  C   UNL     1       8.148   8.595  18.124  0.00  0.00    +0.000 A 
ATOM     12  C   UNL     1       7.050   8.571  17.265  0.00  0.00    +0.000 A 
ATOM     13  C   UNL     1       6.214   7.451  17.234  0.00  0.00    +0.000 A 
ATOM     14  C   UNL     1       6.447   6.339  18.062  0.00  0.00    +0.000 A 
ATOM     15  C   UNL     1       7.629   6.339  18.818  0.00  0.00    +0.000 A 
ATOM     16  C   UNL     1       8.452   7.467  18.883  0.00  0.00    +0.000 A 
BRANCH  11  18
ATOM     17  N   UNL     1       9.590  10.739  18.319  0.00  0.00    +0.000 NA
ATOM     18  C   UNL     1       8.945   9.774  18.234  0.00  0.00    +0.000 C 
ENDBRANCH  11  18
ENDBRANCH   1  14
BRANCH  10  19
ATOM     19  C   UNL     1       6.856   4.202  15.738  0.00  0.00    +0.000 C 
ATOM     20  O   UNL     1       7.776   4.094  16.543  0.00  0.00    +0.000 OA
BRANCH  19  21
ATOM     21  C   UNL     1       7.069   4.456  14.310  0.00  0.00    +0.000 A 
ATOM     22  C   UNL     1       7.868   5.370  13.644  0.00  0.00    +0.000 A 
ATOM     23  C   UNL     1       7.675   5.342  12.225  0.00  0.00    +0.000 A 
ATOM     24  C   UNL     1       6.767   4.379  11.845  0.00  0.00    +0.000 A 
ATOM     25  S   UNL     1       6.181   3.498  13.182  0.00  0.00    +0.000 S 
ENDBRANCH  19  21
ENDBRANCH  10  19
TORSDOF 4
ENDMDL
MODEL 4
REMARK VINA RESULT:      -6.6      5.545      9.098
REMARK  Name = 
REMARK  4 active torsions:
REMARK  status: ('A' for Active; 'I' for Inactive)
REMARK    1  A    between atoms: C_2  and  C_3
REMARK    2  A    between atoms: C_6  and  N_7
REMARK    3  A    between atoms: N_16  and  C_17
REMARK    4  A    between atoms: C_17  and  C_19
REMARK                            x       y       z     vdW  Elec       q    Type
REMARK                         _______ _______ _______ _____ _____    ______ ____
ROOT
ATOM      1  N   UNL     1       1.055  12.366  19.312  0.00  0.00    +0.000 N 
ATOM      2  C   UNL     1       2.143  13.152  19.917  0.00  0.00    +0.000 C 
ATOM      3  C   UNL     1       1.719  14.555  19.624  0.00  0.00    +0.000 A 
ATOM      4  C   UNL     1       2.343  15.732  20.015  0.00  0.00    +0.000 A 
ATOM      5  C   UNL     1       1.706  16.940  19.725  0.00  0.00    +0.000 A 
ATOM      6  C   UNL     1       0.471  16.958  19.052  0.00  0.00    +0.000 A 
ATOM      7  C   UNL     1      -0.150  15.766  18.659  0.00  0.00    +0.000 A 
ATOM      8  C   UNL     1       0.496  14.578  18.948  0.00  0.00    +0.000 A 
ATOM      9  C   UNL     1       0.014  13.173  18.830  0.00  0.00    +0.000 C 
ATOM     10  N   UNL     1      -1.208  12.989  18.450  0.00  0.00    +0.000 NA
ENDROOT
BRANCH   1  14
ATOM     11  C   UNL     1       1.799   8.212  19.333  0.00  0.00    +0.000 A 
ATOM     12  C   UNL     1       1.951   8.940  18.154  0.00  0.00    +0.000 A 
ATOM     13  C   UNL     1       1.640  10.302  18.131  0.00  0.00    +0.000 A 
ATOM     14  C   UNL     1       1.183  10.970  19.281  0.00  0.00    +0.000 A 
ATOM     15  C   UNL     1       0.919  10.186  20.414  0.00  0.00    +0.000 A 
ATOM     16  C   UNL     1       1.258   8.831  20.458  0.00  0.00    +0.000 A 
BRANCH  11  18
ATOM     17  N   UNL     1       2.547   5.733  19.428  0.00  0.00    +0.000 NA
ATOM     18  C   UNL     1       2.211   6.846  19.389  0.00  0.00    +0.000 C 
ENDBRANCH  11  18
ENDBRANCH   1  14
BRANCH  10  19
ATOM     19  C   UNL     1      -1.848  11.830  18.827  0.00  0.00    +0.000 C 
ATOM     20  O   UNL     1      -2.065  11.539  20.000  0.00  0.00    +0.000 OA
BRANCH  19  21
ATOM     21  C   UNL     1      -2.376  11.056  17.700  0.00  0.00    +0.000 A 
ATOM     22  C   UNL     1      -1.834  10.022  16.955  0.00  0.00    +0.000 A 
ATOM     23  C   UNL     1      -2.668   9.635  15.858  0.00  0.00    +0.000 A 
ATOM     24  C   UNL     1      -3.842  10.353  15.821  0.00  0.00    +0.000 A 
ATOM     25  S   UNL     1      -3.949  11.458  17.116  0.00  0.00    +0.000 S 
ENDBRANCH  19  21
ENDBRANCH  10  19
TORSDOF 4
ENDMDL
MODEL 5
REMARK VINA RESULT:      -6.5      5.982      8.845
REMARK  Name = 
REMARK  4 active torsions:
REMARK  status: ('A' for Active; 'I' for Inactive)
REMARK    1  A    between atoms: C_2  and  C_3
REMARK    2  A    between atoms: C_6  and  N_7
REMARK    3  A    between atoms: N_16  and  C_17
REMARK    4  A    between atoms: C_17  and  C_19
REMARK                            x       y       z     vdW  Elec       q    Type
REMARK                         _______ _______ _______ _____ _____    ______ ____
ROOT
ATOM      1  N   UNL     1      -0.067  14.012  20.126  0.00  0.00    +0.000 N 
ATOM      2  C   UNL     1      -0.026  15.473  19.953  0.00  0.00    +0.000 C 
ATOM      3  C   UNL     1       1.196  15.657  19.111  0.00  0.00    +0.000 A 
ATOM      4  C   UNL     1       1.697  16.840  18.585  0.00  0.00    +0.000 A 
ATOM      5  C   UNL     1       2.796  16.764  17.727  0.00  0.00    +0.000 A 
ATOM      6  C   UNL     1       3.376  15.522  17.412  0.00  0.00    +0.000 A 
ATOM      7  C   UNL     1       2.866  14.334  17.950  0.00  0.00    +0.000 A 
ATOM      8  C   UNL     1       1.782  14.426  18.804  0.00  0.00    +0.000 A 
ATOM      9  C   UNL     1       0.917  13.355  19.373  0.00  0.00    +0.000 C 
ATOM     10  N   UNL     1       1.148  12.138  19.000  0.00  0.00    +0.000 NA
ENDROOT
BRANCH   1  14
ATOM     11  C   UNL     1      -3.035  12.743  22.844  0.00  0.00    +0.000 A 
ATOM     12  C   UNL     1      -1.694  12.730  23.223  0.00  0.00    +0.000 A 
ATOM     13  C   UNL     1      -0.706  13.087  22.301  0.00  0.00    +0.000 A 
ATOM     14  C   UNL     1      -1.031  13.473  20.989  0.00  0.00    +0.000 A 
ATOM     15  C   UNL     1      -2.374  13.351  20.600  0.00  0.00    +0.000 A 
ATOM     16  C   UNL     1      -3.373  13.029  21.523  0.00  0.00    +0.000 A 
BRANCH  11  18
ATOM     17  N   UNL     1      -4.882  12.257  24.596  0.00  0.00    +0.000 NA
ATOM     18  C   UNL     1      -4.054  12.479  23.808  0.00  0.00    +0.000 C 
ENDBRANCH  11  18
ENDBRANCH   1  14
BRANCH  10  19
ATOM     19  C   UNL     1       0.115  11.229  19.044  0.00  0.00    +0.000 C 
ATOM     20  O   UNL     1      -0.840  11.266  18.274  0.00  0.00    +0.000 OA
BRANCH  19  21
ATOM     21  C   UNL     1       0.338  10.131  19.990  0.00  0.00    +0.000 A 
ATOM     22  C   UNL     1      -0.167   9.887  21.256  0.00  0.00    +0.000 A 
ATOM     23  C   UNL     1       0.419   8.735  21.872  0.00  0.00    +0.000 A 
ATOM     24  C   UNL     1       1.322   8.108  21.043  0.00  0.00    +0.000 A 
ATOM     25  S   UNL     1       1.434   8.882  19.527  0.00  0.00    +0.000 S 
ENDBRANCH  19  21
ENDBRANCH  10  19
TORSDOF 4
ENDMDL
MODEL 6
REMARK VINA RESULT:      -6.4      6.835      9.258
REMARK  Name = 
REMARK  4 active torsions:
REMARK  status: ('A' for Active; 'I' for Inactive)
REMARK    1  A    between atoms: C_2  and  C_3
REMARK    2  A    between atoms: C_6  and  N_7
REMARK    3  A    between atoms: N_16  and  C_17
REMARK    4  A    between atoms: C_17  and  C_19
REMARK                            x       y       z     vdW  Elec       q    Type
REMARK                         _______ _______ _______ _____ _____    ______ ____
ROOT
ATOM      1  N   UNL     1      -0.072  14.589  20.348  0.00  0.00    +0.000 N 
ATOM      2  C   UNL     1       0.087  16.002  19.967  0.00  0.00    +0.000 C 
ATOM      3  C   UNL     1       1.308  15.962  19.106  0.00  0.00    +0.000 A 
ATOM      4  C   UNL     1       1.898  17.011  18.415  0.00  0.00    +0.000 A 
ATOM      5  C   UNL     1       2.975  16.722  17.575  0.00  0.00    +0.000 A 
ATOM      6  C   UNL     1       3.447  15.405  17.440  0.00  0.00    +0.000 A 
ATOM      7  C   UNL     1       2.848  14.352  18.143  0.00  0.00    +0.000 A 
ATOM      8  C   UNL     1       1.787  14.655  18.977  0.00  0.00    +0.000 A 
ATOM      9  C   UNL     1       0.844  13.752  19.694  0.00  0.00    +0.000 C 
ATOM     10  N   UNL     1       0.969  12.479  19.500  0.00  0.00    +0.000 NA
ENDROOT
BRANCH   1  14
ATOM     11  C   UNL     1      -2.972  13.237  23.098  0.00  0.00    +0.000 A 
ATOM     12  C   UNL     1      -3.329  13.477  21.772  0.00  0.00    +0.000 A 
ATOM     13  C   UNL     1      -2.385  13.988  20.878  0.00  0.00    +0.000 A 
ATOM     14  C   UNL     1      -1.066  14.261  21.280  0.00  0.00    +0.000 A 
ATOM     15  C   UNL     1      -0.774  14.133  22.646  0.00  0.00    +0.000 A 
ATOM     16  C   UNL     1      -1.699  13.590  23.541  0.00  0.00    +0.000 A 
BRANCH  11  18
ATOM     17  N   UNL     1      -4.655  12.113  24.717  0.00  0.00    +0.000 NA
ATOM     18  C   UNL     1      -3.901  12.621  23.990  0.00  0.00    +0.000 C 
ENDBRANCH  11  18
ENDBRANCH   1  14
BRANCH  10  19
ATOM     19  C   UNL     1      -0.134  11.675  19.675  0.00  0.00    +0.000 C 
ATOM     20  O   UNL     1      -1.105  11.702  18.925  0.00  0.00    +0.000 OA
BRANCH  19  21
ATOM     21  C   UNL     1       0.025  10.684  20.743  0.00  0.00    +0.000 A 
ATOM     22  C   UNL     1      -0.465  10.636  22.038  0.00  0.00    +0.000 A 
ATOM     23  C   UNL     1       0.043   9.521  22.779  0.00  0.00    +0.000 A 
ATOM     24  C   UNL     1       0.870   8.727  22.018  0.00  0.00    +0.000 A 
ATOM     25  S   UNL     1       1.005   9.302  20.418  0.00  0.00    +0.000 S 
ENDBRANCH  19  21
ENDBRANCH  10  19
TORSDOF 4
ENDMDL
MODEL 7
REMARK VINA RESULT:      -6.4      8.040     10.888
REMARK  Name = 
REMARK  4 active torsions:
REMARK  status: ('A' for Active; 'I' for Inactive)
REMARK    1  A    between atoms: C_2  and  C_3
REMARK    2  A    between atoms: C_6  and  N_7
REMARK    3  A    between atoms: N_16  and  C_17
REMARK    4  A    between atoms: C_17  and  C_19
REMARK                            x       y       z     vdW  Elec       q    Type
REMARK                         _______ _______ _______ _____ _____    ______ ____
ROOT
ATOM      1  N   UNL     1      -3.580  12.815  20.384  0.00  0.00    +0.000 N 
ATOM      2  C   UNL     1      -4.515  12.338  19.352  0.00  0.00    +0.000 C 
ATOM      3  C   UNL     1      -3.626  11.516  18.475  0.00  0.00    +0.000 A 
ATOM      4  C   UNL     1      -3.984  10.768  17.362  0.00  0.00    +0.000 A 
ATOM      5  C   UNL     1      -3.003   9.982  16.756  0.00  0.00    +0.000 A 
ATOM      6  C   UNL     1      -1.690   9.956  17.260  0.00  0.00    +0.000 A 
ATOM      7  C   UNL     1      -1.337  10.716  18.383  0.00  0.00    +0.000 A 
ATOM      8  C   UNL     1      -2.319  11.495  18.968  0.00  0.00    +0.000 A 
ATOM      9  C   UNL     1      -2.303  12.250  20.252  0.00  0.00    +0.000 C 
ATOM     10  N   UNL     1      -1.246  12.151  20.992  0.00  0.00    +0.000 NA
ENDROOT
BRANCH   1  14
ATOM     11  C   UNL     1      -4.653  15.566  23.398  0.00  0.00    +0.000 A 
ATOM     12  C   UNL     1      -4.997  14.222  23.529  0.00  0.00    +0.000 A 
ATOM     13  C   UNL     1      -4.700  13.323  22.500  0.00  0.00    +0.000 A 
ATOM     14  C   UNL     1      -4.048  13.741  21.327  0.00  0.00    +0.000 A 
ATOM     15  C   UNL     1      -3.831  15.118  21.170  0.00  0.00    +0.000 A 
ATOM     16  C   UNL     1      -4.092  16.019  22.206  0.00  0.00    +0.000 A 
BRANCH  11  18
ATOM     17  N   UNL     1      -5.030  17.209  25.366  0.00  0.00    +0.000 NA
ATOM     18  C   UNL     1      -4.861  16.468  24.485  0.00  0.00    +0.000 C 
ENDBRANCH  11  18
ENDBRANCH   1  14
BRANCH  10  19
ATOM     19  C   UNL     1      -1.371  12.353  22.348  0.00  0.00    +0.000 C 
ATOM     20  O   UNL     1      -1.716  11.468  23.125  0.00  0.00    +0.000 OA
BRANCH  19  21
ATOM     21  C   UNL     1      -0.909  13.671  22.791  0.00  0.00    +0.000 A 
ATOM     22  C   UNL     1      -1.227  14.437  23.900  0.00  0.00    +0.000 A 
ATOM     23  C   UNL     1      -0.615  15.731  23.873  0.00  0.00    +0.000 A 
ATOM     24  C   UNL     1       0.187  15.901  22.767  0.00  0.00    +0.000 A 
ATOM     25  S   UNL     1       0.227  14.502  21.792  0.00  0.00    +0.000 S 
ENDBRANCH  19  21
ENDBRANCH  10  19
TORSDOF 4
ENDMDL
MODEL 8
REMARK VINA RESULT:      -6.3      5.384      8.636
REMARK  Name = 
REMARK  4 active torsions:
REMARK  status: ('A' for Active; 'I' for Inactive)
REMARK    1  A    between atoms: C_2  and  C_3
REMARK    2  A    between atoms: C_6  and  N_7
REMARK    3  A    between atoms: N_16  and  C_17
REMARK    4  A    between atoms: C_17  and  C_19
REMARK                            x       y       z     vdW  Elec       q    Type
REMARK                         _______ _______ _______ _____ _____    ______ ____
ROOT
ATOM      1  N   UNL     1      -0.238  13.083  19.442  0.00  0.00    +0.000 N 
ATOM      2  C   UNL     1       0.146  14.243  18.622  0.00  0.00    +0.000 C 
ATOM      3  C   UNL     1       1.470  14.618  19.206  0.00  0.00    +0.000 A 
ATOM      4  C   UNL     1       2.333  15.620  18.785  0.00  0.00    +0.000 A 
ATOM      5  C   UNL     1       3.577  15.722  19.411  0.00  0.00    +0.000 A 
ATOM      6  C   UNL     1       3.936  14.836  20.442  0.00  0.00    +0.000 A 
ATOM      7  C   UNL     1       3.058  13.829  20.864  0.00  0.00    +0.000 A 
ATOM      8  C   UNL     1       1.827  13.746  20.237  0.00  0.00    +0.000 A 
ATOM      9  C   UNL     1       0.776  12.693  20.329  0.00  0.00    +0.000 C 
ATOM     10  N   UNL     1       1.030  11.654  21.057  0.00  0.00    +0.000 NA
ENDROOT
BRANCH   1  14
ATOM     11  C   UNL     1      -4.167  11.740  18.686  0.00  0.00    +0.000 A 
ATOM     12  C   UNL     1      -3.881  12.426  19.865  0.00  0.00    +0.000 A 
ATOM     13  C   UNL     1      -2.568  12.813  20.146  0.00  0.00    +0.000 A 
ATOM     14  C   UNL     1      -1.515  12.533  19.257  0.00  0.00    +0.000 A 
ATOM     15  C   UNL     1      -1.812  11.731  18.145  0.00  0.00    +0.000 A 
ATOM     16  C   UNL     1      -3.126  11.369  17.837  0.00  0.00    +0.000 A 
BRANCH  11  18
ATOM     17  N   UNL     1      -6.621  11.178  18.074  0.00  0.00    +0.000 NA
ATOM     18  C   UNL     1      -5.519  11.433  18.346  0.00  0.00    +0.000 C 
ENDBRANCH  11  18
ENDBRANCH   1  14
BRANCH  10  19
ATOM     19  C   UNL     1       0.387  10.473  20.764  0.00  0.00    +0.000 C 
ATOM     20  O   UNL     1      -0.716  10.183  21.218  0.00  0.00    +0.000 OA
BRANCH  19  21
ATOM     21  C   UNL     1       1.071   9.668  19.748  0.00  0.00    +0.000 A 
ATOM     22  C   UNL     1       1.297   9.882  18.398  0.00  0.00    +0.000 A 
ATOM     23  C   UNL     1       1.916   8.762  17.758  0.00  0.00    +0.000 A 
ATOM     24  C   UNL     1       2.186   7.743  18.643  0.00  0.00    +0.000 A 
ATOM     25  S   UNL     1       1.726   8.148  20.234  0.00  0.00    +0.000 S 
ENDBRANCH  19  21
ENDBRANCH  10  19
TORSDOF 4
ENDMDL
MODEL 9
REMARK VINA RESULT:      -6.3      9.023     11.203
REMARK  Name = 
REMARK  4 active torsions:
REMARK  status: ('A' for Active; 'I' for Inactive)
REMARK    1  A    between atoms: C_2  and  C_3
REMARK    2  A    between atoms: C_6  and  N_7
REMARK    3  A    between atoms: N_16  and  C_17
REMARK    4  A    between atoms: C_17  and  C_19
REMARK                            x       y       z     vdW  Elec       q    Type
REMARK                         _______ _______ _______ _____ _____    ______ ____
ROOT
ATOM      1  N   UNL     1      -3.089  12.710  20.252  0.00  0.00    +0.000 N 
ATOM      2  C   UNL     1      -1.876  12.277  19.539  0.00  0.00    +0.000 C 
ATOM      3  C   UNL     1      -2.443  11.520  18.381  0.00  0.00    +0.000 A 
ATOM      4  C   UNL     1      -1.754  10.929  17.331  0.00  0.00    +0.000 A 
ATOM      5  C   UNL     1      -2.497  10.367  16.292  0.00  0.00    +0.000 A 
ATOM      6  C   UNL     1      -3.903  10.398  16.315  0.00  0.00    +0.000 A 
ATOM      7  C   UNL     1      -4.590  10.995  17.380  0.00  0.00    +0.000 A 
ATOM      8  C   UNL     1      -3.840  11.541  18.406  0.00  0.00    +0.000 A 
ATOM      9  C   UNL     1      -4.263  12.390  19.555  0.00  0.00    +0.000 C 
ATOM     10  N   UNL     1      -5.508  12.736  19.617  0.00  0.00    +0.000 NA
ENDROOT
BRANCH   1  14
ATOM     11  C   UNL     1      -2.271  14.535  23.968  0.00  0.00    +0.000 A 
ATOM     12  C   UNL     1      -2.788  13.241  23.927  0.00  0.00    +0.000 A 
ATOM     13  C   UNL     1      -3.120  12.662  22.699  0.00  0.00    +0.000 A 
ATOM     14  C   UNL     1      -2.938  13.353  21.488  0.00  0.00    +0.000 A 
ATOM     15  C   UNL     1      -2.540  14.696  21.571  0.00  0.00    +0.000 A 
ATOM     16  C   UNL     1      -2.172  15.273  22.789  0.00  0.00    +0.000 A 
BRANCH  11  18
ATOM     17  N   UNL     1      -1.485  15.554  26.216  0.00  0.00    +0.000 NA
ATOM     18  C   UNL     1      -1.835  15.094  25.207  0.00  0.00    +0.000 C 
ENDBRANCH  11  18
ENDBRANCH   1  14
BRANCH  10  19
ATOM     19  C   UNL     1      -5.837  13.891  20.289  0.00  0.00    +0.000 C 
ATOM     20  O   UNL     1      -5.722  15.007  19.793  0.00  0.00    +0.000 OA
BRANCH  19  21
ATOM     21  C   UNL     1      -6.476  13.654  21.587  0.00  0.00    +0.000 A 
ATOM     22  C   UNL     1      -6.388  14.325  22.795  0.00  0.00    +0.000 A 
ATOM     23  C   UNL     1      -7.108  13.668  23.845  0.00  0.00    +0.000 A 
ATOM     24  C   UNL     1      -7.760  12.541  23.399  0.00  0.00    +0.000 A 
ATOM     25  S   UNL     1      -7.533  12.297  21.726  0.00  0.00    +0.000 S 
ENDBRANCH  19  21
ENDBRANCH  10  19
TORSDOF 4
ENDMDL
