MODEL 1
REMARK VINA RESULT:      -7.1      0.000      0.000
REMARK  Name = 
REMARK  4 active torsions:
REMARK  status: ('A' for Active; 'I' for Inactive)
REMARK    1  A    between atoms: N_4  and  N_5
REMARK    2  A    between atoms: C_6  and  C_7
REMARK    3  A    between atoms: C_10  and  O_11
REMARK    4  A    between atoms: O_11  and  C_12
REMARK                            x       y       z     vdW  Elec       q    Type
REMARK                         _______ _______ _______ _____ _____    ______ ____
ROOT
ATOM      1  C   UNL     1       2.251   6.703  19.851  0.00  0.00    +0.000 A 
ATOM      2  C   UNL     1       2.523   7.123  18.543  0.00  0.00    +0.000 A 
ATOM      3  C   UNL     1       2.061   8.362  18.101  0.00  0.00    +0.000 A 
ATOM      4  C   UNL     1       1.329   9.181  18.960  0.00  0.00    +0.000 A 
ATOM      5  C   UNL     1       1.117   8.786  20.286  0.00  0.00    +0.000 A 
ATOM      6  C   UNL     1       1.551   7.534  20.726  0.00  0.00    +0.000 A 
ENDROOT
BRANCH   1   8
ATOM      7  N   UNL     1       2.870   4.416  19.464  0.00  0.00    +0.000 NA
ATOM      8  C   UNL     1       2.705   5.377  20.311  0.00  0.00    +0.000 C 
BRANCH   7  12
ATOM      9  N   UNL     1       5.294   3.560  18.942  0.00  0.00    +0.000 N 
ATOM     10  C   UNL     1       4.557   2.764  19.762  0.00  0.00    +0.000 C 
ATOM     11  O   UNL     1       4.992   1.731  20.246  0.00  0.00    +0.000 OA
ATOM     12  N   UNL     1       3.282   3.228  19.986  0.00  0.00    +0.000 N 
ATOM     13  H   UNL     1       6.282   3.383  18.857  0.00  0.00    +0.000 HD
ATOM     14  H   UNL     1       4.921   4.487  18.804  0.00  0.00    +0.000 HD
ATOM     15  H   UNL     1       2.684   2.669  20.581  0.00  0.00    +0.000 HD
ENDBRANCH   7  12
ENDBRANCH   1   8
BRANCH   4  16
ATOM     16  O   UNL     1       0.915  10.380  18.428  0.00  0.00    +0.000 OA
BRANCH  16  17
ATOM     17  C   UNL     1      -0.426  10.688  18.381  0.00  0.00    +0.000 A 
ATOM     18  C   UNL     1      -1.197   9.890  17.532  0.00  0.00    +0.000 A 
ATOM     19  C   UNL     1      -2.567  10.124  17.399  0.00  0.00    +0.000 A 
ATOM     20  C   UNL     1      -3.163  11.160  18.118  0.00  0.00    +0.000 A 
ATOM     21  I   UNL     1      -5.192  11.545  17.889  0.00  0.00    +0.000 I 
ATOM     22  C   UNL     1      -2.407  11.935  18.997  0.00  0.00    +0.000 A 
ATOM     23  C   UNL     1      -1.043  11.678  19.150  0.00  0.00    +0.000 A 
ENDBRANCH  16  17
ENDBRANCH   4  16
TORSDOF 4
ENDMDL
MODEL 2
REMARK VINA RESULT:      -7.0      0.107      1.088
REMARK  Name = 
REMARK  4 active torsions:
REMARK  status: ('A' for Active; 'I' for Inactive)
REMARK    1  A    between atoms: N_4  and  N_5
REMARK    2  A    between atoms: C_6  and  C_7
REMARK    3  A    between atoms: C_10  and  O_11
REMARK    4  A    between atoms: O_11  and  C_12
REMARK                            x       y       z     vdW  Elec       q    Type
REMARK                         _______ _______ _______ _____ _____    ______ ____
ROOT
ATOM      1  C   UNL     1       2.236   6.679  19.795  0.00  0.00    +0.000 A 
ATOM      2  C   UNL     1       1.538   7.551  20.638  0.00  0.00    +0.000 A 
ATOM      3  C   UNL     1       1.148   8.806  20.171  0.00  0.00    +0.000 A 
ATOM      4  C   UNL     1       1.454   9.191  18.866  0.00  0.00    +0.000 A 
ATOM      5  C   UNL     1       2.094   8.290  18.006  0.00  0.00    +0.000 A 
ATOM      6  C   UNL     1       2.513   7.043  18.477  0.00  0.00    +0.000 A 
ENDROOT
BRANCH   1   8
ATOM      7  N   UNL     1       2.904   4.395  19.472  0.00  0.00    +0.000 NA
ATOM      8  C   UNL     1       2.683   5.366  20.296  0.00  0.00    +0.000 C 
BRANCH   7  12
ATOM      9  N   UNL     1       5.321   3.503  18.984  0.00  0.00    +0.000 N 
ATOM     10  C   UNL     1       4.575   2.739  19.825  0.00  0.00    +0.000 C 
ATOM     11  O   UNL     1       5.000   1.717  20.342  0.00  0.00    +0.000 OA
ATOM     12  N   UNL     1       3.304   3.220  20.031  0.00  0.00    +0.000 N 
ATOM     13  H   UNL     1       6.308   3.314  18.907  0.00  0.00    +0.000 HD
ATOM     14  H   UNL     1       4.957   4.429  18.817  0.00  0.00    +0.000 HD
ATOM     15  H   UNL     1       2.699   2.685  20.641  0.00  0.00    +0.000 HD
ENDBRANCH   7  12
ENDBRANCH   1   8
BRANCH   4  16
ATOM     16  O   UNL     1       1.031  10.448  18.502  0.00  0.00    +0.000 OA
BRANCH  16  17
ATOM     17  C   UNL     1      -0.313  10.730  18.432  0.00  0.00    +0.000 A 
ATOM     18  C   UNL     1      -1.054   9.919  17.569  0.00  0.00    +0.000 A 
ATOM     19  C   UNL     1      -2.425  10.126  17.412  0.00  0.00    +0.000 A 
ATOM     20  C   UNL     1      -3.055  11.149  18.121  0.00  0.00    +0.000 A 
ATOM     21  I   UNL     1      -5.086  11.495  17.856  0.00  0.00    +0.000 I 
ATOM     22  C   UNL     1      -2.330  11.938  19.013  0.00  0.00    +0.000 A 
ATOM     23  C   UNL     1      -0.964  11.707  19.191  0.00  0.00    +0.000 A 
ENDBRANCH  16  17
ENDBRANCH   4  16
TORSDOF 4
ENDMDL
MODEL 3
REMARK VINA RESULT:      -7.0      0.079      1.532
REMARK  Name = 
REMARK  4 active torsions:
REMARK  status: ('A' for Active; 'I' for Inactive)
REMARK    1  A    between atoms: N_4  and  N_5
REMARK    2  A    between atoms: C_6  and  C_7
REMARK    3  A    between atoms: C_10  and  O_11
REMARK    4  A    between atoms: O_11  and  C_12
REMARK                            x       y       z     vdW  Elec       q    Type
REMARK                         _______ _______ _______ _____ _____    ______ ____
ROOT
ATOM      1  C   UNL     1       2.248   6.682  19.872  0.00  0.00    +0.000 A 
ATOM      2  C   UNL     1       1.514   7.525  20.715  0.00  0.00    +0.000 A 
ATOM      3  C   UNL     1       1.087   8.770  20.254  0.00  0.00    +0.000 A 
ATOM      4  C   UNL     1       1.390   9.174  18.954  0.00  0.00    +0.000 A 
ATOM      5  C   UNL     1       2.065   8.300  18.092  0.00  0.00    +0.000 A 
ATOM      6  C   UNL     1       2.521   7.065  18.558  0.00  0.00    +0.000 A 
ENDROOT
BRANCH   1   8
ATOM      7  N   UNL     1       2.870   4.385  19.556  0.00  0.00    +0.000 NA
ATOM      8  C   UNL     1       2.734   5.381  20.368  0.00  0.00    +0.000 C 
BRANCH   7  12
ATOM      9  N   UNL     1       5.245   3.484  18.901  0.00  0.00    +0.000 N 
ATOM     10  C   UNL     1       4.569   2.739  19.816  0.00  0.00    +0.000 C 
ATOM     11  O   UNL     1       5.036   1.730  20.322  0.00  0.00    +0.000 OA
ATOM     12  N   UNL     1       3.317   3.224  20.109  0.00  0.00    +0.000 N 
ATOM     13  H   UNL     1       6.223   3.294  18.751  0.00  0.00    +0.000 HD
ATOM     14  H   UNL     1       4.866   4.405  18.741  0.00  0.00    +0.000 HD
ATOM     15  H   UNL     1       2.763   2.703  20.778  0.00  0.00    +0.000 HD
ENDBRANCH   7  12
ENDBRANCH   1   8
BRANCH   4  16
ATOM     16  O   UNL     1       0.928  10.419  18.595  0.00  0.00    +0.000 OA
BRANCH  16  17
ATOM     17  C   UNL     1      -0.416  10.621  18.381  0.00  0.00    +0.000 A 
ATOM     18  C   UNL     1      -0.986  11.679  19.093  0.00  0.00    +0.000 A 
ATOM     19  C   UNL     1      -2.346  11.965  18.961  0.00  0.00    +0.000 A 
ATOM     20  C   UNL     1      -3.135  11.187  18.113  0.00  0.00    +0.000 A 
ATOM     21  I   UNL     1      -5.169  11.576  17.947  0.00  0.00    +0.000 I 
ATOM     22  C   UNL     1      -2.566  10.155  17.370  0.00  0.00    +0.000 A 
ATOM     23  C   UNL     1      -1.198   9.892  17.482  0.00  0.00    +0.000 A 
ENDBRANCH  16  17
ENDBRANCH   4  16
TORSDOF 4
ENDMDL
MODEL 4
REMARK VINA RESULT:      -6.9      4.319      5.581
REMARK  Name = 
REMARK  4 active torsions:
REMARK  status: ('A' for Active; 'I' for Inactive)
REMARK    1  A    between atoms: N_4  and  N_5
REMARK    2  A    between atoms: C_6  and  C_7
REMARK    3  A    between atoms: C_10  and  O_11
REMARK    4  A    between atoms: O_11  and  C_12
REMARK                            x       y       z     vdW  Elec       q    Type
REMARK                         _______ _______ _______ _____ _____    ______ ____
ROOT
ATOM      1  C   UNL     1       5.158   4.447  16.596  0.00  0.00    +0.000 A 
ATOM      2  C   UNL     1       3.841   4.042  16.846  0.00  0.00    +0.000 A 
ATOM      3  C   UNL     1       3.108   4.649  17.863  0.00  0.00    +0.000 A 
ATOM      4  C   UNL     1       3.686   5.660  18.632  0.00  0.00    +0.000 A 
ATOM      5  C   UNL     1       4.979   6.109  18.334  0.00  0.00    +0.000 A 
ATOM      6  C   UNL     1       5.728   5.483  17.336  0.00  0.00    +0.000 A 
ENDROOT
BRANCH   1   8
ATOM      7  N   UNL     1       5.727   4.041  14.299  0.00  0.00    +0.000 NA
ATOM      8  C   UNL     1       5.950   3.781  15.545  0.00  0.00    +0.000 C 
BRANCH   7  12
ATOM      9  N   UNL     1       4.698   3.328  11.994  0.00  0.00    +0.000 N 
ATOM     10  C   UNL     1       6.008   3.010  12.173  0.00  0.00    +0.000 C 
ATOM     11  O   UNL     1       6.675   2.451  11.316  0.00  0.00    +0.000 OA
ATOM     12  N   UNL     1       6.503   3.369  13.404  0.00  0.00    +0.000 N 
ATOM     13  H   UNL     1       4.304   3.248  11.071  0.00  0.00    +0.000 HD
ATOM     14  H   UNL     1       4.328   3.989  12.660  0.00  0.00    +0.000 HD
ATOM     15  H   UNL     1       7.472   3.147  13.597  0.00  0.00    +0.000 HD
ENDBRANCH   7  12
ENDBRANCH   1   8
BRANCH   4  16
ATOM     16  O   UNL     1       2.883   6.193  19.613  0.00  0.00    +0.000 OA
BRANCH  16  17
ATOM     17  C   UNL     1       2.230   7.385  19.399  0.00  0.00    +0.000 A 
ATOM     18  C   UNL     1       1.614   7.944  20.522  0.00  0.00    +0.000 A 
ATOM     19  C   UNL     1       0.913   9.146  20.415  0.00  0.00    +0.000 A 
ATOM     20  C   UNL     1       0.828   9.788  19.179  0.00  0.00    +0.000 A 
ATOM     21  I   UNL     1      -0.255  11.551  19.001  0.00  0.00    +0.000 I 
ATOM     22  C   UNL     1       1.472   9.256  18.063  0.00  0.00    +0.000 A 
ATOM     23  C   UNL     1       2.199   8.069  18.181  0.00  0.00    +0.000 A 
ENDBRANCH  16  17
ENDBRANCH   4  16
TORSDOF 4
ENDMDL
MODEL 5
REMARK VINA RESULT:      -6.8      7.150      8.769
REMARK  Name = 
REMARK  4 active torsions:
REMARK  status: ('A' for Active; 'I' for Inactive)
REMARK    1  A    between atoms: N_4  and  N_5
REMARK    2  A    between atoms: C_6  and  C_7
REMARK    3  A    between atoms: C_10  and  O_11
REMARK    4  A    between atoms: O_11  and  C_12
REMARK                            x       y       z     vdW  Elec       q    Type
REMARK                         _______ _______ _______ _____ _____    ______ ____
ROOT
ATOM      1  C   UNL     1       8.068   8.167  18.094  0.00  0.00    +0.000 A 
ATOM      2  C   UNL     1       7.220   7.853  17.025  0.00  0.00    +0.000 A 
ATOM      3  C   UNL     1       6.760   6.547  16.861  0.00  0.00    +0.000 A 
ATOM      4  C   UNL     1       7.145   5.554  17.763  0.00  0.00    +0.000 A 
ATOM      5  C   UNL     1       7.937   5.887  18.868  0.00  0.00    +0.000 A 
ATOM      6  C   UNL     1       8.425   7.186  19.020  0.00  0.00    +0.000 A 
ENDROOT
BRANCH   1   8
ATOM      7  N   UNL     1       9.187   9.888  19.338  0.00  0.00    +0.000 NA
ATOM      8  C   UNL     1       8.586   9.538  18.248  0.00  0.00    +0.000 C 
BRANCH   7  12
ATOM      9  N   UNL     1       9.374  11.085  21.664  0.00  0.00    +0.000 N 
ATOM     10  C   UNL     1       9.765  11.825  20.593  0.00  0.00    +0.000 C 
ATOM     11  O   UNL     1      10.198  12.963  20.698  0.00  0.00    +0.000 OA
ATOM     12  N   UNL     1       9.622  11.177  19.389  0.00  0.00    +0.000 N 
ATOM     13  H   UNL     1       9.596  11.418  22.588  0.00  0.00    +0.000 HD
ATOM     14  H   UNL     1       9.268  10.099  21.482  0.00  0.00    +0.000 HD
ATOM     15  H   UNL     1       9.889  11.685  18.555  0.00  0.00    +0.000 HD
ENDBRANCH   7  12
ENDBRANCH   1   8
BRANCH   4  16
ATOM     16  O   UNL     1       6.642   4.298  17.514  0.00  0.00    +0.000 OA
BRANCH  16  17
ATOM     17  C   UNL     1       5.330   4.009  17.809  0.00  0.00    +0.000 A 
ATOM     18  C   UNL     1       5.010   3.987  19.169  0.00  0.00    +0.000 A 
ATOM     19  C   UNL     1       3.710   3.691  19.581  0.00  0.00    +0.000 A 
ATOM     20  C   UNL     1       2.729   3.417  18.628  0.00  0.00    +0.000 A 
ATOM     21  I   UNL     1       0.803   2.929  19.235  0.00  0.00    +0.000 I 
ATOM     22  C   UNL     1       3.031   3.476  17.268  0.00  0.00    +0.000 A 
ATOM     23  C   UNL     1       4.326   3.802  16.859  0.00  0.00    +0.000 A 
ENDBRANCH  16  17
ENDBRANCH   4  16
TORSDOF 4
ENDMDL
MODEL 6
REMARK VINA RESULT:      -6.8      4.316      5.577
REMARK  Name = 
REMARK  4 active torsions:
REMARK  status: ('A' for Active; 'I' for Inactive)
REMARK    1  A    between atoms: N_4  and  N_5
REMARK    2  A    between atoms: C_6  and  C_7
REMARK    3  A    between atoms: C_10  and  O_11
REMARK    4  A    between atoms: O_11  and  C_12
REMARK                            x       y       z     vdW  Elec       q    Type
REMARK                         _______ _______ _______ _____ _____    ______ ____
ROOT
ATOM      1  C   UNL     1       5.223   4.522  16.664  0.00  0.00    +0.000 A 
ATOM      2  C   UNL     1       5.696   5.542  17.499  0.00  0.00    +0.000 A 
ATOM      3  C   UNL     1       4.867   6.077  18.483  0.00  0.00    +0.000 A 
ATOM      4  C   UNL     1       3.566   5.596  18.637  0.00  0.00    +0.000 A 
ATOM      5  C   UNL     1       3.120   4.530  17.845  0.00  0.00    +0.000 A 
ATOM      6  C   UNL     1       3.936   4.012  16.838  0.00  0.00    +0.000 A 
ENDROOT
BRANCH   1   8
ATOM      7  N   UNL     1       5.657   3.932  14.378  0.00  0.00    +0.000 NA
ATOM      8  C   UNL     1       6.084   3.981  15.597  0.00  0.00    +0.000 C 
BRANCH   7  12
ATOM      9  N   UNL     1       4.776   3.314  11.986  0.00  0.00    +0.000 N 
ATOM     10  C   UNL     1       6.103   3.103  12.193  0.00  0.00    +0.000 C 
ATOM     11  O   UNL     1       6.848   2.677  11.323  0.00  0.00    +0.000 OA
ATOM     12  N   UNL     1       6.522   3.407  13.466  0.00  0.00    +0.000 N 
ATOM     13  H   UNL     1       4.421   3.273  11.045  0.00  0.00    +0.000 HD
ATOM     14  H   UNL     1       4.324   3.884  12.685  0.00  0.00    +0.000 HD
ATOM     15  H   UNL     1       7.500   3.259  13.680  0.00  0.00    +0.000 HD
ENDBRANCH   7  12
ENDBRANCH   1   8
BRANCH   4  16
ATOM     16  O   UNL     1       2.826   6.190  19.632  0.00  0.00    +0.000 OA
BRANCH  16  17
ATOM     17  C   UNL     1       2.210   7.400  19.405  0.00  0.00    +0.000 A 
ATOM     18  C   UNL     1       1.575   7.968  20.512  0.00  0.00    +0.000 A 
ATOM     19  C   UNL     1       0.908   9.188  20.391  0.00  0.00    +0.000 A 
ATOM     20  C   UNL     1       0.877   9.839  19.157  0.00  0.00    +0.000 A 
ATOM     21  I   UNL     1      -0.154  11.630  18.957  0.00  0.00    +0.000 I 
ATOM     22  C   UNL     1       1.542   9.297  18.058  0.00  0.00    +0.000 A 
ATOM     23  C   UNL     1       2.234   8.091  18.191  0.00  0.00    +0.000 A 
ENDBRANCH  16  17
ENDBRANCH   4  16
TORSDOF 4
ENDMDL
MODEL 7
REMARK VINA RESULT:      -6.8      0.960      1.060
REMARK  Name = 
REMARK  4 active torsions:
REMARK  status: ('A' for Active; 'I' for Inactive)
REMARK    1  A    between atoms: N_4  and  N_5
REMARK    2  A    between atoms: C_6  and  C_7
REMARK    3  A    between atoms: C_10  and  O_11
REMARK    4  A    between atoms: O_11  and  C_12
REMARK                            x       y       z     vdW  Elec       q    Type
REMARK                         _______ _______ _______ _____ _____    ______ ____
ROOT
ATOM      1  C   UNL     1       2.396   6.757  19.432  0.00  0.00    +0.000 A 
ATOM      2  C   UNL     1       2.586   7.343  18.174  0.00  0.00    +0.000 A 
ATOM      3  C   UNL     1       2.079   8.616  17.917  0.00  0.00    +0.000 A 
ATOM      4  C   UNL     1       1.384   9.305  18.911  0.00  0.00    +0.000 A 
ATOM      5  C   UNL     1       1.255   8.743  20.187  0.00  0.00    +0.000 A 
ATOM      6  C   UNL     1       1.734   7.457  20.442  0.00  0.00    +0.000 A 
ENDROOT
BRANCH   1   8
ATOM      7  N   UNL     1       3.399   4.690  18.738  0.00  0.00    +0.000 NA
ATOM      8  C   UNL     1       2.898   5.396  19.697  0.00  0.00    +0.000 C 
BRANCH   7  12
ATOM      9  N   UNL     1       2.394   2.608  17.500  0.00  0.00    +0.000 N 
ATOM     10  C   UNL     1       3.347   2.331  18.429  0.00  0.00    +0.000 C 
ATOM     11  O   UNL     1       3.733   1.196  18.662  0.00  0.00    +0.000 OA
ATOM     12  N   UNL     1       3.827   3.443  19.079  0.00  0.00    +0.000 N 
ATOM     13  H   UNL     1       2.108   1.877  16.868  0.00  0.00    +0.000 HD
ATOM     14  H   UNL     1       2.334   3.578  17.229  0.00  0.00    +0.000 HD
ATOM     15  H   UNL     1       4.533   3.295  19.790  0.00  0.00    +0.000 HD
ENDBRANCH   7  12
ENDBRANCH   1   8
BRANCH   4  16
ATOM     16  O   UNL     1       0.920  10.551  18.557  0.00  0.00    +0.000 OA
BRANCH  16  17
ATOM     17  C   UNL     1      -0.433  10.791  18.494  0.00  0.00    +0.000 A 
ATOM     18  C   UNL     1      -1.148   9.976  17.613  0.00  0.00    +0.000 A 
ATOM     19  C   UNL     1      -2.526  10.142  17.461  0.00  0.00    +0.000 A 
ATOM     20  C   UNL     1      -3.187  11.129  18.193  0.00  0.00    +0.000 A 
ATOM     21  I   UNL     1      -5.228  11.415  17.937  0.00  0.00    +0.000 I 
ATOM     22  C   UNL     1      -2.486  11.920  19.103  0.00  0.00    +0.000 A 
ATOM     23  C   UNL     1      -1.113  11.729  19.275  0.00  0.00    +0.000 A 
ENDBRANCH  16  17
ENDBRANCH   4  16
TORSDOF 4
ENDMDL
MODEL 8
REMARK VINA RESULT:      -6.8      7.220      8.729
REMARK  Name = 
REMARK  4 active torsions:
REMARK  status: ('A' for Active; 'I' for Inactive)
REMARK    1  A    between atoms: N_4  and  N_5
REMARK    2  A    between atoms: C_6  and  C_7
REMARK    3  A    between atoms: C_10  and  O_11
REMARK    4  A    between atoms: O_11  and  C_12
REMARK                            x       y       z     vdW  Elec       q    Type
REMARK                         _______ _______ _______ _____ _____    ______ ____
ROOT
ATOM      1  C   UNL     1       8.014   8.216  18.116  0.00  0.00    +0.000 A 
ATOM      2  C   UNL     1       7.130   7.942  17.066  0.00  0.00    +0.000 A 
ATOM      3  C   UNL     1       6.668   6.642  16.868  0.00  0.00    +0.000 A 
ATOM      4  C   UNL     1       7.085   5.616  17.716  0.00  0.00    +0.000 A 
ATOM      5  C   UNL     1       7.916   5.907  18.805  0.00  0.00    +0.000 A 
ATOM      6  C   UNL     1       8.406   7.201  18.990  0.00  0.00    +0.000 A 
ENDROOT
BRANCH   1   8
ATOM      7  N   UNL     1       9.309   9.850  19.306  0.00  0.00    +0.000 NA
ATOM      8  C   UNL     1       8.536   9.582  18.306  0.00  0.00    +0.000 C 
BRANCH   7  12
ATOM      9  N   UNL     1       9.268  11.043  21.642  0.00  0.00    +0.000 N 
ATOM     10  C   UNL     1       9.756  11.787  20.615  0.00  0.00    +0.000 C 
ATOM     11  O   UNL     1      10.172  12.926  20.763  0.00  0.00    +0.000 OA
ATOM     12  N   UNL     1       9.732  11.141  19.402  0.00  0.00    +0.000 N 
ATOM     13  H   UNL     1       9.399  11.375  22.584  0.00  0.00    +0.000 HD
ATOM     14  H   UNL     1       9.184  10.056  21.449  0.00  0.00    +0.000 HD
ATOM     15  H   UNL     1      10.074  11.653  18.597  0.00  0.00    +0.000 HD
ENDBRANCH   7  12
ENDBRANCH   1   8
BRANCH   4  16
ATOM     16  O   UNL     1       6.577   4.369  17.435  0.00  0.00    +0.000 OA
BRANCH  16  17
ATOM     17  C   UNL     1       5.329   4.013  17.894  0.00  0.00    +0.000 A 
ATOM     18  C   UNL     1       4.376   3.757  16.905  0.00  0.00    +0.000 A 
ATOM     19  C   UNL     1       3.073   3.400  17.259  0.00  0.00    +0.000 A 
ATOM     20  C   UNL     1       2.727   3.302  18.607  0.00  0.00    +0.000 A 
ATOM     21  I   UNL     1       0.779   2.819  19.142  0.00  0.00    +0.000 I 
ATOM     22  C   UNL     1       3.683   3.518  19.598  0.00  0.00    +0.000 A 
ATOM     23  C   UNL     1       4.993   3.844  19.239  0.00  0.00    +0.000 A 
ENDBRANCH  16  17
ENDBRANCH   4  16
TORSDOF 4
ENDMDL
MODEL 9
REMARK VINA RESULT:      -6.8      2.124      2.802
REMARK  Name = 
REMARK  4 active torsions:
REMARK  status: ('A' for Active; 'I' for Inactive)
REMARK    1  A    between atoms: N_4  and  N_5
REMARK    2  A    between atoms: C_6  and  C_7
REMARK    3  A    between atoms: C_10  and  O_11
REMARK    4  A    between atoms: O_11  and  C_12
REMARK                            x       y       z     vdW  Elec       q    Type
REMARK                         _______ _______ _______ _____ _____    ______ ____
ROOT
ATOM      1  C   UNL     1       3.060   7.151  18.277  0.00  0.00    +0.000 A 
ATOM      2  C   UNL     1       2.445   7.085  19.533  0.00  0.00    +0.000 A 
ATOM      3  C   UNL     1       1.632   8.132  19.965  0.00  0.00    +0.000 A 
ATOM      4  C   UNL     1       1.432   9.244  19.146  0.00  0.00    +0.000 A 
ATOM      5  C   UNL     1       1.995   9.275  17.864  0.00  0.00    +0.000 A 
ATOM      6  C   UNL     1       2.834   8.243  17.439  0.00  0.00    +0.000 A 
ENDROOT
BRANCH   1   8
ATOM      7  N   UNL     1       5.216   6.112  18.090  0.00  0.00    +0.000 NA
ATOM      8  C   UNL     1       3.950   6.063  17.832  0.00  0.00    +0.000 C 
BRANCH   7  12
ATOM      9  N   UNL     1       7.406   6.592  16.729  0.00  0.00    +0.000 N 
ATOM     10  C   UNL     1       7.127   5.279  16.943  0.00  0.00    +0.000 C 
ATOM     11  O   UNL     1       7.853   4.378  16.553  0.00  0.00    +0.000 OA
ATOM     12  N   UNL     1       5.957   5.065  17.631  0.00  0.00    +0.000 N 
ATOM     13  H   UNL     1       8.317   6.843  16.380  0.00  0.00    +0.000 HD
ATOM     14  H   UNL     1       6.875   7.236  17.295  0.00  0.00    +0.000 HD
ATOM     15  H   UNL     1       5.693   4.104  17.810  0.00  0.00    +0.000 HD
ENDBRANCH   7  12
ENDBRANCH   1   8
BRANCH   4  16
ATOM     16  O   UNL     1       0.618  10.225  19.664  0.00  0.00    +0.000 OA
BRANCH  16  17
ATOM     17  C   UNL     1      -0.603  10.483  19.086  0.00  0.00    +0.000 A 
ATOM     18  C   UNL     1      -1.316  11.550  19.640  0.00  0.00    +0.000 A 
ATOM     19  C   UNL     1      -2.574  11.891  19.139  0.00  0.00    +0.000 A 
ATOM     20  C   UNL     1      -3.117  11.161  18.081  0.00  0.00    +0.000 A 
ATOM     21  I   UNL     1      -5.008  11.631  17.362  0.00  0.00    +0.000 I 
ATOM     22  C   UNL     1      -2.394  10.121  17.498  0.00  0.00    +0.000 A 
ATOM     23  C   UNL     1      -1.123   9.802  17.983  0.00  0.00    +0.000 A 
ENDBRANCH  16  17
ENDBRANCH   4  16
TORSDOF 4
ENDMDL
