MODEL 1
REMARK VINA RESULT:      -9.1      0.000      0.000
REMARK  Name = 
REMARK  6 active torsions:
REMARK  status: ('A' for Active; 'I' for Inactive)
REMARK    1  A    between atoms: C_1  and  N_2
REMARK    2  A    between atoms: C_4  and  C_5
REMARK    3  A    between atoms: C_8  and  C_9
REMARK    4  A    between atoms: C_9  and  N_10
REMARK    5  A    between atoms: C_12  and  C_13
REMARK    6  A    between atoms: C_13  and  O_15
REMARK                            x       y       z     vdW  Elec       q    Type
REMARK                         _______ _______ _______ _____ _____    ______ ____
ROOT
ATOM      1  N   UNL     1       4.860   3.982  18.470  0.00  0.00    +0.000 N 
ATOM      2  C   UNL     1       4.599   2.572  18.527  0.00  0.00    +0.000 A 
ATOM      3  C   UNL     1       3.449   2.092  19.035  0.00  0.00    +0.000 A 
ATOM      4  C   UNL     1       3.384   2.728  20.386  0.00  0.00    +0.000 A 
ATOM      5  O   UNL     1       3.541   2.136  21.417  0.00  0.00    +0.000 OA
ATOM      6  C   UNL     1       3.174   4.176  20.236  0.00  0.00    +0.000 A 
ATOM      7  C   UNL     1       2.080   4.741  20.889  0.00  0.00    +0.000 A 
ATOM      8  F   UNL     1       1.345   4.025  21.753  0.00  0.00    +0.000 F 
ATOM      9  C   UNL     1       1.656   5.997  20.512  0.00  0.00    +0.000 A 
ATOM     10  C   UNL     1       2.380   6.684  19.530  0.00  0.00    +0.000 A 
ATOM     11  C   UNL     1       3.520   6.105  18.874  0.00  0.00    +0.000 A 
ATOM     12  C   UNL     1       3.918   4.802  19.166  0.00  0.00    +0.000 A 
ENDROOT
BRANCH   3  13
ATOM     13  C   UNL     1       2.236   2.286  18.182  0.00  0.00    +0.000 C 
ATOM     14  O   UNL     1       2.171   2.813  17.087  0.00  0.00    +0.000 OA
BRANCH  13  15
ATOM     15  O   UNL     1       1.194   1.673  18.779  0.00  0.00    +0.000 OA
ATOM     16  H   UNL     1       0.576   2.354  19.106  0.00  0.00    +0.000 HD
ENDBRANCH  13  15
ENDBRANCH   3  13
BRANCH   1  17
ATOM     17  C   UNL     1       5.791   4.405  17.374  0.00  0.00    +0.000 C 
BRANCH  17  21
ATOM     18  C   UNL     1       7.999   8.164  18.073  0.00  0.00    +0.000 A 
ATOM     19  C   UNL     1       8.320   7.006  18.800  0.00  0.00    +0.000 A 
ATOM     20  C   UNL     1       7.640   5.781  18.583  0.00  0.00    +0.000 A 
ATOM     21  C   UNL     1       6.599   5.677  17.646  0.00  0.00    +0.000 A 
ATOM     22  C   UNL     1       6.397   6.796  16.834  0.00  0.00    +0.000 A 
ATOM     23  F   UNL     1       5.550   6.714  15.797  0.00  0.00    +0.000 F 
ATOM     24  C   UNL     1       7.069   8.014  17.038  0.00  0.00    +0.000 A 
BRANCH  18  28
ATOM     25  C   UNL     1       9.025  13.057  18.097  0.00  0.00    +0.000 C 
ATOM     26  N   UNL     1       9.002  11.647  18.413  0.00  0.00    +0.000 N 
ATOM     27  C   UNL     1       8.422  10.639  17.687  0.00  0.00    +0.000 A 
ATOM     28  C   UNL     1       8.578   9.470  18.417  0.00  0.00    +0.000 A 
ATOM     29  C   UNL     1       9.302   9.909  19.558  0.00  0.00    +0.000 A 
ATOM     30  N   UNL     1       9.572  11.219  19.546  0.00  0.00    +0.000 NA
ENDBRANCH  18  28
ENDBRANCH  17  21
ENDBRANCH   1  17
TORSDOF 5
ENDMDL
MODEL 2
REMARK VINA RESULT:      -8.7      4.474      6.602
REMARK  Name = 
REMARK  6 active torsions:
REMARK  status: ('A' for Active; 'I' for Inactive)
REMARK    1  A    between atoms: C_1  and  N_2
REMARK    2  A    between atoms: C_4  and  C_5
REMARK    3  A    between atoms: C_8  and  C_9
REMARK    4  A    between atoms: C_9  and  N_10
REMARK    5  A    between atoms: C_12  and  C_13
REMARK    6  A    between atoms: C_13  and  O_15
REMARK                            x       y       z     vdW  Elec       q    Type
REMARK                         _______ _______ _______ _____ _____    ______ ____
ROOT
ATOM      1  N   UNL     1       3.550   6.350  17.970  0.00  0.00    +0.000 N 
ATOM      2  C   UNL     1       4.960   6.343  17.699  0.00  0.00    +0.000 A 
ATOM      3  C   UNL     1       5.628   5.193  17.501  0.00  0.00    +0.000 A 
ATOM      4  C   UNL     1       5.289   4.390  18.716  0.00  0.00    +0.000 A 
ATOM      5  O   UNL     1       6.063   4.143  19.598  0.00  0.00    +0.000 OA
ATOM      6  C   UNL     1       3.864   4.027  18.680  0.00  0.00    +0.000 A 
ATOM      7  C   UNL     1       3.539   2.675  18.776  0.00  0.00    +0.000 A 
ATOM      8  F   UNL     1       4.477   1.757  19.057  0.00  0.00    +0.000 F 
ATOM      9  C   UNL     1       2.274   2.267  18.413  0.00  0.00    +0.000 A 
ATOM     10  C   UNL     1       1.342   3.236  18.022  0.00  0.00    +0.000 A 
ATOM     11  C   UNL     1       1.676   4.632  17.943  0.00  0.00    +0.000 A 
ATOM     12  C   UNL     1       2.972   5.065  18.213  0.00  0.00    +0.000 A 
ENDROOT
BRANCH   3  13
ATOM     13  C   UNL     1       5.369   4.511  16.195  0.00  0.00    +0.000 C 
ATOM     14  O   UNL     1       4.866   4.985  15.195  0.00  0.00    +0.000 OA
BRANCH  13  15
ATOM     15  O   UNL     1       5.892   3.269  16.253  0.00  0.00    +0.000 OA
ATOM     16  H   UNL     1       6.850   3.325  16.077  0.00  0.00    +0.000 HD
ENDBRANCH  13  15
ENDBRANCH   3  13
BRANCH   1  17
ATOM     17  C   UNL     1       2.835   7.598  17.548  0.00  0.00    +0.000 C 
BRANCH  17  21
ATOM     18  C   UNL     1       0.629   9.857  20.633  0.00  0.00    +0.000 A 
ATOM     19  C   UNL     1       1.132   8.577  20.915  0.00  0.00    +0.000 A 
ATOM     20  C   UNL     1       1.860   7.837  19.949  0.00  0.00    +0.000 A 
ATOM     21  C   UNL     1       2.090   8.343  18.659  0.00  0.00    +0.000 A 
ATOM     22  C   UNL     1       1.711   9.672  18.450  0.00  0.00    +0.000 A 
ATOM     23  F   UNL     1       2.062  10.286  17.310  0.00  0.00    +0.000 F 
ATOM     24  C   UNL     1       0.993  10.416  19.403  0.00  0.00    +0.000 A 
BRANCH  18  28
ATOM     25  C   UNL     1      -3.042  12.710  22.473  0.00  0.00    +0.000 C 
ATOM     26  N   UNL     1      -1.917  11.811  22.353  0.00  0.00    +0.000 N 
ATOM     27  C   UNL     1      -1.195  11.524  21.223  0.00  0.00    +0.000 A 
ATOM     28  C   UNL     1      -0.271  10.550  21.566  0.00  0.00    +0.000 A 
ATOM     29  C   UNL     1      -0.521  10.356  22.952  0.00  0.00    +0.000 A 
ATOM     30  N   UNL     1      -1.502  11.130  23.429  0.00  0.00    +0.000 NA
ENDBRANCH  18  28
ENDBRANCH  17  21
ENDBRANCH   1  17
TORSDOF 5
ENDMDL
MODEL 3
REMARK VINA RESULT:      -8.4      0.997      1.327
REMARK  Name = 
REMARK  6 active torsions:
REMARK  status: ('A' for Active; 'I' for Inactive)
REMARK    1  A    between atoms: C_1  and  N_2
REMARK    2  A    between atoms: C_4  and  C_5
REMARK    3  A    between atoms: C_8  and  C_9
REMARK    4  A    between atoms: C_9  and  N_10
REMARK    5  A    between atoms: C_12  and  C_13
REMARK    6  A    between atoms: C_13  and  O_15
REMARK                            x       y       z     vdW  Elec       q    Type
REMARK                         _______ _______ _______ _____ _____    ______ ____
ROOT
ATOM      1  N   UNL     1       4.979   4.324  18.306  0.00  0.00    +0.000 N 
ATOM      2  C   UNL     1       4.820   2.898  18.263  0.00  0.00    +0.000 A 
ATOM      3  C   UNL     1       3.718   2.302  18.752  0.00  0.00    +0.000 A 
ATOM      4  C   UNL     1       3.636   2.832  20.147  0.00  0.00    +0.000 A 
ATOM      5  O   UNL     1       3.854   2.179  21.129  0.00  0.00    +0.000 OA
ATOM      6  C   UNL     1       3.320   4.267  20.108  0.00  0.00    +0.000 A 
ATOM      7  C   UNL     1       2.202   4.703  20.817  0.00  0.00    +0.000 A 
ATOM      8  F   UNL     1       1.538   3.875  21.637  0.00  0.00    +0.000 F 
ATOM      9  C   UNL     1       1.682   5.949  20.540  0.00  0.00    +0.000 A 
ATOM     10  C   UNL     1       2.336   6.756  19.601  0.00  0.00    +0.000 A 
ATOM     11  C   UNL     1       3.501   6.310  18.886  0.00  0.00    +0.000 A 
ATOM     12  C   UNL     1       3.995   5.022  19.075  0.00  0.00    +0.000 A 
ENDROOT
BRANCH   3  13
ATOM     13  C   UNL     1       2.476   2.469  17.934  0.00  0.00    +0.000 C 
ATOM     14  O   UNL     1       2.352   3.068  16.883  0.00  0.00    +0.000 OA
BRANCH  13  15
ATOM     15  O   UNL     1       1.493   1.739  18.500  0.00  0.00    +0.000 OA
ATOM     16  H   UNL     1       1.722   0.794  18.423  0.00  0.00    +0.000 HD
ENDBRANCH  13  15
ENDBRANCH   3  13
BRANCH   1  17
ATOM     17  C   UNL     1       5.855   4.891  17.230  0.00  0.00    +0.000 C 
BRANCH  17  21
ATOM     18  C   UNL     1       8.078   8.549  18.312  0.00  0.00    +0.000 A 
ATOM     19  C   UNL     1       6.954   8.623  17.472  0.00  0.00    +0.000 A 
ATOM     20  C   UNL     1       6.211   7.467  17.124  0.00  0.00    +0.000 A 
ATOM     21  C   UNL     1       6.580   6.193  17.585  0.00  0.00    +0.000 A 
ATOM     22  C   UNL     1       7.606   6.162  18.534  0.00  0.00    +0.000 A 
ATOM     23  F   UNL     1       7.892   5.010  19.158  0.00  0.00    +0.000 F 
ATOM     24  C   UNL     1       8.346   7.303  18.889  0.00  0.00    +0.000 A 
BRANCH  18  28
ATOM     25  C   UNL     1      10.568  12.830  17.621  0.00  0.00    +0.000 C 
ATOM     26  N   UNL     1      10.029  11.621  18.202  0.00  0.00    +0.000 N 
ATOM     27  C   UNL     1       9.337  10.625  17.563  0.00  0.00    +0.000 A 
ATOM     28  C   UNL     1       8.948   9.713  18.532  0.00  0.00    +0.000 A 
ATOM     29  C   UNL     1       9.500  10.265  19.720  0.00  0.00    +0.000 A 
ATOM     30  N   UNL     1      10.167  11.407  19.517  0.00  0.00    +0.000 NA
ENDBRANCH  18  28
ENDBRANCH  17  21
ENDBRANCH   1  17
TORSDOF 5
ENDMDL
MODEL 4
REMARK VINA RESULT:      -8.1      4.492      6.543
REMARK  Name = 
REMARK  6 active torsions:
REMARK  status: ('A' for Active; 'I' for Inactive)
REMARK    1  A    between atoms: C_1  and  N_2
REMARK    2  A    between atoms: C_4  and  C_5
REMARK    3  A    between atoms: C_8  and  C_9
REMARK    4  A    between atoms: C_9  and  N_10
REMARK    5  A    between atoms: C_12  and  C_13
REMARK    6  A    between atoms: C_13  and  O_15
REMARK                            x       y       z     vdW  Elec       q    Type
REMARK                         _______ _______ _______ _____ _____    ______ ____
ROOT
ATOM      1  N   UNL     1       3.514   6.567  17.901  0.00  0.00    +0.000 N 
ATOM      2  C   UNL     1       4.933   6.722  17.743  0.00  0.00    +0.000 A 
ATOM      3  C   UNL     1       5.749   5.656  17.665  0.00  0.00    +0.000 A 
ATOM      4  C   UNL     1       5.406   4.877  18.894  0.00  0.00    +0.000 A 
ATOM      5  O   UNL     1       6.126   4.770  19.847  0.00  0.00    +0.000 OA
ATOM      6  C   UNL     1       4.043   4.338  18.767  0.00  0.00    +0.000 A 
ATOM      7  C   UNL     1       3.875   2.962  18.916  0.00  0.00    +0.000 A 
ATOM      8  F   UNL     1       4.889   2.183  19.323  0.00  0.00    +0.000 F 
ATOM      9  C   UNL     1       2.704   2.383  18.479  0.00  0.00    +0.000 A 
ATOM     10  C   UNL     1       1.699   3.209  17.960  0.00  0.00    +0.000 A 
ATOM     11  C   UNL     1       1.869   4.631  17.827  0.00  0.00    +0.000 A 
ATOM     12  C   UNL     1       3.076   5.234  18.172  0.00  0.00    +0.000 A 
ENDROOT
BRANCH   3  13
ATOM     13  C   UNL     1       5.686   4.885  16.385  0.00  0.00    +0.000 C 
ATOM     14  O   UNL     1       5.168   5.222  15.337  0.00  0.00    +0.000 OA
BRANCH  13  15
ATOM     15  O   UNL     1       6.407   3.755  16.533  0.00  0.00    +0.000 OA
ATOM     16  H   UNL     1       7.234   3.843  16.023  0.00  0.00    +0.000 HD
ENDBRANCH  13  15
ENDBRANCH   3  13
BRANCH   1  17
ATOM     17  C   UNL     1       2.694   7.695  17.351  0.00  0.00    +0.000 C 
BRANCH  17  21
ATOM     18  C   UNL     1       0.504   9.947  20.454  0.00  0.00    +0.000 A 
ATOM     19  C   UNL     1       0.365  10.287  19.098  0.00  0.00    +0.000 A 
ATOM     20  C   UNL     1       1.042   9.569  18.080  0.00  0.00    +0.000 A 
ATOM     21  C   UNL     1       1.900   8.500  18.384  0.00  0.00    +0.000 A 
ATOM     22  C   UNL     1       1.908   8.086  19.719  0.00  0.00    +0.000 A 
ATOM     23  F   UNL     1       2.556   6.961  20.057  0.00  0.00    +0.000 F 
ATOM     24  C   UNL     1       1.237   8.788  20.736  0.00  0.00    +0.000 A 
BRANCH  18  28
ATOM     25  C   UNL     1      -1.180  13.913  22.990  0.00  0.00    +0.000 C 
ATOM     26  N   UNL     1      -0.808  12.568  22.613  0.00  0.00    +0.000 N 
ATOM     27  C   UNL     1      -0.093  12.179  21.510  0.00  0.00    +0.000 A 
ATOM     28  C   UNL     1      -0.054  10.793  21.518  0.00  0.00    +0.000 A 
ATOM     29  C   UNL     1      -0.762  10.468  22.706  0.00  0.00    +0.000 A 
ATOM     30  N   UNL     1      -1.201  11.540  23.375  0.00  0.00    +0.000 NA
ENDBRANCH  18  28
ENDBRANCH  17  21
ENDBRANCH   1  17
TORSDOF 5
ENDMDL
MODEL 5
REMARK VINA RESULT:      -8.1      1.654      2.650
REMARK  Name = 
REMARK  6 active torsions:
REMARK  status: ('A' for Active; 'I' for Inactive)
REMARK    1  A    between atoms: C_1  and  N_2
REMARK    2  A    between atoms: C_4  and  C_5
REMARK    3  A    between atoms: C_8  and  C_9
REMARK    4  A    between atoms: C_9  and  N_10
REMARK    5  A    between atoms: C_12  and  C_13
REMARK    6  A    between atoms: C_13  and  O_15
REMARK                            x       y       z     vdW  Elec       q    Type
REMARK                         _______ _______ _______ _____ _____    ______ ____
ROOT
ATOM      1  N   UNL     1       4.455   3.918  17.798  0.00  0.00    +0.000 N 
ATOM      2  C   UNL     1       3.720   4.998  17.203  0.00  0.00    +0.000 A 
ATOM      3  C   UNL     1       2.603   5.483  17.774  0.00  0.00    +0.000 A 
ATOM      4  C   UNL     1       1.757   4.263  17.952  0.00  0.00    +0.000 A 
ATOM      5  O   UNL     1       0.768   4.030  17.313  0.00  0.00    +0.000 OA
ATOM      6  C   UNL     1       2.367   3.388  18.964  0.00  0.00    +0.000 A 
ATOM      7  C   UNL     1       1.582   3.015  20.054  0.00  0.00    +0.000 A 
ATOM      8  F   UNL     1       0.272   3.305  20.094  0.00  0.00    +0.000 F 
ATOM      9  C   UNL     1       2.198   2.491  21.170  0.00  0.00    +0.000 A 
ATOM     10  C   UNL     1       3.584   2.294  21.142  0.00  0.00    +0.000 A 
ATOM     11  C   UNL     1       4.387   2.662  20.007  0.00  0.00    +0.000 A 
ATOM     12  C   UNL     1       3.808   3.279  18.901  0.00  0.00    +0.000 A 
ENDROOT
BRANCH   3  13
ATOM     13  C   UNL     1       2.810   6.299  19.010  0.00  0.00    +0.000 C 
ATOM     14  O   UNL     1       2.061   6.410  19.963  0.00  0.00    +0.000 OA
BRANCH  13  15
ATOM     15  O   UNL     1       4.046   6.835  18.964  0.00  0.00    +0.000 OA
ATOM     16  H   UNL     1       4.454   6.604  18.109  0.00  0.00    +0.000 HD
ENDBRANCH  13  15
ENDBRANCH   3  13
BRANCH   1  17
ATOM     17  C   UNL     1       5.918   3.900  17.473  0.00  0.00    +0.000 C 
BRANCH  17  21
ATOM     18  C   UNL     1       7.990   7.755  18.047  0.00  0.00    +0.000 A 
ATOM     19  C   UNL     1       8.046   6.765  19.041  0.00  0.00    +0.000 A 
ATOM     20  C   UNL     1       7.406   5.511  18.875  0.00  0.00    +0.000 A 
ATOM     21  C   UNL     1       6.668   5.213  17.718  0.00  0.00    +0.000 A 
ATOM     22  C   UNL     1       6.748   6.151  16.685  0.00  0.00    +0.000 A 
ATOM     23  F   UNL     1       6.226   5.857  15.485  0.00  0.00    +0.000 F 
ATOM     24  C   UNL     1       7.385   7.395  16.838  0.00  0.00    +0.000 A 
BRANCH  18  28
ATOM     25  C   UNL     1       8.699  12.696  17.753  0.00  0.00    +0.000 C 
ATOM     26  N   UNL     1       8.784  11.308  18.144  0.00  0.00    +0.000 N 
ATOM     27  C   UNL     1       8.231  10.226  17.507  0.00  0.00    +0.000 A 
ATOM     28  C   UNL     1       8.502   9.112  18.287  0.00  0.00    +0.000 A 
ATOM     29  C   UNL     1       9.257   9.658  19.360  0.00  0.00    +0.000 A 
ATOM     30  N   UNL     1       9.442  10.979  19.263  0.00  0.00    +0.000 NA
ENDBRANCH  18  28
ENDBRANCH  17  21
ENDBRANCH   1  17
TORSDOF 5
ENDMDL
MODEL 6
REMARK VINA RESULT:      -8.0      3.888      6.097
REMARK  Name = 
REMARK  6 active torsions:
REMARK  status: ('A' for Active; 'I' for Inactive)
REMARK    1  A    between atoms: C_1  and  N_2
REMARK    2  A    between atoms: C_4  and  C_5
REMARK    3  A    between atoms: C_8  and  C_9
REMARK    4  A    between atoms: C_9  and  N_10
REMARK    5  A    between atoms: C_12  and  C_13
REMARK    6  A    between atoms: C_13  and  O_15
REMARK                            x       y       z     vdW  Elec       q    Type
REMARK                         _______ _______ _______ _____ _____    ______ ____
ROOT
ATOM      1  N   UNL     1       3.525   5.499  18.648  0.00  0.00    +0.000 N 
ATOM      2  C   UNL     1       2.804   4.480  17.940  0.00  0.00    +0.000 A 
ATOM      3  C   UNL     1       3.443   3.469  17.325  0.00  0.00    +0.000 A 
ATOM      4  C   UNL     1       4.424   4.174  16.444  0.00  0.00    +0.000 A 
ATOM      5  O   UNL     1       4.338   4.226  15.248  0.00  0.00    +0.000 OA
ATOM      6  C   UNL     1       5.442   4.834  17.274  0.00  0.00    +0.000 A 
ATOM      7  C   UNL     1       6.778   4.526  17.026  0.00  0.00    +0.000 A 
ATOM      8  F   UNL     1       7.131   3.786  15.963  0.00  0.00    +0.000 F 
ATOM      9  C   UNL     1       7.723   4.848  17.975  0.00  0.00    +0.000 A 
ATOM     10  C   UNL     1       7.313   5.530  19.128  0.00  0.00    +0.000 A 
ATOM     11  C   UNL     1       5.936   5.863  19.371  0.00  0.00    +0.000 A 
ATOM     12  C   UNL     1       4.945   5.470  18.475  0.00  0.00    +0.000 A 
ENDROOT
BRANCH   3  13
ATOM     13  C   UNL     1       4.031   2.431  18.228  0.00  0.00    +0.000 C 
ATOM     14  O   UNL     1       4.205   2.502  19.430  0.00  0.00    +0.000 OA
BRANCH  13  15
ATOM     15  O   UNL     1       4.256   1.315  17.504  0.00  0.00    +0.000 OA
ATOM     16  H   UNL     1       3.761   1.382  16.666  0.00  0.00    +0.000 HD
ENDBRANCH  13  15
ENDBRANCH   3  13
BRANCH   1  17
ATOM     17  C   UNL     1       2.764   6.149  19.763  0.00  0.00    +0.000 C 
BRANCH  17  21
ATOM     18  C   UNL     1       1.151  10.198  19.062  0.00  0.00    +0.000 A 
ATOM     19  C   UNL     1       1.737   9.476  18.010  0.00  0.00    +0.000 A 
ATOM     20  C   UNL     1       2.246   8.166  18.203  0.00  0.00    +0.000 A 
ATOM     21  C   UNL     1       2.207   7.543  19.461  0.00  0.00    +0.000 A 
ATOM     22  C   UNL     1       1.490   8.217  20.453  0.00  0.00    +0.000 A 
ATOM     23  F   UNL     1       1.250   7.607  21.623  0.00  0.00    +0.000 F 
ATOM     24  C   UNL     1       0.978   9.514  20.271  0.00  0.00    +0.000 A 
BRANCH  18  28
ATOM     25  C   UNL     1       1.434  15.177  18.703  0.00  0.00    +0.000 C 
ATOM     26  N   UNL     1       0.942  13.819  18.739  0.00  0.00    +0.000 N 
ATOM     27  C   UNL     1       1.628  12.693  19.115  0.00  0.00    +0.000 A 
ATOM     28  C   UNL     1       0.784  11.613  18.910  0.00  0.00    +0.000 A 
ATOM     29  C   UNL     1      -0.403  12.232  18.431  0.00  0.00    +0.000 A 
ATOM     30  N   UNL     1      -0.312  13.563  18.346  0.00  0.00    +0.000 NA
ENDBRANCH  18  28
ENDBRANCH  17  21
ENDBRANCH   1  17
TORSDOF 5
ENDMDL
MODEL 7
REMARK VINA RESULT:      -8.0      3.853      5.989
REMARK  Name = 
REMARK  6 active torsions:
REMARK  status: ('A' for Active; 'I' for Inactive)
REMARK    1  A    between atoms: C_1  and  N_2
REMARK    2  A    between atoms: C_4  and  C_5
REMARK    3  A    between atoms: C_8  and  C_9
REMARK    4  A    between atoms: C_9  and  N_10
REMARK    5  A    between atoms: C_12  and  C_13
REMARK    6  A    between atoms: C_13  and  O_15
REMARK                            x       y       z     vdW  Elec       q    Type
REMARK                         _______ _______ _______ _____ _____    ______ ____
ROOT
ATOM      1  N   UNL     1       2.791   5.318  19.199  0.00  0.00    +0.000 N 
ATOM      2  C   UNL     1       2.016   4.114  19.097  0.00  0.00    +0.000 A 
ATOM      3  C   UNL     1       2.530   2.996  18.552  0.00  0.00    +0.000 A 
ATOM      4  C   UNL     1       3.015   3.463  17.218  0.00  0.00    +0.000 A 
ATOM      5  O   UNL     1       2.499   3.173  16.174  0.00  0.00    +0.000 OA
ATOM      6  C   UNL     1       4.158   4.369  17.402  0.00  0.00    +0.000 A 
ATOM      7  C   UNL     1       5.345   4.057  16.742  0.00  0.00    +0.000 A 
ATOM      8  F   UNL     1       5.394   3.062  15.842  0.00  0.00    +0.000 F 
ATOM      9  C   UNL     1       6.512   4.669  17.143  0.00  0.00    +0.000 A 
ATOM     10  C   UNL     1       6.451   5.631  18.159  0.00  0.00    +0.000 A 
ATOM     11  C   UNL     1       5.221   5.965  18.824  0.00  0.00    +0.000 A 
ATOM     12  C   UNL     1       4.041   5.297  18.506  0.00  0.00    +0.000 A 
ENDROOT
BRANCH   3  13
ATOM     13  C   UNL     1       3.545   2.279  19.383  0.00  0.00    +0.000 C 
ATOM     14  O   UNL     1       3.817   2.468  20.554  0.00  0.00    +0.000 OA
BRANCH  13  15
ATOM     15  O   UNL     1       4.067   1.277  18.646  0.00  0.00    +0.000 OA
ATOM     16  H   UNL     1       4.021   1.526  17.705  0.00  0.00    +0.000 HD
ENDBRANCH  13  15
ENDBRANCH   3  13
BRANCH   1  17
ATOM     17  C   UNL     1       2.397   6.225  20.326  0.00  0.00    +0.000 C 
BRANCH  17  21
ATOM     18  C   UNL     1       1.062  10.310  19.316  0.00  0.00    +0.000 A 
ATOM     19  C   UNL     1       1.634   9.487  18.333  0.00  0.00    +0.000 A 
ATOM     20  C   UNL     1       2.054   8.164  18.625  0.00  0.00    +0.000 A 
ATOM     21  C   UNL     1       1.938   7.628  19.917  0.00  0.00    +0.000 A 
ATOM     22  C   UNL     1       1.234   8.407  20.840  0.00  0.00    +0.000 A 
ATOM     23  F   UNL     1       0.920   7.890  22.037  0.00  0.00    +0.000 F 
ATOM     24  C   UNL     1       0.809   9.717  20.558  0.00  0.00    +0.000 A 
BRANCH  18  28
ATOM     25  C   UNL     1       1.672  15.220  18.591  0.00  0.00    +0.000 C 
ATOM     26  N   UNL     1       1.091  13.903  18.729  0.00  0.00    +0.000 N 
ATOM     27  C   UNL     1       1.705  12.765  19.183  0.00  0.00    +0.000 A 
ATOM     28  C   UNL     1       0.788  11.732  19.062  0.00  0.00    +0.000 A 
ATOM     29  C   UNL     1      -0.360  12.392  18.547  0.00  0.00    +0.000 A 
ATOM     30  N   UNL     1      -0.181  13.705  18.363  0.00  0.00    +0.000 NA
ENDBRANCH  18  28
ENDBRANCH  17  21
ENDBRANCH   1  17
TORSDOF 5
ENDMDL
MODEL 8
REMARK VINA RESULT:      -7.9      4.754      7.218
REMARK  Name = 
REMARK  6 active torsions:
REMARK  status: ('A' for Active; 'I' for Inactive)
REMARK    1  A    between atoms: C_1  and  N_2
REMARK    2  A    between atoms: C_4  and  C_5
REMARK    3  A    between atoms: C_8  and  C_9
REMARK    4  A    between atoms: C_9  and  N_10
REMARK    5  A    between atoms: C_12  and  C_13
REMARK    6  A    between atoms: C_13  and  O_15
REMARK                            x       y       z     vdW  Elec       q    Type
REMARK                         _______ _______ _______ _____ _____    ______ ____
ROOT
ATOM      1  N   UNL     1       2.201   5.836  19.661  0.00  0.00    +0.000 N 
ATOM      2  C   UNL     1       1.333   5.010  20.452  0.00  0.00    +0.000 A 
ATOM      3  C   UNL     1       1.394   3.668  20.386  0.00  0.00    +0.000 A 
ATOM      4  C   UNL     1       1.248   3.393  18.924  0.00  0.00    +0.000 A 
ATOM      5  O   UNL     1       0.272   2.905  18.425  0.00  0.00    +0.000 OA
ATOM      6  C   UNL     1       2.442   3.874  18.213  0.00  0.00    +0.000 A 
ATOM      7  C   UNL     1       3.133   2.962  17.418  0.00  0.00    +0.000 A 
ATOM      8  F   UNL     1       2.635   1.739  17.178  0.00  0.00    +0.000 F 
ATOM      9  C   UNL     1       4.415   3.267  17.016  0.00  0.00    +0.000 A 
ATOM     10  C   UNL     1       4.952   4.511  17.368  0.00  0.00    +0.000 A 
ATOM     11  C   UNL     1       4.227   5.458  18.172  0.00  0.00    +0.000 A 
ATOM     12  C   UNL     1       2.967   5.142  18.673  0.00  0.00    +0.000 A 
ENDROOT
BRANCH   3  13
ATOM     13  C   UNL     1       2.588   3.042  21.034  0.00  0.00    +0.000 C 
ATOM     14  O   UNL     1       3.601   2.637  20.496  0.00  0.00    +0.000 OA
BRANCH  13  15
ATOM     15  O   UNL     1       2.420   3.089  22.372  0.00  0.00    +0.000 OA
ATOM     16  H   UNL     1       1.712   3.729  22.575  0.00  0.00    +0.000 HD
ENDBRANCH  13  15
ENDBRANCH   3  13
BRANCH   1  17
ATOM     17  C   UNL     1       2.493   7.184  20.248  0.00  0.00    +0.000 C 
BRANCH  17  21
ATOM     18  C   UNL     1      -0.641  10.207  19.517  0.00  0.00    +0.000 A 
ATOM     19  C   UNL     1      -0.449   9.680  20.804  0.00  0.00    +0.000 A 
ATOM     20  C   UNL     1       0.562   8.722  21.071  0.00  0.00    +0.000 A 
ATOM     21  C   UNL     1       1.401   8.241  20.054  0.00  0.00    +0.000 A 
ATOM     22  C   UNL     1       1.292   8.884  18.818  0.00  0.00    +0.000 A 
ATOM     23  F   UNL     1       2.181   8.611  17.851  0.00  0.00    +0.000 F 
ATOM     24  C   UNL     1       0.296   9.839  18.545  0.00  0.00    +0.000 A 
BRANCH  18  28
ATOM     25  C   UNL     1      -4.889  11.924  17.516  0.00  0.00    +0.000 C 
ATOM     26  N   UNL     1      -3.687  11.792  18.308  0.00  0.00    +0.000 N 
ATOM     27  C   UNL     1      -2.700  10.851  18.175  0.00  0.00    +0.000 A 
ATOM     28  C   UNL     1      -1.793  11.063  19.202  0.00  0.00    +0.000 A 
ATOM     29  C   UNL     1      -2.339  12.192  19.872  0.00  0.00    +0.000 A 
ATOM     30  N   UNL     1      -3.472  12.641  19.321  0.00  0.00    +0.000 NA
ENDBRANCH  18  28
ENDBRANCH  17  21
ENDBRANCH   1  17
TORSDOF 5
ENDMDL
MODEL 9
REMARK VINA RESULT:      -7.9      4.590      6.419
REMARK  Name = 
REMARK  6 active torsions:
REMARK  status: ('A' for Active; 'I' for Inactive)
REMARK    1  A    between atoms: C_1  and  N_2
REMARK    2  A    between atoms: C_4  and  C_5
REMARK    3  A    between atoms: C_8  and  C_9
REMARK    4  A    between atoms: C_9  and  N_10
REMARK    5  A    between atoms: C_12  and  C_13
REMARK    6  A    between atoms: C_13  and  O_15
REMARK                            x       y       z     vdW  Elec       q    Type
REMARK                         _______ _______ _______ _____ _____    ______ ____
ROOT
ATOM      1  N   UNL     1       2.939   6.145  18.678  0.00  0.00    +0.000 N 
ATOM      2  C   UNL     1       4.135   5.896  17.925  0.00  0.00    +0.000 A 
ATOM      3  C   UNL     1       4.707   4.679  17.902  0.00  0.00    +0.000 A 
ATOM      4  C   UNL     1       4.884   4.360  19.352  0.00  0.00    +0.000 A 
ATOM      5  O   UNL     1       5.945   4.333  19.911  0.00  0.00    +0.000 OA
ATOM      6  C   UNL     1       3.566   4.163  19.974  0.00  0.00    +0.000 A 
ATOM      7  C   UNL     1       3.340   2.961  20.642  0.00  0.00    +0.000 A 
ATOM      8  F   UNL     1       4.338   2.089  20.854  0.00  0.00    +0.000 F 
ATOM      9  C   UNL     1       2.044   2.597  20.938  0.00  0.00    +0.000 A 
ATOM     10  C   UNL     1       1.007   3.480  20.613  0.00  0.00    +0.000 A 
ATOM     11  C   UNL     1       1.247   4.728  19.941  0.00  0.00    +0.000 A 
ATOM     12  C   UNL     1       2.535   5.082  19.545  0.00  0.00    +0.000 A 
ENDROOT
BRANCH   3  13
ATOM     13  C   UNL     1       3.984   3.639  17.106  0.00  0.00    +0.000 C 
ATOM     14  O   UNL     1       3.024   3.795  16.376  0.00  0.00    +0.000 OA
BRANCH  13  15
ATOM     15  O   UNL     1       4.642   2.469  17.237  0.00  0.00    +0.000 OA
ATOM     16  H   UNL     1       4.481   1.930  16.441  0.00  0.00    +0.000 HD
ENDBRANCH  13  15
ENDBRANCH   3  13
BRANCH   1  17
ATOM     17  C   UNL     1       2.083   7.256  18.149  0.00  0.00    +0.000 C 
BRANCH  17  21
ATOM     18  C   UNL     1       0.512  10.204  21.036  0.00  0.00    +0.000 A 
ATOM     19  C   UNL     1       1.161   9.043  21.489  0.00  0.00    +0.000 A 
ATOM     20  C   UNL     1       1.691   8.090  20.583  0.00  0.00    +0.000 A 
ATOM     21  C   UNL     1       1.570   8.252  19.194  0.00  0.00    +0.000 A 
ATOM     22  C   UNL     1       1.055   9.479  18.766  0.00  0.00    +0.000 A 
ATOM     23  F   UNL     1       1.078   9.785  17.460  0.00  0.00    +0.000 F 
ATOM     24  C   UNL     1       0.531  10.433  19.656  0.00  0.00    +0.000 A 
BRANCH  18  28
ATOM     25  C   UNL     1      -1.407  14.307  23.152  0.00  0.00    +0.000 C 
ATOM     26  N   UNL     1      -1.041  12.937  22.872  0.00  0.00    +0.000 N 
ATOM     27  C   UNL     1      -0.156  12.488  21.927  0.00  0.00    +0.000 A 
ATOM     28  C   UNL     1      -0.189  11.102  21.965  0.00  0.00    +0.000 A 
ATOM     29  C   UNL     1      -1.120  10.840  23.006  0.00  0.00    +0.000 A 
ATOM     30  N   UNL     1      -1.620  11.948  23.564  0.00  0.00    +0.000 NA
ENDBRANCH  18  28
ENDBRANCH  17  21
ENDBRANCH   1  17
TORSDOF 5
ENDMDL
