MODEL 1
REMARK VINA RESULT:      -7.2      0.000      0.000
REMARK  Name = 
REMARK  2 active torsions:
REMARK  status: ('A' for Active; 'I' for Inactive)
REMARK    1  A    between atoms: C_7  and  O_8
REMARK    2  A    between atoms: C_12  and  C_13
REMARK                            x       y       z     vdW  Elec       q    Type
REMARK                         _______ _______ _______ _____ _____    ______ ____
ROOT
ATOM      1  O   UNL     1       6.234   5.615  17.729  0.00  0.00    +0.000 OA
ATOM      2  C   UNL     1       6.315   5.245  16.572  0.00  0.00    +0.000 C 
ATOM      3  O   UNL     1       7.286   5.682  15.665  0.00  0.00    +0.000 OA
ATOM      4  C   UNL     1       7.026   5.014  14.477  0.00  0.00    +0.000 A 
ATOM      5  C   UNL     1       7.775   5.171  13.324  0.00  0.00    +0.000 A 
ATOM      6  C   UNL     1       7.402   4.432  12.195  0.00  0.00    +0.000 A 
ATOM      7  C   UNL     1       6.301   3.565  12.256  0.00  0.00    +0.000 A 
ATOM      8  C   UNL     1       5.556   3.418  13.421  0.00  0.00    +0.000 A 
ATOM      9  C   UNL     1       5.939   4.159  14.522  0.00  0.00    +0.000 A 
ATOM     10  C   UNL     1       5.432   4.271  15.862  0.00  0.00    +0.000 C 
ATOM     11  C   UNL     1       4.366   3.601  16.320  0.00  0.00    +0.000 C 
ENDROOT
BRANCH  11  12
ATOM     12  C   UNL     1       3.841   3.691  17.678  0.00  0.00    +0.000 A 
ATOM     13  C   UNL     1       4.311   2.826  18.672  0.00  0.00    +0.000 A 
ATOM     14  C   UNL     1       3.782   2.894  19.960  0.00  0.00    +0.000 A 
ATOM     15  C   UNL     1       2.790   3.831  20.252  0.00  0.00    +0.000 A 
ATOM     16 CL   UNL     1       2.108   3.887  21.831  0.00  0.00    +0.000 Cl
ATOM     17  C   UNL     1       2.341   4.715  19.274  0.00  0.00    +0.000 A 
ATOM     18  C   UNL     1       2.867   4.646  17.984  0.00  0.00    +0.000 A 
ENDBRANCH  11  12
BRANCH   7  19
ATOM     19  O   UNL     1       5.911   2.829  11.178  0.00  0.00    +0.000 OA
ATOM     20  H   UNL     1       6.236   3.256  10.369  0.00  0.00    +0.000 HD
ENDBRANCH   7  19
TORSDOF 2
ENDMDL
MODEL 2
REMARK VINA RESULT:      -7.1      0.096      1.114
REMARK  Name = 
REMARK  2 active torsions:
REMARK  status: ('A' for Active; 'I' for Inactive)
REMARK    1  A    between atoms: C_7  and  O_8
REMARK    2  A    between atoms: C_12  and  C_13
REMARK                            x       y       z     vdW  Elec       q    Type
REMARK                         _______ _______ _______ _____ _____    ______ ____
ROOT
ATOM      1  O   UNL     1       6.202   5.626  17.714  0.00  0.00    +0.000 OA
ATOM      2  C   UNL     1       6.301   5.261  16.558  0.00  0.00    +0.000 C 
ATOM      3  O   UNL     1       7.295   5.691  15.672  0.00  0.00    +0.000 OA
ATOM      4  C   UNL     1       7.050   5.030  14.476  0.00  0.00    +0.000 A 
ATOM      5  C   UNL     1       7.824   5.184  13.339  0.00  0.00    +0.000 A 
ATOM      6  C   UNL     1       7.465   4.455  12.200  0.00  0.00    +0.000 A 
ATOM      7  C   UNL     1       6.353   3.600  12.235  0.00  0.00    +0.000 A 
ATOM      8  C   UNL     1       5.583   3.456  13.384  0.00  0.00    +0.000 A 
ATOM      9  C   UNL     1       5.953   4.188  14.496  0.00  0.00    +0.000 A 
ATOM     10  C   UNL     1       5.421   4.300  15.826  0.00  0.00    +0.000 C 
ATOM     11  C   UNL     1       4.339   3.640  16.260  0.00  0.00    +0.000 C 
ENDROOT
BRANCH  11  12
ATOM     12  C   UNL     1       3.789   3.731  17.608  0.00  0.00    +0.000 A 
ATOM     13  C   UNL     1       2.863   4.731  17.923  0.00  0.00    +0.000 A 
ATOM     14  C   UNL     1       2.366   4.834  19.222  0.00  0.00    +0.000 A 
ATOM     15  C   UNL     1       2.791   3.934  20.199  0.00  0.00    +0.000 A 
ATOM     16 CL   UNL     1       2.209   4.087  21.811  0.00  0.00    +0.000 Cl
ATOM     17  C   UNL     1       3.690   2.917  19.883  0.00  0.00    +0.000 A 
ATOM     18  C   UNL     1       4.190   2.815  18.585  0.00  0.00    +0.000 A 
ENDBRANCH  11  12
BRANCH   7  19
ATOM     19  O   UNL     1       5.975   2.873  11.146  0.00  0.00    +0.000 OA
ATOM     20  H   UNL     1       6.545   3.109  10.395  0.00  0.00    +0.000 HD
ENDBRANCH   7  19
TORSDOF 2
ENDMDL
MODEL 3
REMARK VINA RESULT:      -7.0      5.055      8.510
REMARK  Name = 
REMARK  2 active torsions:
REMARK  status: ('A' for Active; 'I' for Inactive)
REMARK    1  A    between atoms: C_7  and  O_8
REMARK    2  A    between atoms: C_12  and  C_13
REMARK                            x       y       z     vdW  Elec       q    Type
REMARK                         _______ _______ _______ _____ _____    ______ ____
ROOT
ATOM      1  O   UNL     1       2.192   8.690  17.193  0.00  0.00    +0.000 OA
ATOM      2  C   UNL     1       1.730   8.981  18.280  0.00  0.00    +0.000 C 
ATOM      3  O   UNL     1       1.024  10.157  18.554  0.00  0.00    +0.000 OA
ATOM      4  C   UNL     1       0.672  10.087  19.896  0.00  0.00    +0.000 A 
ATOM      5  C   UNL     1      -0.047  11.067  20.556  0.00  0.00    +0.000 A 
ATOM      6  C   UNL     1      -0.335  10.866  21.911  0.00  0.00    +0.000 A 
ATOM      7  C   UNL     1       0.099   9.699  22.556  0.00  0.00    +0.000 A 
ATOM      8  C   UNL     1       0.822   8.722  21.880  0.00  0.00    +0.000 A 
ATOM      9  C   UNL     1       1.100   8.942  20.544  0.00  0.00    +0.000 A 
ATOM     10  C   UNL     1       1.799   8.185  19.543  0.00  0.00    +0.000 C 
ATOM     11  C   UNL     1       2.379   6.998  19.768  0.00  0.00    +0.000 C 
ENDROOT
BRANCH  11  12
ATOM     12  C   UNL     1       3.084   6.208  18.765  0.00  0.00    +0.000 A 
ATOM     13  C   UNL     1       2.471   5.088  18.195  0.00  0.00    +0.000 A 
ATOM     14  C   UNL     1       3.163   4.316  17.261  0.00  0.00    +0.000 A 
ATOM     15  C   UNL     1       4.462   4.672  16.897  0.00  0.00    +0.000 A 
ATOM     16 CL   UNL     1       5.329   3.697  15.775  0.00  0.00    +0.000 Cl
ATOM     17  C   UNL     1       5.065   5.805  17.438  0.00  0.00    +0.000 A 
ATOM     18  C   UNL     1       4.375   6.575  18.374  0.00  0.00    +0.000 A 
ENDBRANCH  11  12
BRANCH   7  19
ATOM     19  O   UNL     1      -0.165   9.469  23.872  0.00  0.00    +0.000 OA
ATOM     20  H   UNL     1       0.090   8.558  24.092  0.00  0.00    +0.000 HD
ENDBRANCH   7  19
TORSDOF 2
ENDMDL
MODEL 4
REMARK VINA RESULT:      -7.0      4.893      8.305
REMARK  Name = 
REMARK  2 active torsions:
REMARK  status: ('A' for Active; 'I' for Inactive)
REMARK    1  A    between atoms: C_7  and  O_8
REMARK    2  A    between atoms: C_12  and  C_13
REMARK                            x       y       z     vdW  Elec       q    Type
REMARK                         _______ _______ _______ _____ _____    ______ ____
ROOT
ATOM      1  O   UNL     1       2.560   8.479  17.161  0.00  0.00    +0.000 OA
ATOM      2  C   UNL     1       2.000   8.778  18.199  0.00  0.00    +0.000 C 
ATOM      3  O   UNL     1       1.306   9.973  18.410  0.00  0.00    +0.000 OA
ATOM      4  C   UNL     1       0.819   9.907  19.709  0.00  0.00    +0.000 A 
ATOM      5  C   UNL     1       0.066  10.905  20.301  0.00  0.00    +0.000 A 
ATOM      6  C   UNL     1      -0.363  10.706  21.619  0.00  0.00    +0.000 A 
ATOM      7  C   UNL     1      -0.030   9.523  22.294  0.00  0.00    +0.000 A 
ATOM      8  C   UNL     1       0.728   8.528  21.687  0.00  0.00    +0.000 A 
ATOM      9  C   UNL     1       1.145   8.746  20.388  0.00  0.00    +0.000 A 
ATOM     10  C   UNL     1       1.918   7.973  19.455  0.00  0.00    +0.000 C 
ATOM     11  C   UNL     1       2.438   6.769  19.728  0.00  0.00    +0.000 C 
ENDROOT
BRANCH  11  12
ATOM     12  C   UNL     1       3.217   5.963  18.794  0.00  0.00    +0.000 A 
ATOM     13  C   UNL     1       4.592   6.180  18.658  0.00  0.00    +0.000 A 
ATOM     14  C   UNL     1       5.326   5.430  17.739  0.00  0.00    +0.000 A 
ATOM     15  C   UNL     1       4.684   4.463  16.965  0.00  0.00    +0.000 A 
ATOM     16 CL   UNL     1       5.582   3.566  15.803  0.00  0.00    +0.000 Cl
ATOM     17  C   UNL     1       3.320   4.223  17.120  0.00  0.00    +0.000 A 
ATOM     18  C   UNL     1       2.585   4.974  18.036  0.00  0.00    +0.000 A 
ENDBRANCH  11  12
BRANCH   7  19
ATOM     19  O   UNL     1      -0.432   9.295  23.576  0.00  0.00    +0.000 OA
ATOM     20  H   UNL     1      -0.987   8.498  23.597  0.00  0.00    +0.000 HD
ENDBRANCH   7  19
TORSDOF 2
ENDMDL
MODEL 5
REMARK VINA RESULT:      -6.9      3.336      6.929
REMARK  Name = 
REMARK  2 active torsions:
REMARK  status: ('A' for Active; 'I' for Inactive)
REMARK    1  A    between atoms: C_7  and  O_8
REMARK    2  A    between atoms: C_12  and  C_13
REMARK                            x       y       z     vdW  Elec       q    Type
REMARK                         _______ _______ _______ _____ _____    ______ ____
ROOT
ATOM      1  O   UNL     1       4.132   6.722  16.732  0.00  0.00    +0.000 OA
ATOM      2  C   UNL     1       3.769   6.067  17.691  0.00  0.00    +0.000 C 
ATOM      3  O   UNL     1       2.852   6.507  18.651  0.00  0.00    +0.000 OA
ATOM      4  C   UNL     1       2.715   5.461  19.554  0.00  0.00    +0.000 A 
ATOM      5  C   UNL     1       1.884   5.502  20.660  0.00  0.00    +0.000 A 
ATOM      6  C   UNL     1       1.840   4.373  21.487  0.00  0.00    +0.000 A 
ATOM      7  C   UNL     1       2.621   3.248  21.182  0.00  0.00    +0.000 A 
ATOM      8  C   UNL     1       3.452   3.222  20.067  0.00  0.00    +0.000 A 
ATOM      9  C   UNL     1       3.484   4.347  19.267  0.00  0.00    +0.000 A 
ATOM     10  C   UNL     1       4.196   4.685  18.065  0.00  0.00    +0.000 C 
ATOM     11  C   UNL     1       5.064   3.869  17.452  0.00  0.00    +0.000 C 
ENDROOT
BRANCH  11  12
ATOM     12  C   UNL     1       5.789   4.187  16.227  0.00  0.00    +0.000 A 
ATOM     13  C   UNL     1       7.003   4.879  16.290  0.00  0.00    +0.000 A 
ATOM     14  C   UNL     1       7.676   5.211  15.114  0.00  0.00    +0.000 A 
ATOM     15  C   UNL     1       7.136   4.845  13.881  0.00  0.00    +0.000 A 
ATOM     16 CL   UNL     1       7.945   5.289  12.429  0.00  0.00    +0.000 Cl
ATOM     17  C   UNL     1       5.942   4.128  13.815  0.00  0.00    +0.000 A 
ATOM     18  C   UNL     1       5.267   3.799  14.990  0.00  0.00    +0.000 A 
ENDBRANCH  11  12
BRANCH   7  19
ATOM     19  O   UNL     1       2.602   2.132  21.963  0.00  0.00    +0.000 OA
ATOM     20  H   UNL     1       3.255   1.498  21.625  0.00  0.00    +0.000 HD
ENDBRANCH   7  19
TORSDOF 2
ENDMDL
MODEL 6
REMARK VINA RESULT:      -6.9      5.045      7.551
REMARK  Name = 
REMARK  2 active torsions:
REMARK  status: ('A' for Active; 'I' for Inactive)
REMARK    1  A    between atoms: C_7  and  O_8
REMARK    2  A    between atoms: C_12  and  C_13
REMARK                            x       y       z     vdW  Elec       q    Type
REMARK                         _______ _______ _______ _____ _____    ______ ____
ROOT
ATOM      1  O   UNL     1       1.579   6.090  20.972  0.00  0.00    +0.000 OA
ATOM      2  C   UNL     1       1.497   7.234  20.565  0.00  0.00    +0.000 C 
ATOM      3  O   UNL     1       0.966   8.301  21.298  0.00  0.00    +0.000 OA
ATOM      4  C   UNL     1       1.071   9.416  20.477  0.00  0.00    +0.000 A 
ATOM      5  C   UNL     1       0.655  10.684  20.843  0.00  0.00    +0.000 A 
ATOM      6  C   UNL     1       0.821  11.719  19.916  0.00  0.00    +0.000 A 
ATOM      7  C   UNL     1       1.397  11.456  18.664  0.00  0.00    +0.000 A 
ATOM      8  C   UNL     1       1.809  10.176  18.309  0.00  0.00    +0.000 A 
ATOM      9  C   UNL     1       1.632   9.168  19.236  0.00  0.00    +0.000 A 
ATOM     10  C   UNL     1       1.926   7.761  19.235  0.00  0.00    +0.000 C 
ATOM     11  C   UNL     1       2.479   7.112  18.202  0.00  0.00    +0.000 C 
ENDROOT
BRANCH  11  12
ATOM     12  C   UNL     1       2.796   5.688  18.182  0.00  0.00    +0.000 A 
ATOM     13  C   UNL     1       1.826   4.758  17.793  0.00  0.00    +0.000 A 
ATOM     14  C   UNL     1       2.123   3.395  17.809  0.00  0.00    +0.000 A 
ATOM     15  C   UNL     1       3.390   2.968  18.208  0.00  0.00    +0.000 A 
ATOM     16 CL   UNL     1       3.743   1.285  18.265  0.00  0.00    +0.000 Cl
ATOM     17  C   UNL     1       4.369   3.892  18.566  0.00  0.00    +0.000 A 
ATOM     18  C   UNL     1       4.072   5.255  18.554  0.00  0.00    +0.000 A 
ENDBRANCH  11  12
BRANCH   7  19
ATOM     19  O   UNL     1       1.576  12.440  17.739  0.00  0.00    +0.000 OA
ATOM     20  H   UNL     1       1.275  12.119  16.873  0.00  0.00    +0.000 HD
ENDBRANCH   7  19
TORSDOF 2
ENDMDL
MODEL 7
REMARK VINA RESULT:      -6.8      3.354      6.964
REMARK  Name = 
REMARK  2 active torsions:
REMARK  status: ('A' for Active; 'I' for Inactive)
REMARK    1  A    between atoms: C_7  and  O_8
REMARK    2  A    between atoms: C_12  and  C_13
REMARK                            x       y       z     vdW  Elec       q    Type
REMARK                         _______ _______ _______ _____ _____    ______ ____
ROOT
ATOM      1  O   UNL     1       4.059   6.798  16.829  0.00  0.00    +0.000 OA
ATOM      2  C   UNL     1       3.683   6.111  17.760  0.00  0.00    +0.000 C 
ATOM      3  O   UNL     1       2.772   6.528  18.737  0.00  0.00    +0.000 OA
ATOM      4  C   UNL     1       2.615   5.448  19.596  0.00  0.00    +0.000 A 
ATOM      5  C   UNL     1       1.782   5.459  20.701  0.00  0.00    +0.000 A 
ATOM      6  C   UNL     1       1.717   4.298  21.482  0.00  0.00    +0.000 A 
ATOM      7  C   UNL     1       2.479   3.174  21.133  0.00  0.00    +0.000 A 
ATOM      8  C   UNL     1       3.312   3.178  20.019  0.00  0.00    +0.000 A 
ATOM      9  C   UNL     1       3.365   4.334  19.265  0.00  0.00    +0.000 A 
ATOM     10  C   UNL     1       4.085   4.708  18.079  0.00  0.00    +0.000 C 
ATOM     11  C   UNL     1       4.940   3.902  17.435  0.00  0.00    +0.000 C 
ENDROOT
BRANCH  11  12
ATOM     12  C   UNL     1       5.673   4.258  16.225  0.00  0.00    +0.000 A 
ATOM     13  C   UNL     1       5.137   3.963  14.967  0.00  0.00    +0.000 A 
ATOM     14  C   UNL     1       5.858   4.274  13.814  0.00  0.00    +0.000 A 
ATOM     15  C   UNL     1       7.108   4.884  13.923  0.00  0.00    +0.000 A 
ATOM     16 CL   UNL     1       8.015   5.230  12.502  0.00  0.00    +0.000 Cl
ATOM     17  C   UNL     1       7.632   5.207  15.173  0.00  0.00    +0.000 A 
ATOM     18  C   UNL     1       6.914   4.893  16.326  0.00  0.00    +0.000 A 
ENDBRANCH  11  12
BRANCH   7  19
ATOM     19  O   UNL     1       2.439   2.027  21.868  0.00  0.00    +0.000 OA
ATOM     20  H   UNL     1       1.652   2.043  22.437  0.00  0.00    +0.000 HD
ENDBRANCH   7  19
TORSDOF 2
ENDMDL
MODEL 8
REMARK VINA RESULT:      -6.8      5.118      7.340
REMARK  Name = 
REMARK  2 active torsions:
REMARK  status: ('A' for Active; 'I' for Inactive)
REMARK    1  A    between atoms: C_7  and  O_8
REMARK    2  A    between atoms: C_12  and  C_13
REMARK                            x       y       z     vdW  Elec       q    Type
REMARK                         _______ _______ _______ _____ _____    ______ ____
ROOT
ATOM      1  O   UNL     1       1.460   6.165  20.878  0.00  0.00    +0.000 OA
ATOM      2  C   UNL     1       1.478   7.295  20.429  0.00  0.00    +0.000 C 
ATOM      3  O   UNL     1       0.918   8.410  21.061  0.00  0.00    +0.000 OA
ATOM      4  C   UNL     1       1.167   9.488  20.222  0.00  0.00    +0.000 A 
ATOM      5  C   UNL     1       0.772  10.786  20.497  0.00  0.00    +0.000 A 
ATOM      6  C   UNL     1       1.091  11.778  19.563  0.00  0.00    +0.000 A 
ATOM      7  C   UNL     1       1.791  11.444  18.395  0.00  0.00    +0.000 A 
ATOM      8  C   UNL     1       2.181  10.136  18.131  0.00  0.00    +0.000 A 
ATOM      9  C   UNL     1       1.853   9.171  19.063  0.00  0.00    +0.000 A 
ATOM     10  C   UNL     1       2.080   7.754  19.140  0.00  0.00    +0.000 C 
ATOM     11  C   UNL     1       2.715   7.044  18.199  0.00  0.00    +0.000 C 
ENDROOT
BRANCH  11  12
ATOM     12  C   UNL     1       2.965   5.607  18.261  0.00  0.00    +0.000 A 
ATOM     13  C   UNL     1       4.160   5.126  18.804  0.00  0.00    +0.000 A 
ATOM     14  C   UNL     1       4.409   3.753  18.830  0.00  0.00    +0.000 A 
ATOM     15  C   UNL     1       3.459   2.869  18.319  0.00  0.00    +0.000 A 
ATOM     16 CL   UNL     1       3.783   1.179  18.315  0.00  0.00    +0.000 Cl
ATOM     17  C   UNL     1       2.253   3.342  17.806  0.00  0.00    +0.000 A 
ATOM     18  C   UNL     1       2.005   4.714  17.776  0.00  0.00    +0.000 A 
ENDBRANCH  11  12
BRANCH   7  19
ATOM     19  O   UNL     1       2.120  12.385  17.466  0.00  0.00    +0.000 OA
ATOM     20  H   UNL     1       2.113  11.976  16.585  0.00  0.00    +0.000 HD
ENDBRANCH   7  19
TORSDOF 2
ENDMDL
MODEL 9
REMARK VINA RESULT:      -6.8      4.883      6.517
REMARK  Name = 
REMARK  2 active torsions:
REMARK  status: ('A' for Active; 'I' for Inactive)
REMARK    1  A    between atoms: C_7  and  O_8
REMARK    2  A    between atoms: C_12  and  C_13
REMARK                            x       y       z     vdW  Elec       q    Type
REMARK                         _______ _______ _______ _____ _____    ______ ____
ROOT
ATOM      1  O   UNL     1       1.449   7.641  20.422  0.00  0.00    +0.000 OA
ATOM      2  C   UNL     1       2.280   7.203  19.648  0.00  0.00    +0.000 C 
ATOM      3  O   UNL     1       3.053   6.059  19.877  0.00  0.00    +0.000 OA
ATOM      4  C   UNL     1       3.855   5.911  18.753  0.00  0.00    +0.000 A 
ATOM      5  C   UNL     1       4.768   4.884  18.589  0.00  0.00    +0.000 A 
ATOM      6  C   UNL     1       5.511   4.854  17.403  0.00  0.00    +0.000 A 
ATOM      7  C   UNL     1       5.317   5.842  16.427  0.00  0.00    +0.000 A 
ATOM      8  C   UNL     1       4.397   6.869  16.606  0.00  0.00    +0.000 A 
ATOM      9  C   UNL     1       3.676   6.883  17.785  0.00  0.00    +0.000 A 
ATOM     10  C   UNL     1       2.665   7.755  18.314  0.00  0.00    +0.000 C 
ATOM     11  C   UNL     1       2.203   8.841  17.679  0.00  0.00    +0.000 C 
ENDROOT
BRANCH  11  12
ATOM     12  C   UNL     1       1.170   9.734  18.193  0.00  0.00    +0.000 A 
ATOM     13  C   UNL     1      -0.176   9.497  17.894  0.00  0.00    +0.000 A 
ATOM     14  C   UNL     1      -1.156  10.373  18.359  0.00  0.00    +0.000 A 
ATOM     15  C   UNL     1      -0.788  11.478  19.126  0.00  0.00    +0.000 A 
ATOM     16 CL   UNL     1      -1.994  12.581  19.666  0.00  0.00    +0.000 Cl
ATOM     17  C   UNL     1       0.548  11.701  19.454  0.00  0.00    +0.000 A 
ATOM     18  C   UNL     1       1.529  10.828  18.986  0.00  0.00    +0.000 A 
ENDBRANCH  11  12
BRANCH   7  19
ATOM     19  O   UNL     1       6.021   5.842  15.261  0.00  0.00    +0.000 OA
ATOM     20  H   UNL     1       5.830   6.662  14.776  0.00  0.00    +0.000 HD
ENDBRANCH   7  19
TORSDOF 2
ENDMDL
