MODEL 1
REMARK VINA RESULT:      -7.6      0.000      0.000
REMARK  Name = 
REMARK  10 active torsions:
REMARK  status: ('A' for Active; 'I' for Inactive)
REMARK    1  A    between atoms: C_1  and  O_2
REMARK    2  A    between atoms: O_2  and  C_3
REMARK    3  A    between atoms: C_7  and  O_8
REMARK    4  A    between atoms: O_8  and  C_9
REMARK    5  A    between atoms: C_10  and  O_11
REMARK    6  A    between atoms: O_11  and  C_12
REMARK    7  A    between atoms: C_20  and  C_21
REMARK    8  A    between atoms: C_21  and  O_22
REMARK    9  A    between atoms: C_23  and  C_24
REMARK   10  A    between atoms: C_24  and  O_25
REMARK                            x       y       z     vdW  Elec       q    Type
REMARK                         _______ _______ _______ _____ _____    ______ ____
ROOT
ATOM      1  C   UNL     1       0.484   8.576  20.972  0.00  0.00    +0.000 A 
ATOM      2  C   UNL     1       1.091   7.361  21.294  0.00  0.00    +0.000 A 
ATOM      3  C   UNL     1       2.017   6.745  20.442  0.00  0.00    +0.000 A 
ATOM      4  C   UNL     1       2.343   7.345  19.209  0.00  0.00    +0.000 A 
ATOM      5  C   UNL     1       1.753   8.604  18.880  0.00  0.00    +0.000 A 
ATOM      6  C   UNL     1       0.813   9.219  19.759  0.00  0.00    +0.000 A 
ATOM      7  C   UNL     1       3.225   6.618  18.254  0.00  0.00    +0.000 A 
ATOM      8  C   UNL     1       4.487   7.144  17.905  0.00  0.00    +0.000 A 
ATOM      9  C   UNL     1       5.309   6.409  17.075  0.00  0.00    +0.000 A 
ATOM     10  C   UNL     1       4.934   5.185  16.580  0.00  0.00    +0.000 A 
ATOM     11  C   UNL     1       3.710   4.630  16.884  0.00  0.00    +0.000 A 
ATOM     12  C   UNL     1       2.843   5.349  17.727  0.00  0.00    +0.000 A 
ATOM     13  C   UNL     1       1.522   4.693  18.081  0.00  0.00    +0.000 C 
ATOM     14  C   UNL     1       1.669   3.636  19.205  0.00  0.00    +0.000 C 
ATOM     15  C   UNL     1       1.577   4.244  20.645  0.00  0.00    +0.000 C 
ATOM     16  C   UNL     1       2.576   5.406  20.882  0.00  0.00    +0.000 C 
ATOM     17  O   UNL     1       5.887   4.612  15.800  0.00  0.00    +0.000 OA
ATOM     18  C   UNL     1       6.907   5.631  15.835  0.00  0.00    +0.000 C 
ATOM     19  O   UNL     1       6.555   6.765  16.656  0.00  0.00    +0.000 OA
ENDROOT
BRANCH   1  21
ATOM     20  C   UNL     1      -0.077   9.513  23.103  0.00  0.00    +0.000 C 
ATOM     21  O   UNL     1      -0.471   9.126  21.791  0.00  0.00    +0.000 OA
ENDBRANCH   1  21
BRANCH   5  22
ATOM     22  O   UNL     1       2.170   9.086  17.658  0.00  0.00    +0.000 OA
ATOM     23  C   UNL     1       2.666  10.408  17.524  0.00  0.00    +0.000 C 
ENDBRANCH   5  22
BRANCH   6  24
ATOM     24  O   UNL     1       0.286  10.414  19.337  0.00  0.00    +0.000 OA
ATOM     25  C   UNL     1      -0.929  10.472  18.608  0.00  0.00    +0.000 C 
ENDBRANCH   6  24
BRANCH  14  26
ATOM     26  C   UNL     1       0.623   2.529  18.955  0.00  0.00    +0.000 C 
BRANCH  26  27
ATOM     27  O   UNL     1       1.210   1.284  18.601  0.00  0.00    +0.000 OA
ATOM     28  H   UNL     1       0.556   0.573  18.694  0.00  0.00    +0.000 HD
ENDBRANCH  26  27
ENDBRANCH  14  26
BRANCH  15  29
ATOM     29  C   UNL     1       1.786   3.188  21.753  0.00  0.00    +0.000 C 
BRANCH  29  30
ATOM     30  O   UNL     1       3.031   2.510  21.668  0.00  0.00    +0.000 OA
ATOM     31  H   UNL     1       2.960   1.747  21.072  0.00  0.00    +0.000 HD
ENDBRANCH  29  30
ENDBRANCH  15  29
TORSDOF 7
ENDMDL
MODEL 2
REMARK VINA RESULT:      -6.6      1.419      6.170
REMARK  Name = 
REMARK  10 active torsions:
REMARK  status: ('A' for Active; 'I' for Inactive)
REMARK    1  A    between atoms: C_1  and  O_2
REMARK    2  A    between atoms: O_2  and  C_3
REMARK    3  A    between atoms: C_7  and  O_8
REMARK    4  A    between atoms: O_8  and  C_9
REMARK    5  A    between atoms: C_10  and  O_11
REMARK    6  A    between atoms: O_11  and  C_12
REMARK    7  A    between atoms: C_20  and  C_21
REMARK    8  A    between atoms: C_21  and  O_22
REMARK    9  A    between atoms: C_23  and  C_24
REMARK   10  A    between atoms: C_24  and  O_25
REMARK                            x       y       z     vdW  Elec       q    Type
REMARK                         _______ _______ _______ _____ _____    ______ ____
ROOT
ATOM      1  C   UNL     1       5.502   4.067  15.725  0.00  0.00    +0.000 A 
ATOM      2  C   UNL     1       4.242   3.711  16.212  0.00  0.00    +0.000 A 
ATOM      3  C   UNL     1       3.476   4.582  16.996  0.00  0.00    +0.000 A 
ATOM      4  C   UNL     1       3.983   5.855  17.330  0.00  0.00    +0.000 A 
ATOM      5  C   UNL     1       5.256   6.244  16.814  0.00  0.00    +0.000 A 
ATOM      6  C   UNL     1       6.024   5.346  16.016  0.00  0.00    +0.000 A 
ATOM      7  C   UNL     1       3.219   6.720  18.272  0.00  0.00    +0.000 A 
ATOM      8  C   UNL     1       2.691   7.955  17.839  0.00  0.00    +0.000 A 
ATOM      9  C   UNL     1       1.926   8.698  18.716  0.00  0.00    +0.000 A 
ATOM     10  C   UNL     1       1.668   8.270  19.995  0.00  0.00    +0.000 A 
ATOM     11  C   UNL     1       2.166   7.077  20.469  0.00  0.00    +0.000 A 
ATOM     12  C   UNL     1       2.951   6.290  19.605  0.00  0.00    +0.000 A 
ATOM     13  C   UNL     1       3.447   4.961  20.140  0.00  0.00    +0.000 C 
ATOM     14  C   UNL     1       2.359   3.858  20.085  0.00  0.00    +0.000 C 
ATOM     15  C   UNL     1       2.302   3.110  18.712  0.00  0.00    +0.000 C 
ATOM     16  C   UNL     1       2.143   4.066  17.501  0.00  0.00    +0.000 C 
ATOM     17  O   UNL     1       0.882   9.129  20.694  0.00  0.00    +0.000 OA
ATOM     18  C   UNL     1       0.692  10.171  19.715  0.00  0.00    +0.000 C 
ATOM     19  O   UNL     1       1.335   9.896  18.453  0.00  0.00    +0.000 OA
ENDROOT
BRANCH   1  21
ATOM     20  C   UNL     1       6.112   3.145  13.601  0.00  0.00    +0.000 C 
ATOM     21  O   UNL     1       6.263   3.171  15.016  0.00  0.00    +0.000 OA
ENDBRANCH   1  21
BRANCH   5  22
ATOM     22  O   UNL     1       5.624   7.515  17.202  0.00  0.00    +0.000 OA
ATOM     23  C   UNL     1       6.949   7.798  17.619  0.00  0.00    +0.000 C 
ENDBRANCH   5  22
BRANCH   6  24
ATOM     24  O   UNL     1       7.244   5.809  15.590  0.00  0.00    +0.000 OA
ATOM     25  C   UNL     1       7.622   5.754  14.224  0.00  0.00    +0.000 C 
ENDBRANCH   6  24
BRANCH  14  26
ATOM     26  C   UNL     1       2.589   2.905  21.277  0.00  0.00    +0.000 C 
BRANCH  26  27
ATOM     27  O   UNL     1       1.416   2.696  22.052  0.00  0.00    +0.000 OA
ATOM     28  H   UNL     1       1.345   1.759  22.295  0.00  0.00    +0.000 HD
ENDBRANCH  26  27
ENDBRANCH  14  26
BRANCH  15  29
ATOM     29  C   UNL     1       1.174   2.056  18.652  0.00  0.00    +0.000 C 
BRANCH  29  30
ATOM     30  O   UNL     1      -0.022   2.464  19.300  0.00  0.00    +0.000 OA
ATOM     31  H   UNL     1      -0.224   3.389  19.085  0.00  0.00    +0.000 HD
ENDBRANCH  29  30
ENDBRANCH  15  29
TORSDOF 7
ENDMDL
MODEL 3
REMARK VINA RESULT:      -6.2      1.046      1.049
REMARK  Name = 
REMARK  10 active torsions:
REMARK  status: ('A' for Active; 'I' for Inactive)
REMARK    1  A    between atoms: C_1  and  O_2
REMARK    2  A    between atoms: O_2  and  C_3
REMARK    3  A    between atoms: C_7  and  O_8
REMARK    4  A    between atoms: O_8  and  C_9
REMARK    5  A    between atoms: C_10  and  O_11
REMARK    6  A    between atoms: O_11  and  C_12
REMARK    7  A    between atoms: C_20  and  C_21
REMARK    8  A    between atoms: C_21  and  O_22
REMARK    9  A    between atoms: C_23  and  C_24
REMARK   10  A    between atoms: C_24  and  O_25
REMARK                            x       y       z     vdW  Elec       q    Type
REMARK                         _______ _______ _______ _____ _____    ______ ____
ROOT
ATOM      1  C   UNL     1       1.219   8.172  20.962  0.00  0.00    +0.000 A 
ATOM      2  C   UNL     1       1.824   6.934  21.194  0.00  0.00    +0.000 A 
ATOM      3  C   UNL     1       2.620   6.305  20.229  0.00  0.00    +0.000 A 
ATOM      4  C   UNL     1       2.813   6.914  18.972  0.00  0.00    +0.000 A 
ATOM      5  C   UNL     1       2.226   8.194  18.732  0.00  0.00    +0.000 A 
ATOM      6  C   UNL     1       1.419   8.823  19.726  0.00  0.00    +0.000 A 
ATOM      7  C   UNL     1       3.550   6.176  17.909  0.00  0.00    +0.000 A 
ATOM      8  C   UNL     1       4.776   6.670  17.415  0.00  0.00    +0.000 A 
ATOM      9  C   UNL     1       5.468   5.925  16.482  0.00  0.00    +0.000 A 
ATOM     10  C   UNL     1       4.998   4.719  16.023  0.00  0.00    +0.000 A 
ATOM     11  C   UNL     1       3.805   4.196  16.467  0.00  0.00    +0.000 A 
ATOM     12  C   UNL     1       3.068   4.927  17.418  0.00  0.00    +0.000 A 
ATOM     13  C   UNL     1       1.781   4.304  17.922  0.00  0.00    +0.000 C 
ATOM     14  C   UNL     1       2.030   3.227  19.008  0.00  0.00    +0.000 C 
ATOM     15  C   UNL     1       2.132   3.815  20.455  0.00  0.00    +0.000 C 
ATOM     16  C   UNL     1       3.188   4.944  20.582  0.00  0.00    +0.000 C 
ATOM     17  O   UNL     1       5.832   4.131  15.126  0.00  0.00    +0.000 OA
ATOM     18  C   UNL     1       6.879   5.120  15.048  0.00  0.00    +0.000 C 
ATOM     19  O   UNL     1       6.665   6.251  15.919  0.00  0.00    +0.000 OA
ENDROOT
BRANCH   1  21
ATOM     20  C   UNL     1      -1.012   8.528  21.754  0.00  0.00    +0.000 C 
ATOM     21  O   UNL     1       0.389   8.736  21.898  0.00  0.00    +0.000 OA
ENDBRANCH   1  21
BRANCH   5  22
ATOM     22  O   UNL     1       2.506   8.682  17.474  0.00  0.00    +0.000 OA
ATOM     23  C   UNL     1       2.793  10.056  17.269  0.00  0.00    +0.000 C 
ENDBRANCH   5  22
BRANCH   6  24
ATOM     24  O   UNL     1       0.882  10.039  19.385  0.00  0.00    +0.000 OA
ATOM     25  C   UNL     1       1.085  11.190  20.189  0.00  0.00    +0.000 C 
ENDBRANCH   6  24
BRANCH  14  26
ATOM     26  C   UNL     1       0.929   2.153  18.874  0.00  0.00    +0.000 C 
BRANCH  26  27
ATOM     27  O   UNL     1      -0.244   2.470  19.612  0.00  0.00    +0.000 OA
ATOM     28  H   UNL     1      -0.299   1.906  20.399  0.00  0.00    +0.000 HD
ENDBRANCH  26  27
ENDBRANCH  14  26
BRANCH  15  29
ATOM     29  C   UNL     1       2.442   2.737  21.517  0.00  0.00    +0.000 C 
BRANCH  29  30
ATOM     30  O   UNL     1       1.329   2.403  22.333  0.00  0.00    +0.000 OA
ATOM     31  H   UNL     1       0.503   2.492  21.830  0.00  0.00    +0.000 HD
ENDBRANCH  29  30
ENDBRANCH  15  29
TORSDOF 7
ENDMDL
MODEL 4
REMARK VINA RESULT:      -6.0      1.765      6.419
REMARK  Name = 
REMARK  10 active torsions:
REMARK  status: ('A' for Active; 'I' for Inactive)
REMARK    1  A    between atoms: C_1  and  O_2
REMARK    2  A    between atoms: O_2  and  C_3
REMARK    3  A    between atoms: C_7  and  O_8
REMARK    4  A    between atoms: O_8  and  C_9
REMARK    5  A    between atoms: C_10  and  O_11
REMARK    6  A    between atoms: O_11  and  C_12
REMARK    7  A    between atoms: C_20  and  C_21
REMARK    8  A    between atoms: C_21  and  O_22
REMARK    9  A    between atoms: C_23  and  C_24
REMARK   10  A    between atoms: C_24  and  O_25
REMARK                            x       y       z     vdW  Elec       q    Type
REMARK                         _______ _______ _______ _____ _____    ______ ____
ROOT
ATOM      1  C   UNL     1       5.885   4.013  14.947  0.00  0.00    +0.000 A 
ATOM      2  C   UNL     1       4.703   3.543  15.523  0.00  0.00    +0.000 A 
ATOM      3  C   UNL     1       3.959   4.314  16.425  0.00  0.00    +0.000 A 
ATOM      4  C   UNL     1       4.411   5.599  16.789  0.00  0.00    +0.000 A 
ATOM      5  C   UNL     1       5.603   6.104  16.184  0.00  0.00    +0.000 A 
ATOM      6  C   UNL     1       6.348   5.307  15.266  0.00  0.00    +0.000 A 
ATOM      7  C   UNL     1       3.685   6.355  17.847  0.00  0.00    +0.000 A 
ATOM      8  C   UNL     1       3.040   7.572  17.540  0.00  0.00    +0.000 A 
ATOM      9  C   UNL     1       2.315   8.210  18.526  0.00  0.00    +0.000 A 
ATOM     10  C   UNL     1       2.207   7.696  19.795  0.00  0.00    +0.000 A 
ATOM     11  C   UNL     1       2.824   6.517  20.148  0.00  0.00    +0.000 A 
ATOM     12  C   UNL     1       3.573   5.836  19.170  0.00  0.00    +0.000 A 
ATOM     13  C   UNL     1       4.202   4.517  19.576  0.00  0.00    +0.000 C 
ATOM     14  C   UNL     1       3.188   3.346  19.553  0.00  0.00    +0.000 C 
ATOM     15  C   UNL     1       3.051   2.671  18.147  0.00  0.00    +0.000 C 
ATOM     16  C   UNL     1       2.716   3.679  17.016  0.00  0.00    +0.000 C 
ATOM     17  O   UNL     1       1.437   8.458  20.613  0.00  0.00    +0.000 OA
ATOM     18  C   UNL     1       1.088   9.537  19.721  0.00  0.00    +0.000 C 
ATOM     19  O   UNL     1       1.626   9.376  18.391  0.00  0.00    +0.000 OA
ENDROOT
BRANCH   1  21
ATOM     20  C   UNL     1       6.183   3.042  12.778  0.00  0.00    +0.000 C 
ATOM     21  O   UNL     1       6.632   3.212  14.119  0.00  0.00    +0.000 OA
ENDBRANCH   1  21
BRANCH   5  22
ATOM     22  O   UNL     1       5.922   7.375  16.614  0.00  0.00    +0.000 OA
ATOM     23  C   UNL     1       7.052   7.606  17.438  0.00  0.00    +0.000 C 
ENDBRANCH   5  22
BRANCH   6  24
ATOM     24  O   UNL     1       7.490   5.877  14.761  0.00  0.00    +0.000 OA
ATOM     25  C   UNL     1       7.869   5.701  13.406  0.00  0.00    +0.000 C 
ENDBRANCH   6  24
BRANCH  14  26
ATOM     26  C   UNL     1       3.591   2.346  20.659  0.00  0.00    +0.000 C 
BRANCH  26  27
ATOM     27  O   UNL     1       4.938   1.908  20.544  0.00  0.00    +0.000 OA
ATOM     28  H   UNL     1       5.529   2.675  20.477  0.00  0.00    +0.000 HD
ENDBRANCH  26  27
ENDBRANCH  14  26
BRANCH  15  29
ATOM     29  C   UNL     1       1.992   1.546  18.125  0.00  0.00    +0.000 C 
BRANCH  29  30
ATOM     30  O   UNL     1       0.727   1.943  18.633  0.00  0.00    +0.000 OA
ATOM     31  H   UNL     1       0.819   2.294  19.534  0.00  0.00    +0.000 HD
ENDBRANCH  29  30
ENDBRANCH  15  29
TORSDOF 7
ENDMDL
MODEL 5
REMARK VINA RESULT:      -5.9      5.325     10.761
REMARK  Name = 
REMARK  10 active torsions:
REMARK  status: ('A' for Active; 'I' for Inactive)
REMARK    1  A    between atoms: C_1  and  O_2
REMARK    2  A    between atoms: O_2  and  C_3
REMARK    3  A    between atoms: C_7  and  O_8
REMARK    4  A    between atoms: O_8  and  C_9
REMARK    5  A    between atoms: C_10  and  O_11
REMARK    6  A    between atoms: O_11  and  C_12
REMARK    7  A    between atoms: C_20  and  C_21
REMARK    8  A    between atoms: C_21  and  O_22
REMARK    9  A    between atoms: C_23  and  C_24
REMARK   10  A    between atoms: C_24  and  O_25
REMARK                            x       y       z     vdW  Elec       q    Type
REMARK                         _______ _______ _______ _____ _____    ______ ____
ROOT
ATOM      1  C   UNL     1      -1.957  11.090  18.954  0.00  0.00    +0.000 A 
ATOM      2  C   UNL     1      -2.828  12.165  19.142  0.00  0.00    +0.000 A 
ATOM      3  C   UNL     1      -2.831  12.922  20.319  0.00  0.00    +0.000 A 
ATOM      4  C   UNL     1      -1.947  12.592  21.368  0.00  0.00    +0.000 A 
ATOM      5  C   UNL     1      -1.029  11.514  21.178  0.00  0.00    +0.000 A 
ATOM      6  C   UNL     1      -1.038  10.754  19.972  0.00  0.00    +0.000 A 
ATOM      7  C   UNL     1      -2.049  13.318  22.664  0.00  0.00    +0.000 A 
ATOM      8  C   UNL     1      -0.981  14.118  23.121  0.00  0.00    +0.000 A 
ATOM      9  C   UNL     1      -1.137  14.835  24.290  0.00  0.00    +0.000 A 
ATOM     10  C   UNL     1      -2.299  14.790  25.020  0.00  0.00    +0.000 A 
ATOM     11  C   UNL     1      -3.368  14.018  24.622  0.00  0.00    +0.000 A 
ATOM     12  C   UNL     1      -3.248  13.272  23.435  0.00  0.00    +0.000 A 
ATOM     13  C   UNL     1      -4.458  12.469  22.998  0.00  0.00    +0.000 C 
ATOM     14  C   UNL     1      -5.524  13.343  22.290  0.00  0.00    +0.000 C 
ATOM     15  C   UNL     1      -5.272  13.507  20.754  0.00  0.00    +0.000 C 
ATOM     16  C   UNL     1      -3.853  14.037  20.422  0.00  0.00    +0.000 C 
ATOM     17  O   UNL     1      -2.264  15.578  26.125  0.00  0.00    +0.000 OA
ATOM     18  C   UNL     1      -0.928  16.112  26.028  0.00  0.00    +0.000 C 
ATOM     19  O   UNL     1      -0.214  15.661  24.857  0.00  0.00    +0.000 OA
ENDROOT
BRANCH   1  21
ATOM     20  C   UNL     1      -2.473  10.942  16.621  0.00  0.00    +0.000 C 
ATOM     21  O   UNL     1      -2.020  10.321  17.819  0.00  0.00    +0.000 OA
ENDBRANCH   1  21
BRANCH   5  22
ATOM     22  O   UNL     1      -0.213  11.310  22.270  0.00  0.00    +0.000 OA
ATOM     23  C   UNL     1      -0.421  10.213  23.144  0.00  0.00    +0.000 C 
ENDBRANCH   5  22
BRANCH   6  24
ATOM     24  O   UNL     1      -0.133   9.725  19.901  0.00  0.00    +0.000 OA
ATOM     25  C   UNL     1       1.129   9.890  19.273  0.00  0.00    +0.000 C 
ENDBRANCH   6  24
BRANCH  14  26
ATOM     26  C   UNL     1      -6.913  12.748  22.608  0.00  0.00    +0.000 C 
BRANCH  26  27
ATOM     27  O   UNL     1      -6.915  11.942  23.778  0.00  0.00    +0.000 OA
ATOM     28  H   UNL     1      -6.007  11.686  24.003  0.00  0.00    +0.000 HD
ENDBRANCH  26  27
ENDBRANCH  14  26
BRANCH  15  29
ATOM     29  C   UNL     1      -6.307  14.431  20.074  0.00  0.00    +0.000 C 
BRANCH  29  30
ATOM     30  O   UNL     1      -5.924  14.860  18.776  0.00  0.00    +0.000 OA
ATOM     31  H   UNL     1      -5.013  15.197  18.787  0.00  0.00    +0.000 HD
ENDBRANCH  29  30
ENDBRANCH  15  29
TORSDOF 7
ENDMDL
MODEL 6
REMARK VINA RESULT:      -5.9      6.394      9.918
REMARK  Name = 
REMARK  10 active torsions:
REMARK  status: ('A' for Active; 'I' for Inactive)
REMARK    1  A    between atoms: C_1  and  O_2
REMARK    2  A    between atoms: O_2  and  C_3
REMARK    3  A    between atoms: C_7  and  O_8
REMARK    4  A    between atoms: O_8  and  C_9
REMARK    5  A    between atoms: C_10  and  O_11
REMARK    6  A    between atoms: O_11  and  C_12
REMARK    7  A    between atoms: C_20  and  C_21
REMARK    8  A    between atoms: C_21  and  O_22
REMARK    9  A    between atoms: C_23  and  C_24
REMARK   10  A    between atoms: C_24  and  O_25
REMARK                            x       y       z     vdW  Elec       q    Type
REMARK                         _______ _______ _______ _____ _____    ______ ____
ROOT
ATOM      1  C   UNL     1      -4.823  11.390  18.540  0.00  0.00    +0.000 A 
ATOM      2  C   UNL     1      -5.072  12.416  19.455  0.00  0.00    +0.000 A 
ATOM      3  C   UNL     1      -4.037  13.094  20.109  0.00  0.00    +0.000 A 
ATOM      4  C   UNL     1      -2.696  12.731  19.866  0.00  0.00    +0.000 A 
ATOM      5  C   UNL     1      -2.426  11.704  18.911  0.00  0.00    +0.000 A 
ATOM      6  C   UNL     1      -3.491  11.024  18.250  0.00  0.00    +0.000 A 
ATOM      7  C   UNL     1      -1.611  13.366  20.665  0.00  0.00    +0.000 A 
ATOM      8  C   UNL     1      -0.641  14.176  20.037  0.00  0.00    +0.000 A 
ATOM      9  C   UNL     1       0.306  14.808  20.816  0.00  0.00    +0.000 A 
ATOM     10  C   UNL     1       0.332  14.670  22.182  0.00  0.00    +0.000 A 
ATOM     11  C   UNL     1      -0.586  13.885  22.844  0.00  0.00    +0.000 A 
ATOM     12  C   UNL     1      -1.569  13.224  22.084  0.00  0.00    +0.000 A 
ATOM     13  C   UNL     1      -2.594  12.404  22.843  0.00  0.00    +0.000 C 
ATOM     14  C   UNL     1      -3.718  13.280  23.453  0.00  0.00    +0.000 C 
ATOM     15  C   UNL     1      -4.898  13.554  22.462  0.00  0.00    +0.000 C 
ATOM     16  C   UNL     1      -4.434  14.160  21.112  0.00  0.00    +0.000 C 
ATOM     17  O   UNL     1       1.326  15.385  22.770  0.00  0.00    +0.000 OA
ATOM     18  C   UNL     1       1.948  15.977  21.611  0.00  0.00    +0.000 C 
ATOM     19  O   UNL     1       1.296  15.630  20.371  0.00  0.00    +0.000 OA
ENDROOT
BRANCH   1  21
ATOM     20  C   UNL     1      -7.137  10.775  18.578  0.00  0.00    +0.000 C 
ATOM     21  O   UNL     1      -5.856  10.695  17.962  0.00  0.00    +0.000 OA
ENDBRANCH   1  21
BRANCH   5  22
ATOM     22  O   UNL     1      -1.077  11.461  18.756  0.00  0.00    +0.000 OA
ATOM     23  C   UNL     1      -0.454  10.362  19.400  0.00  0.00    +0.000 C 
ENDBRANCH   5  22
BRANCH   6  24
ATOM     24  O   UNL     1      -3.123  10.038  17.370  0.00  0.00    +0.000 OA
ATOM     25  C   UNL     1      -2.891  10.319  15.999  0.00  0.00    +0.000 C 
ENDBRANCH   6  24
BRANCH  14  26
ATOM     26  C   UNL     1      -4.181  12.612  24.766  0.00  0.00    +0.000 C 
BRANCH  26  27
ATOM     27  O   UNL     1      -5.302  11.757  24.585  0.00  0.00    +0.000 OA
ATOM     28  H   UNL     1      -5.003  10.878  24.305  0.00  0.00    +0.000 HD
ENDBRANCH  26  27
ENDBRANCH  14  26
BRANCH  15  29
ATOM     29  C   UNL     1      -5.980  14.479  23.064  0.00  0.00    +0.000 C 
BRANCH  29  30
ATOM     30  O   UNL     1      -7.184  13.805  23.400  0.00  0.00    +0.000 OA
ATOM     31  H   UNL     1      -6.988  12.970  23.855  0.00  0.00    +0.000 HD
ENDBRANCH  29  30
ENDBRANCH  15  29
TORSDOF 7
ENDMDL
MODEL 7
REMARK VINA RESULT:      -5.8      5.784     10.281
REMARK  Name = 
REMARK  10 active torsions:
REMARK  status: ('A' for Active; 'I' for Inactive)
REMARK    1  A    between atoms: C_1  and  O_2
REMARK    2  A    between atoms: O_2  and  C_3
REMARK    3  A    between atoms: C_7  and  O_8
REMARK    4  A    between atoms: O_8  and  C_9
REMARK    5  A    between atoms: C_10  and  O_11
REMARK    6  A    between atoms: O_11  and  C_12
REMARK    7  A    between atoms: C_20  and  C_21
REMARK    8  A    between atoms: C_21  and  O_22
REMARK    9  A    between atoms: C_23  and  C_24
REMARK   10  A    between atoms: C_24  and  O_25
REMARK                            x       y       z     vdW  Elec       q    Type
REMARK                         _______ _______ _______ _____ _____    ______ ____
ROOT
ATOM      1  C   UNL     1       0.386  15.677  19.160  0.00  0.00    +0.000 A 
ATOM      2  C   UNL     1      -0.122  14.389  18.977  0.00  0.00    +0.000 A 
ATOM      3  C   UNL     1      -1.109  13.854  19.813  0.00  0.00    +0.000 A 
ATOM      4  C   UNL     1      -1.605  14.617  20.891  0.00  0.00    +0.000 A 
ATOM      5  C   UNL     1      -1.117  15.947  21.072  0.00  0.00    +0.000 A 
ATOM      6  C   UNL     1      -0.112  16.478  20.211  0.00  0.00    +0.000 A 
ATOM      7  C   UNL     1      -2.555  13.991  21.852  0.00  0.00    +0.000 A 
ATOM      8  C   UNL     1      -3.873  14.481  21.975  0.00  0.00    +0.000 A 
ATOM      9  C   UNL     1      -4.749  13.832  22.821  0.00  0.00    +0.000 A 
ATOM     10  C   UNL     1      -4.376  12.727  23.544  0.00  0.00    +0.000 A 
ATOM     11  C   UNL     1      -3.100  12.213  23.467  0.00  0.00    +0.000 A 
ATOM     12  C   UNL     1      -2.176  12.847  22.615  0.00  0.00    +0.000 A 
ATOM     13  C   UNL     1      -0.794  12.232  22.515  0.00  0.00    +0.000 C 
ATOM     14  C   UNL     1      -0.759  11.006  21.569  0.00  0.00    +0.000 C 
ATOM     15  C   UNL     1      -0.530  11.387  20.068  0.00  0.00    +0.000 C 
ATOM     16  C   UNL     1      -1.549  12.429  19.540  0.00  0.00    +0.000 C 
ATOM     17  O   UNL     1      -5.384  12.221  24.301  0.00  0.00    +0.000 OA
ATOM     18  C   UNL     1      -6.440  13.153  23.993  0.00  0.00    +0.000 C 
ATOM     19  O   UNL     1      -6.051  14.166  23.041  0.00  0.00    +0.000 OA
ENDROOT
BRANCH   1  21
ATOM     20  C   UNL     1       2.658  15.489  18.430  0.00  0.00    +0.000 C 
ATOM     21  O   UNL     1       1.401  16.154  18.370  0.00  0.00    +0.000 OA
ENDBRANCH   1  21
BRANCH   5  22
ATOM     22  O   UNL     1      -1.695  16.586  22.149  0.00  0.00    +0.000 OA
ATOM     23  C   UNL     1      -1.073  16.581  23.423  0.00  0.00    +0.000 C 
ENDBRANCH   5  22
BRANCH   6  24
ATOM     24  O   UNL     1       0.304  17.756  20.487  0.00  0.00    +0.000 OA
ATOM     25  C   UNL     1       1.480  18.006  21.241  0.00  0.00    +0.000 C 
ENDBRANCH   6  24
BRANCH  14  26
ATOM     26  C   UNL     1       0.303  10.022  22.105  0.00  0.00    +0.000 C 
BRANCH  26  27
ATOM     27  O   UNL     1       0.299   9.923  23.523  0.00  0.00    +0.000 OA
ATOM     28  H   UNL     1       0.308  10.811  23.914  0.00  0.00    +0.000 HD
ENDBRANCH  26  27
ENDBRANCH  14  26
BRANCH  15  29
ATOM     29  C   UNL     1      -0.559  10.159  19.129  0.00  0.00    +0.000 C 
BRANCH  29  30
ATOM     30  O   UNL     1       0.146  10.354  17.912  0.00  0.00    +0.000 OA
ATOM     31  H   UNL     1       0.992  10.802  18.080  0.00  0.00    +0.000 HD
ENDBRANCH  29  30
ENDBRANCH  15  29
TORSDOF 7
ENDMDL
MODEL 8
REMARK VINA RESULT:      -5.8      4.947      9.202
REMARK  Name = 
REMARK  10 active torsions:
REMARK  status: ('A' for Active; 'I' for Inactive)
REMARK    1  A    between atoms: C_1  and  O_2
REMARK    2  A    between atoms: O_2  and  C_3
REMARK    3  A    between atoms: C_7  and  O_8
REMARK    4  A    between atoms: O_8  and  C_9
REMARK    5  A    between atoms: C_10  and  O_11
REMARK    6  A    between atoms: O_11  and  C_12
REMARK    7  A    between atoms: C_20  and  C_21
REMARK    8  A    between atoms: C_21  and  O_22
REMARK    9  A    between atoms: C_23  and  C_24
REMARK   10  A    between atoms: C_24  and  O_25
REMARK                            x       y       z     vdW  Elec       q    Type
REMARK                         _______ _______ _______ _____ _____    ______ ____
ROOT
ATOM      1  C   UNL     1       2.846  14.294  19.598  0.00  0.00    +0.000 A 
ATOM      2  C   UNL     1       1.909  13.370  19.130  0.00  0.00    +0.000 A 
ATOM      3  C   UNL     1       0.758  13.046  19.859  0.00  0.00    +0.000 A 
ATOM      4  C   UNL     1       0.531  13.645  21.115  0.00  0.00    +0.000 A 
ATOM      5  C   UNL     1       1.465  14.614  21.592  0.00  0.00    +0.000 A 
ATOM      6  C   UNL     1       2.632  14.935  20.838  0.00  0.00    +0.000 A 
ATOM      7  C   UNL     1      -0.625  13.195  21.939  0.00  0.00    +0.000 A 
ATOM      8  C   UNL     1      -1.674  14.087  22.247  0.00  0.00    +0.000 A 
ATOM      9  C   UNL     1      -2.764  13.618  22.951  0.00  0.00    +0.000 A 
ATOM     10  C   UNL     1      -2.855  12.310  23.361  0.00  0.00    +0.000 A 
ATOM     11  C   UNL     1      -1.856  11.401  23.094  0.00  0.00    +0.000 A 
ATOM     12  C   UNL     1      -0.727  11.841  22.378  0.00  0.00    +0.000 A 
ATOM     13  C   UNL     1       0.335  10.807  22.059  0.00  0.00    +0.000 C 
ATOM     14  C   UNL     1      -0.042   9.929  20.839  0.00  0.00    +0.000 C 
ATOM     15  C   UNL     1       0.377  10.558  19.468  0.00  0.00    +0.000 C 
ATOM     16  C   UNL     1      -0.163  11.997  19.266  0.00  0.00    +0.000 C 
ATOM     17  O   UNL     1      -4.011  12.040  24.021  0.00  0.00    +0.000 OA
ATOM     18  C   UNL     1      -4.636  13.340  24.006  0.00  0.00    +0.000 C 
ATOM     19  O   UNL     1      -3.860  14.341  23.313  0.00  0.00    +0.000 OA
ENDROOT
BRANCH   1  21
ATOM     20  C   UNL     1       3.906  15.359  17.734  0.00  0.00    +0.000 C 
ATOM     21  O   UNL     1       4.000  14.544  18.898  0.00  0.00    +0.000 OA
ENDBRANCH   1  21
BRANCH   5  22
ATOM     22  O   UNL     1       1.116  15.133  22.821  0.00  0.00    +0.000 OA
ATOM     23  C   UNL     1       0.799  16.506  22.972  0.00  0.00    +0.000 C 
ENDBRANCH   5  22
BRANCH   6  24
ATOM     24  O   UNL     1       3.477  15.860  21.397  0.00  0.00    +0.000 OA
ATOM     25  C   UNL     1       4.588  15.467  22.187  0.00  0.00    +0.000 C 
ENDBRANCH   6  24
BRANCH  14  26
ATOM     26  C   UNL     1       0.559   8.524  21.062  0.00  0.00    +0.000 C 
BRANCH  26  27
ATOM     27  O   UNL     1       1.802   8.557  21.749  0.00  0.00    +0.000 OA
ATOM     28  H   UNL     1       2.009   7.675  22.096  0.00  0.00    +0.000 HD
ENDBRANCH  26  27
ENDBRANCH  14  26
BRANCH  15  29
ATOM     29  C   UNL     1      -0.060   9.700  18.259  0.00  0.00    +0.000 C 
BRANCH  29  30
ATOM     30  O   UNL     1      -0.954  10.366  17.381  0.00  0.00    +0.000 OA
ATOM     31  H   UNL     1      -1.870  10.102  17.567  0.00  0.00    +0.000 HD
ENDBRANCH  29  30
ENDBRANCH  15  29
TORSDOF 7
ENDMDL
MODEL 9
REMARK VINA RESULT:      -5.8      6.040      9.432
REMARK  Name = 
REMARK  10 active torsions:
REMARK  status: ('A' for Active; 'I' for Inactive)
REMARK    1  A    between atoms: C_1  and  O_2
REMARK    2  A    between atoms: O_2  and  C_3
REMARK    3  A    between atoms: C_7  and  O_8
REMARK    4  A    between atoms: O_8  and  C_9
REMARK    5  A    between atoms: C_10  and  O_11
REMARK    6  A    between atoms: O_11  and  C_12
REMARK    7  A    between atoms: C_20  and  C_21
REMARK    8  A    between atoms: C_21  and  O_22
REMARK    9  A    between atoms: C_23  and  C_24
REMARK   10  A    between atoms: C_24  and  O_25
REMARK                            x       y       z     vdW  Elec       q    Type
REMARK                         _______ _______ _______ _____ _____    ______ ____
ROOT
ATOM      1  C   UNL     1      -4.787  15.885  20.866  0.00  0.00    +0.000 A 
ATOM      2  C   UNL     1      -5.184  14.582  20.559  0.00  0.00    +0.000 A 
ATOM      3  C   UNL     1      -4.319  13.490  20.698  0.00  0.00    +0.000 A 
ATOM      4  C   UNL     1      -2.995  13.695  21.141  0.00  0.00    +0.000 A 
ATOM      5  C   UNL     1      -2.585  15.018  21.488  0.00  0.00    +0.000 A 
ATOM      6  C   UNL     1      -3.479  16.120  21.343  0.00  0.00    +0.000 A 
ATOM      7  C   UNL     1      -2.046  12.548  21.158  0.00  0.00    +0.000 A 
ATOM      8  C   UNL     1      -1.506  12.085  22.377  0.00  0.00    +0.000 A 
ATOM      9  C   UNL     1      -0.686  10.975  22.365  0.00  0.00    +0.000 A 
ATOM     10  C   UNL     1      -0.381  10.311  21.203  0.00  0.00    +0.000 A 
ATOM     11  C   UNL     1      -0.875  10.726  19.986  0.00  0.00    +0.000 A 
ATOM     12  C   UNL     1      -1.715  11.855  19.956  0.00  0.00    +0.000 A 
ATOM     13  C   UNL     1      -2.280  12.261  18.609  0.00  0.00    +0.000 C 
ATOM     14  C   UNL     1      -3.498  11.398  18.195  0.00  0.00    +0.000 C 
ATOM     15  C   UNL     1      -4.858  11.934  18.754  0.00  0.00    +0.000 C 
ATOM     16  C   UNL     1      -4.851  12.129  20.293  0.00  0.00    +0.000 C 
ATOM     17  O   UNL     1       0.422   9.234  21.401  0.00  0.00    +0.000 OA
ATOM     18  C   UNL     1       0.615   9.306  22.829  0.00  0.00    +0.000 C 
ATOM     19  O   UNL     1      -0.100  10.396  23.449  0.00  0.00    +0.000 OA
ENDROOT
BRANCH   1  21
ATOM     20  C   UNL     1      -7.018  16.753  20.917  0.00  0.00    +0.000 C 
ATOM     21  O   UNL     1      -5.632  16.946  20.657  0.00  0.00    +0.000 OA
ENDBRANCH   1  21
BRANCH   5  22
ATOM     22  O   UNL     1      -1.277  15.075  21.921  0.00  0.00    +0.000 OA
ATOM     23  C   UNL     1      -0.249  15.570  21.080  0.00  0.00    +0.000 C 
ENDBRANCH   5  22
BRANCH   6  24
ATOM     24  O   UNL     1      -2.978  17.352  21.680  0.00  0.00    +0.000 OA
ATOM     25  C   UNL     1      -3.201  17.917  22.962  0.00  0.00    +0.000 C 
ENDBRANCH   6  24
BRANCH  14  26
ATOM     26  C   UNL     1      -3.492  11.274  16.656  0.00  0.00    +0.000 C 
BRANCH  26  27
ATOM     27  O   UNL     1      -2.243  11.631  16.078  0.00  0.00    +0.000 OA
ATOM     28  H   UNL     1      -2.341  11.724  15.117  0.00  0.00    +0.000 HD
ENDBRANCH  26  27
ENDBRANCH  14  26
BRANCH  15  29
ATOM     29  C   UNL     1      -6.055  11.030  18.384  0.00  0.00    +0.000 C 
BRANCH  29  30
ATOM     30  O   UNL     1      -7.004  11.658  17.536  0.00  0.00    +0.000 OA
ATOM     31  H   UNL     1      -7.907  11.443  17.822  0.00  0.00    +0.000 HD
ENDBRANCH  29  30
ENDBRANCH  15  29
TORSDOF 7
ENDMDL
