MODEL 1
REMARK VINA RESULT:      -7.8      0.000      0.000
REMARK  Name = 
REMARK  12 active torsions:
REMARK  status: ('A' for Active; 'I' for Inactive)
REMARK    1  A    between atoms: C_1  and  C_2
REMARK    2  A    between atoms: C_7  and  N_8
REMARK    3  A    between atoms: C_9  and  C_11
REMARK    4  A    between atoms: C_11  and  C_12
REMARK    5  A    between atoms: C_14  and  C_15
REMARK    6  A    between atoms: C_15  and  O_16
REMARK    7  A    between atoms: O_16  and  C_17
REMARK    8  A    between atoms: C_17  and  C_19
REMARK    9  A    between atoms: C_19  and  C_20
REMARK   10  A    between atoms: C_19  and  C_21
REMARK   11  A    between atoms: C_19  and  O_22
REMARK   12  A    between atoms: O_22  and  C_23
REMARK                            x       y       z     vdW  Elec       q    Type
REMARK                         _______ _______ _______ _____ _____    ______ ____
ROOT
ATOM      1  C   UNL     1       1.187   9.988  19.424  0.00  0.00    +0.000 A 
ATOM      2  N   UNL     1       1.787   8.877  19.044  0.00  0.00    +0.000 NA
ATOM      3  C   UNL     1       1.795   7.967  20.089  0.00  0.00    +0.000 A 
ATOM      4  C   UNL     1       1.159   8.402  21.237  0.00  0.00    +0.000 A 
ATOM      5  S   UNL     1       0.536   9.977  21.013  0.00  0.00    +0.000 S 
ENDROOT
BRANCH   1   6
ATOM      6  C   UNL     1       1.075  11.198  18.567  0.00  0.00    +0.000 C 
BRANCH   6   8
ATOM      7  N   UNL     1      -1.332  11.000  18.018  0.00  0.00    +0.000 N 
ATOM      8  C   UNL     1      -0.332  11.769  18.591  0.00  0.00    +0.000 C 
ATOM      9  O   UNL     1      -0.513  12.831  19.197  0.00  0.00    +0.000 OA
ATOM     10  H   UNL     1      -1.044  10.089  17.662  0.00  0.00    +0.000 HD
BRANCH   7  17
ATOM     11  C   UNL     1      -2.749  10.612  15.446  0.00  0.00    +0.000 C 
ATOM     12  C   UNL     1      -3.403  11.121  16.702  0.00  0.00    +0.000 A 
ATOM     13  C   UNL     1      -4.780  11.419  16.640  0.00  0.00    +0.000 A 
ATOM     14  C   UNL     1      -5.463  11.915  17.747  0.00  0.00    +0.000 A 
ATOM     15  C   UNL     1      -4.775  12.150  18.925  0.00  0.00    +0.000 A 
ATOM     16  C   UNL     1      -3.412  11.867  19.003  0.00  0.00    +0.000 A 
ATOM     17  C   UNL     1      -2.710  11.327  17.915  0.00  0.00    +0.000 A 
ENDBRANCH   7  17
ENDBRANCH   6   8
ENDBRANCH   1   6
BRANCH   3  18
ATOM     18  C   UNL     1       2.538   6.686  19.922  0.00  0.00    +0.000 C 
BRANCH  18  19
ATOM     19  O   UNL     1       1.758   5.592  19.411  0.00  0.00    +0.000 OA
BRANCH  19  20
ATOM     20  C   UNL     1       2.167   4.363  19.838  0.00  0.00    +0.000 C 
ATOM     21  O   UNL     1       2.530   4.138  20.987  0.00  0.00    +0.000 OA
BRANCH  20  22
ATOM     22  C   UNL     1       2.279   3.341  18.668  0.00  0.00    +0.000 C 
ATOM     23  C   UNL     1       1.591   2.042  19.138  0.00  0.00    +0.000 C 
ATOM     24  C   UNL     1       1.537   4.025  17.500  0.00  0.00    +0.000 C 
BRANCH  22  25
ATOM     25  O   UNL     1       3.670   3.142  18.378  0.00  0.00    +0.000 OA
BRANCH  25  26
ATOM     26  C   UNL     1       4.520   4.174  18.091  0.00  0.00    +0.000 A 
ATOM     27  C   UNL     1       4.542   4.946  16.930  0.00  0.00    +0.000 A 
ATOM     28  C   UNL     1       5.487   5.957  16.742  0.00  0.00    +0.000 A 
ATOM     29  C   UNL     1       6.425   6.218  17.732  0.00  0.00    +0.000 A 
ATOM     30 CL   UNL     1       7.593   7.457  17.490  0.00  0.00    +0.000 Cl
ATOM     31  C   UNL     1       6.415   5.478  18.907  0.00  0.00    +0.000 A 
ATOM     32  C   UNL     1       5.467   4.458  19.083  0.00  0.00    +0.000 A 
ENDBRANCH  25  26
ENDBRANCH  22  25
ENDBRANCH  20  22
ENDBRANCH  19  20
ENDBRANCH  18  19
ENDBRANCH   3  18
TORSDOF 9
ENDMDL
MODEL 2
REMARK VINA RESULT:      -7.8      6.564      9.969
REMARK  Name = 
REMARK  12 active torsions:
REMARK  status: ('A' for Active; 'I' for Inactive)
REMARK    1  A    between atoms: C_1  and  C_2
REMARK    2  A    between atoms: C_7  and  N_8
REMARK    3  A    between atoms: C_9  and  C_11
REMARK    4  A    between atoms: C_11  and  C_12
REMARK    5  A    between atoms: C_14  and  C_15
REMARK    6  A    between atoms: C_15  and  O_16
REMARK    7  A    between atoms: O_16  and  C_17
REMARK    8  A    between atoms: C_17  and  C_19
REMARK    9  A    between atoms: C_19  and  C_20
REMARK   10  A    between atoms: C_19  and  C_21
REMARK   11  A    between atoms: C_19  and  O_22
REMARK   12  A    between atoms: O_22  and  C_23
REMARK                            x       y       z     vdW  Elec       q    Type
REMARK                         _______ _______ _______ _____ _____    ______ ____
ROOT
ATOM      1  C   UNL     1       6.490   6.633  17.222  0.00  0.00    +0.000 A 
ATOM      2  N   UNL     1       6.851   7.884  17.015  0.00  0.00    +0.000 NA
ATOM      3  C   UNL     1       7.883   8.223  17.875  0.00  0.00    +0.000 A 
ATOM      4  C   UNL     1       8.309   7.196  18.697  0.00  0.00    +0.000 A 
ATOM      5  S   UNL     1       7.408   5.778  18.393  0.00  0.00    +0.000 S 
ENDROOT
BRANCH   1   6
ATOM      6  C   UNL     1       5.357   5.975  16.519  0.00  0.00    +0.000 C 
BRANCH   6   8
ATOM      7  N   UNL     1       4.048   4.512  18.029  0.00  0.00    +0.000 N 
ATOM      8  C   UNL     1       4.172   5.763  17.446  0.00  0.00    +0.000 C 
ATOM      9  O   UNL     1       3.453   6.736  17.693  0.00  0.00    +0.000 OA
ATOM     10  H   UNL     1       4.792   3.847  17.818  0.00  0.00    +0.000 HD
BRANCH   7  17
ATOM     11  C   UNL     1       3.470   1.621  18.309  0.00  0.00    +0.000 C 
ATOM     12  C   UNL     1       2.762   2.702  19.079  0.00  0.00    +0.000 A 
ATOM     13  C   UNL     1       1.767   2.300  19.995  0.00  0.00    +0.000 A 
ATOM     14  C   UNL     1       1.046   3.232  20.735  0.00  0.00    +0.000 A 
ATOM     15  C   UNL     1       1.283   4.584  20.549  0.00  0.00    +0.000 A 
ATOM     16  C   UNL     1       2.258   5.000  19.643  0.00  0.00    +0.000 A 
ATOM     17  C   UNL     1       3.028   4.080  18.916  0.00  0.00    +0.000 A 
ENDBRANCH   7  17
ENDBRANCH   6   8
ENDBRANCH   1   6
BRANCH   3  18
ATOM     18  C   UNL     1       8.362   9.634  17.903  0.00  0.00    +0.000 C 
BRANCH  18  19
ATOM     19  O   UNL     1       9.230   9.962  19.001  0.00  0.00    +0.000 OA
BRANCH  19  20
ATOM     20  C   UNL     1       9.983  11.082  18.807  0.00  0.00    +0.000 C 
ATOM     21  O   UNL     1      10.800  11.194  17.900  0.00  0.00    +0.000 OA
BRANCH  20  22
ATOM     22  C   UNL     1       9.806  12.115  19.959  0.00  0.00    +0.000 C 
ATOM     23  C   UNL     1       9.311  11.333  21.194  0.00  0.00    +0.000 C 
ATOM     24  C   UNL     1      11.217  12.709  20.150  0.00  0.00    +0.000 C 
BRANCH  22  25
ATOM     25  O   UNL     1       8.859  13.106  19.531  0.00  0.00    +0.000 OA
BRANCH  25  26
ATOM     26  C   UNL     1       9.236  14.288  18.958  0.00  0.00    +0.000 A 
ATOM     27  C   UNL     1       9.967  14.457  17.783  0.00  0.00    +0.000 A 
ATOM     28  C   UNL     1      10.320  15.726  17.316  0.00  0.00    +0.000 A 
ATOM     29  C   UNL     1       9.929  16.854  18.024  0.00  0.00    +0.000 A 
ATOM     30 CL   UNL     1      10.376  18.413  17.451  0.00  0.00    +0.000 Cl
ATOM     31  C   UNL     1       9.184  16.718  19.189  0.00  0.00    +0.000 A 
ATOM     32  C   UNL     1       8.842  15.439  19.654  0.00  0.00    +0.000 A 
ENDBRANCH  25  26
ENDBRANCH  22  25
ENDBRANCH  20  22
ENDBRANCH  19  20
ENDBRANCH  18  19
ENDBRANCH   3  18
TORSDOF 9
ENDMDL
MODEL 3
REMARK VINA RESULT:      -7.7      2.303      3.691
REMARK  Name = 
REMARK  12 active torsions:
REMARK  status: ('A' for Active; 'I' for Inactive)
REMARK    1  A    between atoms: C_1  and  C_2
REMARK    2  A    between atoms: C_7  and  N_8
REMARK    3  A    between atoms: C_9  and  C_11
REMARK    4  A    between atoms: C_11  and  C_12
REMARK    5  A    between atoms: C_14  and  C_15
REMARK    6  A    between atoms: C_15  and  O_16
REMARK    7  A    between atoms: O_16  and  C_17
REMARK    8  A    between atoms: C_17  and  C_19
REMARK    9  A    between atoms: C_19  and  C_20
REMARK   10  A    between atoms: C_19  and  C_21
REMARK   11  A    between atoms: C_19  and  O_22
REMARK   12  A    between atoms: O_22  and  C_23
REMARK                            x       y       z     vdW  Elec       q    Type
REMARK                         _______ _______ _______ _____ _____    ______ ____
ROOT
ATOM      1  C   UNL     1       1.172   9.060  19.826  0.00  0.00    +0.000 A 
ATOM      2  N   UNL     1       1.868   8.981  18.709  0.00  0.00    +0.000 NA
ATOM      3  C   UNL     1       2.552   7.775  18.667  0.00  0.00    +0.000 A 
ATOM      4  C   UNL     1       2.322   6.945  19.748  0.00  0.00    +0.000 A 
ATOM      5  S   UNL     1       1.233   7.677  20.841  0.00  0.00    +0.000 S 
ENDROOT
BRANCH   1   6
ATOM      6  C   UNL     1       0.384  10.257  20.222  0.00  0.00    +0.000 C 
BRANCH   6   8
ATOM      7  N   UNL     1      -1.518  10.078  18.646  0.00  0.00    +0.000 N 
ATOM      8  C   UNL     1      -0.416  10.810  19.055  0.00  0.00    +0.000 C 
ATOM      9  O   UNL     1      -0.092  11.915  18.607  0.00  0.00    +0.000 OA
ATOM     10  H   UNL     1      -1.727   9.243  19.194  0.00  0.00    +0.000 HD
BRANCH   7  17
ATOM     11  C   UNL     1      -3.820  11.878  19.127  0.00  0.00    +0.000 C 
ATOM     12  C   UNL     1      -3.490  11.267  17.793  0.00  0.00    +0.000 A 
ATOM     13  C   UNL     1      -4.334  11.588  16.708  0.00  0.00    +0.000 A 
ATOM     14  C   UNL     1      -4.118  11.052  15.441  0.00  0.00    +0.000 A 
ATOM     15  C   UNL     1      -3.074  10.163  15.244  0.00  0.00    +0.000 A 
ATOM     16  C   UNL     1      -2.234   9.830  16.307  0.00  0.00    +0.000 A 
ATOM     17  C   UNL     1      -2.405  10.388  17.582  0.00  0.00    +0.000 A 
ENDBRANCH   7  17
ENDBRANCH   6   8
ENDBRANCH   1   6
BRANCH   3  18
ATOM     18  C   UNL     1       3.506   7.529  17.550  0.00  0.00    +0.000 C 
BRANCH  18  19
ATOM     19  O   UNL     1       3.720   6.145  17.225  0.00  0.00    +0.000 OA
BRANCH  19  20
ATOM     20  C   UNL     1       4.867   5.902  16.528  0.00  0.00    +0.000 C 
ATOM     21  O   UNL     1       5.232   6.584  15.577  0.00  0.00    +0.000 OA
BRANCH  20  22
ATOM     22  C   UNL     1       5.552   4.575  16.968  0.00  0.00    +0.000 C 
ATOM     23  C   UNL     1       6.689   4.300  15.962  0.00  0.00    +0.000 C 
ATOM     24  C   UNL     1       6.068   4.873  18.392  0.00  0.00    +0.000 C 
BRANCH  22  25
ATOM     25  O   UNL     1       4.562   3.536  16.963  0.00  0.00    +0.000 OA
BRANCH  25  26
ATOM     26  C   UNL     1       3.708   3.324  18.009  0.00  0.00    +0.000 A 
ATOM     27  C   UNL     1       2.337   3.574  18.039  0.00  0.00    +0.000 A 
ATOM     28  C   UNL     1       1.576   3.345  19.188  0.00  0.00    +0.000 A 
ATOM     29  C   UNL     1       2.185   2.845  20.330  0.00  0.00    +0.000 A 
ATOM     30 CL   UNL     1       1.245   2.575  21.745  0.00  0.00    +0.000 Cl
ATOM     31  C   UNL     1       3.547   2.569  20.324  0.00  0.00    +0.000 A 
ATOM     32  C   UNL     1       4.304   2.810  19.168  0.00  0.00    +0.000 A 
ENDBRANCH  25  26
ENDBRANCH  22  25
ENDBRANCH  20  22
ENDBRANCH  19  20
ENDBRANCH  18  19
ENDBRANCH   3  18
TORSDOF 9
ENDMDL
MODEL 4
REMARK VINA RESULT:      -7.6      1.094      1.662
REMARK  Name = 
REMARK  12 active torsions:
REMARK  status: ('A' for Active; 'I' for Inactive)
REMARK    1  A    between atoms: C_1  and  C_2
REMARK    2  A    between atoms: C_7  and  N_8
REMARK    3  A    between atoms: C_9  and  C_11
REMARK    4  A    between atoms: C_11  and  C_12
REMARK    5  A    between atoms: C_14  and  C_15
REMARK    6  A    between atoms: C_15  and  O_16
REMARK    7  A    between atoms: O_16  and  C_17
REMARK    8  A    between atoms: C_17  and  C_19
REMARK    9  A    between atoms: C_19  and  C_20
REMARK   10  A    between atoms: C_19  and  C_21
REMARK   11  A    between atoms: C_19  and  O_22
REMARK   12  A    between atoms: O_22  and  C_23
REMARK                            x       y       z     vdW  Elec       q    Type
REMARK                         _______ _______ _______ _____ _____    ______ ____
ROOT
ATOM      1  C   UNL     1       1.094   9.616  19.618  0.00  0.00    +0.000 A 
ATOM      2  N   UNL     1       1.599   8.553  20.212  0.00  0.00    +0.000 NA
ATOM      3  C   UNL     1       2.175   7.717  19.267  0.00  0.00    +0.000 A 
ATOM      4  C   UNL     1       2.124   8.194  17.970  0.00  0.00    +0.000 A 
ATOM      5  S   UNL     1       1.346   9.713  17.923  0.00  0.00    +0.000 S 
ENDROOT
BRANCH   1   6
ATOM      6  C   UNL     1       0.336  10.677  20.334  0.00  0.00    +0.000 C 
BRANCH   6   8
ATOM      7  N   UNL     1      -1.916  10.704  19.304  0.00  0.00    +0.000 N 
ATOM      8  C   UNL     1      -0.690  11.337  19.429  0.00  0.00    +0.000 C 
ATOM      9  O   UNL     1      -0.405  12.435  18.940  0.00  0.00    +0.000 OA
ATOM     10  H   UNL     1      -2.043   9.863  19.868  0.00  0.00    +0.000 HD
BRANCH   7  17
ATOM     11  C   UNL     1      -2.114   9.848  16.476  0.00  0.00    +0.000 C 
ATOM     12  C   UNL     1      -3.139  10.700  17.174  0.00  0.00    +0.000 A 
ATOM     13  C   UNL     1      -4.265  11.103  16.426  0.00  0.00    +0.000 A 
ATOM     14  C   UNL     1      -5.252  11.910  16.983  0.00  0.00    +0.000 A 
ATOM     15  C   UNL     1      -5.116  12.355  18.288  0.00  0.00    +0.000 A 
ATOM     16  C   UNL     1      -4.007  11.971  19.041  0.00  0.00    +0.000 A 
ATOM     17  C   UNL     1      -3.019  11.124  18.516  0.00  0.00    +0.000 A 
ENDBRANCH   7  17
ENDBRANCH   6   8
ENDBRANCH   1   6
BRANCH   3  18
ATOM     18  C   UNL     1       2.694   6.390  19.702  0.00  0.00    +0.000 C 
BRANCH  18  19
ATOM     19  O   UNL     1       1.726   5.328  19.704  0.00  0.00    +0.000 OA
BRANCH  19  20
ATOM     20  C   UNL     1       1.807   4.492  18.629  0.00  0.00    +0.000 C 
ATOM     21  O   UNL     1       1.275   4.731  17.551  0.00  0.00    +0.000 OA
BRANCH  20  22
ATOM     22  C   UNL     1       2.497   3.143  18.985  0.00  0.00    +0.000 C 
ATOM     23  C   UNL     1       2.829   3.189  20.491  0.00  0.00    +0.000 C 
ATOM     24  C   UNL     1       1.439   2.076  18.635  0.00  0.00    +0.000 C 
BRANCH  22  25
ATOM     25  O   UNL     1       3.676   3.015  18.175  0.00  0.00    +0.000 OA
BRANCH  25  26
ATOM     26  C   UNL     1       4.630   3.992  18.102  0.00  0.00    +0.000 A 
ATOM     27  C   UNL     1       5.536   4.359  19.097  0.00  0.00    +0.000 A 
ATOM     28  C   UNL     1       6.445   5.403  18.910  0.00  0.00    +0.000 A 
ATOM     29  C   UNL     1       6.467   6.091  17.705  0.00  0.00    +0.000 A 
ATOM     30 CL   UNL     1       7.581   7.382  17.484  0.00  0.00    +0.000 Cl
ATOM     31  C   UNL     1       5.589   5.735  16.689  0.00  0.00    +0.000 A 
ATOM     32  C   UNL     1       4.674   4.691  16.889  0.00  0.00    +0.000 A 
ENDBRANCH  25  26
ENDBRANCH  22  25
ENDBRANCH  20  22
ENDBRANCH  19  20
ENDBRANCH  18  19
ENDBRANCH   3  18
TORSDOF 9
ENDMDL
MODEL 5
REMARK VINA RESULT:      -7.6      1.601      1.886
REMARK  Name = 
REMARK  12 active torsions:
REMARK  status: ('A' for Active; 'I' for Inactive)
REMARK    1  A    between atoms: C_1  and  C_2
REMARK    2  A    between atoms: C_7  and  N_8
REMARK    3  A    between atoms: C_9  and  C_11
REMARK    4  A    between atoms: C_11  and  C_12
REMARK    5  A    between atoms: C_14  and  C_15
REMARK    6  A    between atoms: C_15  and  O_16
REMARK    7  A    between atoms: O_16  and  C_17
REMARK    8  A    between atoms: C_17  and  C_19
REMARK    9  A    between atoms: C_19  and  C_20
REMARK   10  A    between atoms: C_19  and  C_21
REMARK   11  A    between atoms: C_19  and  O_22
REMARK   12  A    between atoms: O_22  and  C_23
REMARK                            x       y       z     vdW  Elec       q    Type
REMARK                         _______ _______ _______ _____ _____    ______ ____
ROOT
ATOM      1  C   UNL     1       0.636  10.702  20.824  0.00  0.00    +0.000 A 
ATOM      2  N   UNL     1       1.064   9.983  19.805  0.00  0.00    +0.000 NA
ATOM      3  C   UNL     1       1.336   8.690  20.225  0.00  0.00    +0.000 A 
ATOM      4  C   UNL     1       1.067   8.450  21.560  0.00  0.00    +0.000 A 
ATOM      5  S   UNL     1       0.462   9.860  22.309  0.00  0.00    +0.000 S 
ENDROOT
BRANCH   1   6
ATOM      6  C   UNL     1       0.327  12.154  20.735  0.00  0.00    +0.000 C 
BRANCH   6   8
ATOM      7  N   UNL     1      -1.808  11.445  19.700  0.00  0.00    +0.000 N 
ATOM      8  C   UNL     1      -0.830  12.422  19.788  0.00  0.00    +0.000 C 
ATOM      9  O   UNL     1      -0.874  13.523  19.230  0.00  0.00    +0.000 OA
ATOM     10  H   UNL     1      -1.690  10.640  20.315  0.00  0.00    +0.000 HD
BRANCH   7  17
ATOM     11  C   UNL     1      -1.795  10.060  17.082  0.00  0.00    +0.000 C 
ATOM     12  C   UNL     1      -2.984  10.789  17.646  0.00  0.00    +0.000 A 
ATOM     13  C   UNL     1      -4.164  10.798  16.872  0.00  0.00    +0.000 A 
ATOM     14  C   UNL     1      -5.307  11.465  17.305  0.00  0.00    +0.000 A 
ATOM     15  C   UNL     1      -5.280  12.161  18.502  0.00  0.00    +0.000 A 
ATOM     16  C   UNL     1      -4.120  12.168  19.276  0.00  0.00    +0.000 A 
ATOM     17  C   UNL     1      -2.969  11.468  18.884  0.00  0.00    +0.000 A 
ENDBRANCH   7  17
ENDBRANCH   6   8
ENDBRANCH   1   6
BRANCH   3  18
ATOM     18  C   UNL     1       1.956   7.737  19.262  0.00  0.00    +0.000 C 
BRANCH  18  19
ATOM     19  O   UNL     1       2.740   6.691  19.860  0.00  0.00    +0.000 OA
BRANCH  19  20
ATOM     20  C   UNL     1       2.123   5.475  19.893  0.00  0.00    +0.000 C 
ATOM     21  O   UNL     1       1.240   5.192  20.695  0.00  0.00    +0.000 OA
BRANCH  20  22
ATOM     22  C   UNL     1       2.785   4.454  18.922  0.00  0.00    +0.000 C 
ATOM     23  C   UNL     1       2.752   3.079  19.623  0.00  0.00    +0.000 C 
ATOM     24  C   UNL     1       1.898   4.507  17.661  0.00  0.00    +0.000 C 
BRANCH  22  25
ATOM     25  O   UNL     1       4.125   4.893  18.655  0.00  0.00    +0.000 OA
BRANCH  25  26
ATOM     26  C   UNL     1       4.719   4.749  17.432  0.00  0.00    +0.000 A 
ATOM     27  C   UNL     1       5.077   3.555  16.806  0.00  0.00    +0.000 A 
ATOM     28  C   UNL     1       5.713   3.543  15.562  0.00  0.00    +0.000 A 
ATOM     29  C   UNL     1       5.989   4.741  14.917  0.00  0.00    +0.000 A 
ATOM     30 CL   UNL     1       6.781   4.720  13.391  0.00  0.00    +0.000 Cl
ATOM     31  C   UNL     1       5.627   5.945  15.508  0.00  0.00    +0.000 A 
ATOM     32  C   UNL     1       4.997   5.947  16.761  0.00  0.00    +0.000 A 
ENDBRANCH  25  26
ENDBRANCH  22  25
ENDBRANCH  20  22
ENDBRANCH  19  20
ENDBRANCH  18  19
ENDBRANCH   3  18
TORSDOF 9
ENDMDL
MODEL 6
REMARK VINA RESULT:      -7.6      1.370      2.238
REMARK  Name = 
REMARK  12 active torsions:
REMARK  status: ('A' for Active; 'I' for Inactive)
REMARK    1  A    between atoms: C_1  and  C_2
REMARK    2  A    between atoms: C_7  and  N_8
REMARK    3  A    between atoms: C_9  and  C_11
REMARK    4  A    between atoms: C_11  and  C_12
REMARK    5  A    between atoms: C_14  and  C_15
REMARK    6  A    between atoms: C_15  and  O_16
REMARK    7  A    between atoms: O_16  and  C_17
REMARK    8  A    between atoms: C_17  and  C_19
REMARK    9  A    between atoms: C_19  and  C_20
REMARK   10  A    between atoms: C_19  and  C_21
REMARK   11  A    between atoms: C_19  and  O_22
REMARK   12  A    between atoms: O_22  and  C_23
REMARK                            x       y       z     vdW  Elec       q    Type
REMARK                         _______ _______ _______ _____ _____    ______ ____
ROOT
ATOM      1  C   UNL     1       1.260   9.392  19.697  0.00  0.00    +0.000 A 
ATOM      2  N   UNL     1       1.434   8.373  20.515  0.00  0.00    +0.000 NA
ATOM      3  C   UNL     1       2.112   7.356  19.861  0.00  0.00    +0.000 A 
ATOM      4  C   UNL     1       2.472   7.649  18.559  0.00  0.00    +0.000 A 
ATOM      5  S   UNL     1       1.959   9.222  18.138  0.00  0.00    +0.000 S 
ENDROOT
BRANCH   1   6
ATOM      6  C   UNL     1       0.501  10.618  20.058  0.00  0.00    +0.000 C 
BRANCH   6   8
ATOM      7  N   UNL     1      -1.441  10.256  18.564  0.00  0.00    +0.000 N 
ATOM      8  C   UNL     1      -0.386  11.082  18.916  0.00  0.00    +0.000 C 
ATOM      9  O   UNL     1      -0.171  12.201  18.438  0.00  0.00    +0.000 OA
ATOM     10  H   UNL     1      -1.559   9.418  19.134  0.00  0.00    +0.000 HD
BRANCH   7  17
ATOM     11  C   UNL     1      -3.801  11.970  19.076  0.00  0.00    +0.000 C 
ATOM     12  C   UNL     1      -3.506  11.311  17.756  0.00  0.00    +0.000 A 
ATOM     13  C   UNL     1      -4.415  11.540  16.701  0.00  0.00    +0.000 A 
ATOM     14  C   UNL     1      -4.233  10.954  15.451  0.00  0.00    +0.000 A 
ATOM     15  C   UNL     1      -3.159  10.105  15.244  0.00  0.00    +0.000 A 
ATOM     16  C   UNL     1      -2.255   9.862  16.277  0.00  0.00    +0.000 A 
ATOM     17  C   UNL     1      -2.391  10.474  17.533  0.00  0.00    +0.000 A 
ENDBRANCH   7  17
ENDBRANCH   6   8
ENDBRANCH   1   6
BRANCH   3  18
ATOM     18  C   UNL     1       2.304   6.054  20.560  0.00  0.00    +0.000 C 
BRANCH  18  19
ATOM     19  O   UNL     1       1.281   5.074  20.316  0.00  0.00    +0.000 OA
BRANCH  19  20
ATOM     20  C   UNL     1       1.570   4.198  19.312  0.00  0.00    +0.000 C 
ATOM     21  O   UNL     1       1.315   4.419  18.134  0.00  0.00    +0.000 OA
BRANCH  20  22
ATOM     22  C   UNL     1       2.094   2.836  19.854  0.00  0.00    +0.000 C 
ATOM     23  C   UNL     1       1.486   2.646  21.260  0.00  0.00    +0.000 C 
ATOM     24  C   UNL     1       1.578   1.801  18.832  0.00  0.00    +0.000 C 
BRANCH  22  25
ATOM     25  O   UNL     1       3.528   2.889  19.889  0.00  0.00    +0.000 OA
BRANCH  25  26
ATOM     26  C   UNL     1       4.265   3.546  18.943  0.00  0.00    +0.000 A 
ATOM     27  C   UNL     1       5.075   4.664  19.136  0.00  0.00    +0.000 A 
ATOM     28  C   UNL     1       5.755   5.267  18.075  0.00  0.00    +0.000 A 
ATOM     29  C   UNL     1       5.640   4.743  16.795  0.00  0.00    +0.000 A 
ATOM     30 CL   UNL     1       6.470   5.496  15.491  0.00  0.00    +0.000 Cl
ATOM     31  C   UNL     1       4.855   3.618  16.576  0.00  0.00    +0.000 A 
ATOM     32  C   UNL     1       4.169   3.025  17.646  0.00  0.00    +0.000 A 
ENDBRANCH  25  26
ENDBRANCH  22  25
ENDBRANCH  20  22
ENDBRANCH  19  20
ENDBRANCH  18  19
ENDBRANCH   3  18
TORSDOF 9
ENDMDL
MODEL 7
REMARK VINA RESULT:      -7.6      1.603      2.273
REMARK  Name = 
REMARK  12 active torsions:
REMARK  status: ('A' for Active; 'I' for Inactive)
REMARK    1  A    between atoms: C_1  and  C_2
REMARK    2  A    between atoms: C_7  and  N_8
REMARK    3  A    between atoms: C_9  and  C_11
REMARK    4  A    between atoms: C_11  and  C_12
REMARK    5  A    between atoms: C_14  and  C_15
REMARK    6  A    between atoms: C_15  and  O_16
REMARK    7  A    between atoms: O_16  and  C_17
REMARK    8  A    between atoms: C_17  and  C_19
REMARK    9  A    between atoms: C_19  and  C_20
REMARK   10  A    between atoms: C_19  and  C_21
REMARK   11  A    between atoms: C_19  and  O_22
REMARK   12  A    between atoms: O_22  and  C_23
REMARK                            x       y       z     vdW  Elec       q    Type
REMARK                         _______ _______ _______ _____ _____    ______ ____
ROOT
ATOM      1  C   UNL     1       0.326  10.670  21.061  0.00  0.00    +0.000 A 
ATOM      2  N   UNL     1       1.157   9.829  20.477  0.00  0.00    +0.000 NA
ATOM      3  C   UNL     1       1.208   8.645  21.196  0.00  0.00    +0.000 A 
ATOM      4  C   UNL     1       0.375   8.605  22.298  0.00  0.00    +0.000 A 
ATOM      5  S   UNL     1      -0.492  10.069  22.445  0.00  0.00    +0.000 S 
ENDROOT
BRANCH   1   6
ATOM      6  C   UNL     1       0.097  12.062  20.590  0.00  0.00    +0.000 C 
BRANCH   6   8
ATOM      7  N   UNL     1      -1.568  11.056  19.056  0.00  0.00    +0.000 N 
ATOM      8  C   UNL     1      -0.671  12.088  19.279  0.00  0.00    +0.000 C 
ATOM      9  O   UNL     1      -0.518  13.068  18.542  0.00  0.00    +0.000 OA
ATOM     10  H   UNL     1      -1.670  10.383  19.816  0.00  0.00    +0.000 HD
BRANCH   7  17
ATOM     11  C   UNL     1      -4.313  12.167  19.007  0.00  0.00    +0.000 C 
ATOM     12  C   UNL     1      -3.686  11.414  17.865  0.00  0.00    +0.000 A 
ATOM     13  C   UNL     1      -4.463  11.241  16.700  0.00  0.00    +0.000 A 
ATOM     14  C   UNL     1      -3.972  10.539  15.602  0.00  0.00    +0.000 A 
ATOM     15  C   UNL     1      -2.710   9.971  15.662  0.00  0.00    +0.000 A 
ATOM     16  C   UNL     1      -1.932  10.128  16.809  0.00  0.00    +0.000 A 
ATOM     17  C   UNL     1      -2.385  10.866  17.912  0.00  0.00    +0.000 A 
ENDBRANCH   7  17
ENDBRANCH   6   8
ENDBRANCH   1   6
BRANCH   3  18
ATOM     18  C   UNL     1       2.184   7.597  20.786  0.00  0.00    +0.000 C 
BRANCH  18  19
ATOM     19  O   UNL     1       1.786   6.801  19.658  0.00  0.00    +0.000 OA
BRANCH  19  20
ATOM     20  C   UNL     1       1.714   5.463  19.911  0.00  0.00    +0.000 C 
ATOM     21  O   UNL     1       1.143   4.994  20.890  0.00  0.00    +0.000 OA
BRANCH  20  22
ATOM     22  C   UNL     1       2.576   4.629  18.919  0.00  0.00    +0.000 C 
ATOM     23  C   UNL     1       2.932   3.307  19.631  0.00  0.00    +0.000 C 
ATOM     24  C   UNL     1       1.653   4.426  17.699  0.00  0.00    +0.000 C 
BRANCH  22  25
ATOM     25  O   UNL     1       3.744   5.395  18.587  0.00  0.00    +0.000 OA
BRANCH  25  26
ATOM     26  C   UNL     1       4.482   5.165  17.459  0.00  0.00    +0.000 A 
ATOM     27  C   UNL     1       5.078   3.965  17.075  0.00  0.00    +0.000 A 
ATOM     28  C   UNL     1       5.839   3.867  15.908  0.00  0.00    +0.000 A 
ATOM     29  C   UNL     1       6.005   4.980  15.096  0.00  0.00    +0.000 A 
ATOM     30 CL   UNL     1       6.952   4.856  13.666  0.00  0.00    +0.000 Cl
ATOM     31  C   UNL     1       5.407   6.185  15.444  0.00  0.00    +0.000 A 
ATOM     32  C   UNL     1       4.651   6.276  16.622  0.00  0.00    +0.000 A 
ENDBRANCH  25  26
ENDBRANCH  22  25
ENDBRANCH  20  22
ENDBRANCH  19  20
ENDBRANCH  18  19
ENDBRANCH   3  18
TORSDOF 9
ENDMDL
MODEL 8
REMARK VINA RESULT:      -7.5      3.164      5.210
REMARK  Name = 
REMARK  12 active torsions:
REMARK  status: ('A' for Active; 'I' for Inactive)
REMARK    1  A    between atoms: C_1  and  C_2
REMARK    2  A    between atoms: C_7  and  N_8
REMARK    3  A    between atoms: C_9  and  C_11
REMARK    4  A    between atoms: C_11  and  C_12
REMARK    5  A    between atoms: C_14  and  C_15
REMARK    6  A    between atoms: C_15  and  O_16
REMARK    7  A    between atoms: O_16  and  C_17
REMARK    8  A    between atoms: C_17  and  C_19
REMARK    9  A    between atoms: C_19  and  C_20
REMARK   10  A    between atoms: C_19  and  C_21
REMARK   11  A    between atoms: C_19  and  O_22
REMARK   12  A    between atoms: O_22  and  C_23
REMARK                            x       y       z     vdW  Elec       q    Type
REMARK                         _______ _______ _______ _____ _____    ______ ____
ROOT
ATOM      1  C   UNL     1       0.782   9.234  19.468  0.00  0.00    +0.000 A 
ATOM      2  N   UNL     1       1.398   9.044  18.318  0.00  0.00    +0.000 NA
ATOM      3  C   UNL     1       2.366   8.062  18.460  0.00  0.00    +0.000 A 
ATOM      4  C   UNL     1       2.433   7.498  19.720  0.00  0.00    +0.000 A 
ATOM      5  S   UNL     1       1.269   8.203  20.751  0.00  0.00    +0.000 S 
ENDROOT
BRANCH   1   6
ATOM      6  C   UNL     1      -0.260  10.272  19.683  0.00  0.00    +0.000 C 
BRANCH   6   8
ATOM      7  N   UNL     1       1.460  12.054  19.710  0.00  0.00    +0.000 N 
ATOM      8  C   UNL     1       0.221  11.645  19.245  0.00  0.00    +0.000 C 
ATOM      9  O   UNL     1      -0.473  12.265  18.432  0.00  0.00    +0.000 OA
ATOM     10  H   UNL     1       1.968  11.377  20.279  0.00  0.00    +0.000 HD
BRANCH   7  17
ATOM     11  C   UNL     1       1.140  14.322  21.587  0.00  0.00    +0.000 C 
ATOM     12  C   UNL     1       1.986  14.368  20.344  0.00  0.00    +0.000 A 
ATOM     13  C   UNL     1       2.672  15.570  20.072  0.00  0.00    +0.000 A 
ATOM     14  C   UNL     1       3.460  15.711  18.934  0.00  0.00    +0.000 A 
ATOM     15  C   UNL     1       3.552  14.663  18.032  0.00  0.00    +0.000 A 
ATOM     16  C   UNL     1       2.875  13.470  18.282  0.00  0.00    +0.000 A 
ATOM     17  C   UNL     1       2.109  13.288  19.442  0.00  0.00    +0.000 A 
ENDBRANCH   7  17
ENDBRANCH   6   8
ENDBRANCH   1   6
BRANCH   3  18
ATOM     18  C   UNL     1       3.273   7.776  17.313  0.00  0.00    +0.000 C 
BRANCH  18  19
ATOM     19  O   UNL     1       4.504   7.119  17.659  0.00  0.00    +0.000 OA
BRANCH  19  20
ATOM     20  C   UNL     1       5.090   6.445  16.629  0.00  0.00    +0.000 C 
ATOM     21  O   UNL     1       5.037   6.822  15.464  0.00  0.00    +0.000 OA
BRANCH  20  22
ATOM     22  C   UNL     1       5.676   5.075  17.081  0.00  0.00    +0.000 C 
ATOM     23  C   UNL     1       6.819   4.729  16.103  0.00  0.00    +0.000 C 
ATOM     24  C   UNL     1       6.173   5.335  18.518  0.00  0.00    +0.000 C 
BRANCH  22  25
ATOM     25  O   UNL     1       4.621   4.102  17.044  0.00  0.00    +0.000 OA
BRANCH  25  26
ATOM     26  C   UNL     1       3.923   3.728  18.159  0.00  0.00    +0.000 A 
ATOM     27  C   UNL     1       4.388   2.953  19.220  0.00  0.00    +0.000 A 
ATOM     28  C   UNL     1       3.560   2.609  20.292  0.00  0.00    +0.000 A 
ATOM     29  C   UNL     1       2.246   3.054  20.319  0.00  0.00    +0.000 A 
ATOM     30 CL   UNL     1       1.229   2.619  21.636  0.00  0.00    +0.000 Cl
ATOM     31  C   UNL     1       1.761   3.844  19.285  0.00  0.00    +0.000 A 
ATOM     32  C   UNL     1       2.597   4.176  18.208  0.00  0.00    +0.000 A 
ENDBRANCH  25  26
ENDBRANCH  22  25
ENDBRANCH  20  22
ENDBRANCH  19  20
ENDBRANCH  18  19
ENDBRANCH   3  18
TORSDOF 9
ENDMDL
MODEL 9
REMARK VINA RESULT:      -7.4      2.710      3.645
REMARK  Name = 
REMARK  12 active torsions:
REMARK  status: ('A' for Active; 'I' for Inactive)
REMARK    1  A    between atoms: C_1  and  C_2
REMARK    2  A    between atoms: C_7  and  N_8
REMARK    3  A    between atoms: C_9  and  C_11
REMARK    4  A    between atoms: C_11  and  C_12
REMARK    5  A    between atoms: C_14  and  C_15
REMARK    6  A    between atoms: C_15  and  O_16
REMARK    7  A    between atoms: O_16  and  C_17
REMARK    8  A    between atoms: C_17  and  C_19
REMARK    9  A    between atoms: C_19  and  C_20
REMARK   10  A    between atoms: C_19  and  C_21
REMARK   11  A    between atoms: C_19  and  O_22
REMARK   12  A    between atoms: O_22  and  C_23
REMARK                            x       y       z     vdW  Elec       q    Type
REMARK                         _______ _______ _______ _____ _____    ______ ____
ROOT
ATOM      1  C   UNL     1       1.019   9.842  20.171  0.00  0.00    +0.000 A 
ATOM      2  N   UNL     1       1.584   9.046  19.284  0.00  0.00    +0.000 NA
ATOM      3  C   UNL     1       1.804   7.798  19.847  0.00  0.00    +0.000 A 
ATOM      4  C   UNL     1       1.358   7.668  21.149  0.00  0.00    +0.000 A 
ATOM      5  S   UNL     1       0.651   9.126  21.687  0.00  0.00    +0.000 S 
ENDROOT
BRANCH   1   6
ATOM      6  C   UNL     1       0.717  11.276  19.916  0.00  0.00    +0.000 C 
BRANCH   6   8
ATOM      7  N   UNL     1      -0.393  12.307  21.875  0.00  0.00    +0.000 N 
ATOM      8  C   UNL     1      -0.548  11.716  20.632  0.00  0.00    +0.000 C 
ATOM      9  O   UNL     1      -1.620  11.605  20.028  0.00  0.00    +0.000 OA
ATOM     10  H   UNL     1       0.569  12.437  22.190  0.00  0.00    +0.000 HD
BRANCH   7  17
ATOM     11  C   UNL     1      -0.316  15.106  22.840  0.00  0.00    +0.000 C 
ATOM     12  C   UNL     1      -1.409  14.128  23.173  0.00  0.00    +0.000 A 
ATOM     13  C   UNL     1      -2.464  14.589  23.990  0.00  0.00    +0.000 A 
ATOM     14  C   UNL     1      -3.507  13.747  24.367  0.00  0.00    +0.000 A 
ATOM     15  C   UNL     1      -3.498  12.423  23.959  0.00  0.00    +0.000 A 
ATOM     16  C   UNL     1      -2.461  11.950  23.157  0.00  0.00    +0.000 A 
ATOM     17  C   UNL     1      -1.420  12.788  22.728  0.00  0.00    +0.000 A 
ENDBRANCH   7  17
ENDBRANCH   6   8
ENDBRANCH   1   6
BRANCH   3  18
ATOM     18  C   UNL     1       2.553   6.777  19.061  0.00  0.00    +0.000 C 
BRANCH  18  19
ATOM     19  O   UNL     1       2.303   5.413  19.441  0.00  0.00    +0.000 OA
BRANCH  19  20
ATOM     20  C   UNL     1       2.161   4.555  18.391  0.00  0.00    +0.000 C 
ATOM     21  O   UNL     1       1.352   4.729  17.486  0.00  0.00    +0.000 OA
BRANCH  20  22
ATOM     22  C   UNL     1       3.012   3.264  18.567  0.00  0.00    +0.000 C 
ATOM     23  C   UNL     1       3.453   3.213  20.046  0.00  0.00    +0.000 C 
ATOM     24  C   UNL     1       2.046   2.122  18.189  0.00  0.00    +0.000 C 
BRANCH  22  25
ATOM     25  O   UNL     1       4.132   3.339  17.672  0.00  0.00    +0.000 OA
BRANCH  25  26
ATOM     26  C   UNL     1       5.033   4.368  17.701  0.00  0.00    +0.000 A 
ATOM     27  C   UNL     1       5.991   4.618  18.681  0.00  0.00    +0.000 A 
ATOM     28  C   UNL     1       6.836   5.728  18.613  0.00  0.00    +0.000 A 
ATOM     29  C   UNL     1       6.737   6.605  17.541  0.00  0.00    +0.000 A 
ATOM     30 CL   UNL     1       7.771   7.977  17.467  0.00  0.00    +0.000 Cl
ATOM     31  C   UNL     1       5.803   6.371  16.539  0.00  0.00    +0.000 A 
ATOM     32  C   UNL     1       4.954   5.257  16.622  0.00  0.00    +0.000 A 
ENDBRANCH  25  26
ENDBRANCH  22  25
ENDBRANCH  20  22
ENDBRANCH  19  20
ENDBRANCH  18  19
ENDBRANCH   3  18
TORSDOF 9
ENDMDL
