MODEL 1
REMARK VINA RESULT:      -8.4      0.000      0.000
REMARK  Name = 
REMARK  7 active torsions:
REMARK  status: ('A' for Active; 'I' for Inactive)
REMARK    1  A    between atoms: C_2  and  N_3
REMARK    2  A    between atoms: C_7  and  N_8
REMARK    3  A    between atoms: C_10  and  C_11
REMARK    4  A    between atoms: C_14  and  O_15
REMARK    5  A    between atoms: O_15  and  C_16
REMARK    6  A    between atoms: C_24  and  C_25
REMARK    7  A    between atoms: C_28  and  N_29
REMARK                            x       y       z     vdW  Elec       q    Type
REMARK                         _______ _______ _______ _____ _____    ______ ____
ROOT
ATOM      1  N   UNL     1       3.732   3.966  17.953  0.00  0.00    +0.000 N 
ATOM      2  N   UNL     1       2.974   4.920  18.536  0.00  0.00    +0.000 NA
ATOM      3  C   UNL     1       3.496   6.091  18.119  0.00  0.00    +0.000 A 
ATOM      4  C   UNL     1       4.589   5.872  17.212  0.00  0.00    +0.000 A 
ATOM      5  C   UNL     1       4.705   4.492  17.134  0.00  0.00    +0.000 A 
ENDROOT
BRANCH   1  10
ATOM      6  N   UNL     1       2.400   2.407  20.391  0.00  0.00    +0.000 N 
ATOM      7  C   UNL     1       1.132   1.849  19.861  0.00  0.00    +0.000 C 
ATOM      8  C   UNL     1       0.895   2.347  18.440  0.00  0.00    +0.000 C 
ATOM      9  C   UNL     1       2.090   2.061  17.529  0.00  0.00    +0.000 C 
ATOM     10  C   UNL     1       3.431   2.544  18.111  0.00  0.00    +0.000 C 
ATOM     11  C   UNL     1       3.590   2.070  19.562  0.00  0.00    +0.000 C 
BRANCH   6  13
ATOM     12  N   UNL     1       2.500   3.864  22.417  0.00  0.00    +0.000 NA
ATOM     13  C   UNL     1       2.464   3.181  21.482  0.00  0.00    +0.000 C 
ENDBRANCH   6  13
ENDBRANCH   1  10
BRANCH   3  14
ATOM     14  C   UNL     1       2.867   7.369  18.500  0.00  0.00    +0.000 A 
ATOM     15  C   UNL     1       2.804   8.459  17.620  0.00  0.00    +0.000 A 
ATOM     16  C   UNL     1       1.934   9.528  17.873  0.00  0.00    +0.000 A 
ATOM     17  C   UNL     1       1.167   9.551  19.039  0.00  0.00    +0.000 A 
ATOM     18  C   UNL     1       1.376   8.568  20.007  0.00  0.00    +0.000 A 
ATOM     19  C   UNL     1       2.195   7.469  19.726  0.00  0.00    +0.000 A 
BRANCH  17  20
ATOM     20  O   UNL     1       0.277  10.595  19.167  0.00  0.00    +0.000 OA
BRANCH  20  21
ATOM     21  C   UNL     1      -0.941  10.560  18.518  0.00  0.00    +0.000 A 
ATOM     22  C   UNL     1      -1.897  11.472  18.975  0.00  0.00    +0.000 A 
ATOM     23  C   UNL     1      -3.172  11.508  18.403  0.00  0.00    +0.000 A 
ATOM     24  C   UNL     1      -3.497  10.633  17.368  0.00  0.00    +0.000 A 
ATOM     25  C   UNL     1      -2.535   9.753  16.878  0.00  0.00    +0.000 A 
ATOM     26  C   UNL     1      -1.251   9.737  17.430  0.00  0.00    +0.000 A 
ENDBRANCH  20  21
ENDBRANCH  17  20
ENDBRANCH   3  14
BRANCH   4  27
ATOM     27  C   UNL     1       5.416   6.780  16.435  0.00  0.00    +0.000 C 
ATOM     28  N   UNL     1       6.448   7.403  17.077  0.00  0.00    +0.000 N 
ATOM     29  O   UNL     1       5.190   7.065  15.259  0.00  0.00    +0.000 OA
ATOM     30  H   UNL     1       6.605   7.332  18.071  0.00  0.00    +0.000 HD
ATOM     31  H   UNL     1       6.993   8.061  16.542  0.00  0.00    +0.000 HD
ENDBRANCH   4  27
BRANCH   5  32
ATOM     32  N   UNL     1       5.549   3.745  16.389  0.00  0.00    +0.000 N 
ATOM     33  H   UNL     1       6.328   4.211  15.912  0.00  0.00    +0.000 HD
ATOM     34  H   UNL     1       5.408   2.786  16.100  0.00  0.00    +0.000 HD
ENDBRANCH   5  32
TORSDOF 7
ENDMDL
MODEL 2
REMARK VINA RESULT:      -8.3      4.957      9.184
REMARK  Name = 
REMARK  7 active torsions:
REMARK  status: ('A' for Active; 'I' for Inactive)
REMARK    1  A    between atoms: C_2  and  N_3
REMARK    2  A    between atoms: C_7  and  N_8
REMARK    3  A    between atoms: C_10  and  C_11
REMARK    4  A    between atoms: C_14  and  O_15
REMARK    5  A    between atoms: O_15  and  C_16
REMARK    6  A    between atoms: C_24  and  C_25
REMARK    7  A    between atoms: C_28  and  N_29
REMARK                            x       y       z     vdW  Elec       q    Type
REMARK                         _______ _______ _______ _____ _____    ______ ____
ROOT
ATOM      1  N   UNL     1       1.385  13.854  18.765  0.00  0.00    +0.000 N 
ATOM      2  N   UNL     1       1.993  12.648  18.770  0.00  0.00    +0.000 NA
ATOM      3  C   UNL     1       1.005  11.754  18.972  0.00  0.00    +0.000 A 
ATOM      4  C   UNL     1      -0.271  12.409  19.053  0.00  0.00    +0.000 A 
ATOM      5  C   UNL     1       0.021  13.757  18.915  0.00  0.00    +0.000 A 
ENDROOT
BRANCH   1  10
ATOM      6  N   UNL     1       3.842  15.148  20.328  0.00  0.00    +0.000 N 
ATOM      7  C   UNL     1       4.969  15.149  19.364  0.00  0.00    +0.000 C 
ATOM      8  C   UNL     1       4.568  14.418  18.088  0.00  0.00    +0.000 C 
ATOM      9  C   UNL     1       3.281  14.985  17.487  0.00  0.00    +0.000 C 
ATOM     10  C   UNL     1       2.127  15.087  18.501  0.00  0.00    +0.000 C 
ATOM     11  C   UNL     1       2.601  15.771  19.790  0.00  0.00    +0.000 C 
BRANCH   6  13
ATOM     12  N   UNL     1       3.959  14.132  22.606  0.00  0.00    +0.000 NA
ATOM     13  C   UNL     1       3.915  14.596  21.545  0.00  0.00    +0.000 C 
ENDBRANCH   6  13
ENDBRANCH   1  10
BRANCH   3  14
ATOM     14  C   UNL     1       1.291  10.308  18.961  0.00  0.00    +0.000 A 
ATOM     15  C   UNL     1       1.886   9.674  17.860  0.00  0.00    +0.000 A 
ATOM     16  C   UNL     1       2.438   8.392  17.990  0.00  0.00    +0.000 A 
ATOM     17  C   UNL     1       2.343   7.704  19.201  0.00  0.00    +0.000 A 
ATOM     18  C   UNL     1       1.580   8.249  20.232  0.00  0.00    +0.000 A 
ATOM     19  C   UNL     1       1.084   9.554  20.125  0.00  0.00    +0.000 A 
BRANCH  17  20
ATOM     20  O   UNL     1       2.987   6.487  19.266  0.00  0.00    +0.000 OA
BRANCH  20  21
ATOM     21  C   UNL     1       2.263   5.317  19.383  0.00  0.00    +0.000 A 
ATOM     22  C   UNL     1       2.005   4.643  18.186  0.00  0.00    +0.000 A 
ATOM     23  C   UNL     1       1.261   3.459  18.186  0.00  0.00    +0.000 A 
ATOM     24  C   UNL     1       0.774   2.942  19.385  0.00  0.00    +0.000 A 
ATOM     25  C   UNL     1       1.065   3.585  20.586  0.00  0.00    +0.000 A 
ATOM     26  C   UNL     1       1.834   4.753  20.588  0.00  0.00    +0.000 A 
ENDBRANCH  20  21
ENDBRANCH  17  20
ENDBRANCH   3  14
BRANCH   4  27
ATOM     27  C   UNL     1      -1.628  11.902  19.178  0.00  0.00    +0.000 C 
ATOM     28  N   UNL     1      -2.081  11.060  18.203  0.00  0.00    +0.000 N 
ATOM     29  O   UNL     1      -2.401  12.247  20.070  0.00  0.00    +0.000 OA
ATOM     30  H   UNL     1      -1.558  10.848  17.367  0.00  0.00    +0.000 HD
ATOM     31  H   UNL     1      -3.036  10.743  18.275  0.00  0.00    +0.000 HD
ENDBRANCH   4  27
BRANCH   5  32
ATOM     32  N   UNL     1      -0.820  14.815  18.877  0.00  0.00    +0.000 N 
ATOM     33  H   UNL     1      -1.075  15.273  19.758  0.00  0.00    +0.000 HD
ATOM     34  H   UNL     1      -1.375  15.115  18.086  0.00  0.00    +0.000 HD
ENDBRANCH   5  32
TORSDOF 7
ENDMDL
MODEL 3
REMARK VINA RESULT:      -8.3      2.420      4.821
REMARK  Name = 
REMARK  7 active torsions:
REMARK  status: ('A' for Active; 'I' for Inactive)
REMARK    1  A    between atoms: C_2  and  N_3
REMARK    2  A    between atoms: C_7  and  N_8
REMARK    3  A    between atoms: C_10  and  C_11
REMARK    4  A    between atoms: C_14  and  O_15
REMARK    5  A    between atoms: O_15  and  C_16
REMARK    6  A    between atoms: C_24  and  C_25
REMARK    7  A    between atoms: C_28  and  N_29
REMARK                            x       y       z     vdW  Elec       q    Type
REMARK                         _______ _______ _______ _____ _____    ______ ____
ROOT
ATOM      1  N   UNL     1       4.996   4.532  18.893  0.00  0.00    +0.000 N 
ATOM      2  N   UNL     1       4.377   5.732  18.867  0.00  0.00    +0.000 NA
ATOM      3  C   UNL     1       3.218   5.547  19.528  0.00  0.00    +0.000 A 
ATOM      4  C   UNL     1       3.118   4.202  20.024  0.00  0.00    +0.000 A 
ATOM      5  C   UNL     1       4.283   3.586  19.592  0.00  0.00    +0.000 A 
ENDROOT
BRANCH   1  10
ATOM      6  N   UNL     1       6.417   5.996  16.446  0.00  0.00    +0.000 N 
ATOM      7  C   UNL     1       7.580   6.709  17.030  0.00  0.00    +0.000 C 
ATOM      8  C   UNL     1       7.558   6.588  18.549  0.00  0.00    +0.000 C 
ATOM      9  C   UNL     1       7.474   5.130  19.004  0.00  0.00    +0.000 C 
ATOM     10  C   UNL     1       6.333   4.346  18.330  0.00  0.00    +0.000 C 
ATOM     11  C   UNL     1       6.362   4.553  16.810  0.00  0.00    +0.000 C 
BRANCH   6  13
ATOM     12  N   UNL     1       4.688   7.131  15.047  0.00  0.00    +0.000 NA
ATOM     13  C   UNL     1       5.481   6.601  15.704  0.00  0.00    +0.000 C 
ENDBRANCH   6  13
ENDBRANCH   1  10
BRANCH   3  14
ATOM     14  C   UNL     1       2.303   6.678  19.768  0.00  0.00    +0.000 A 
ATOM     15  C   UNL     1       1.591   6.820  20.968  0.00  0.00    +0.000 A 
ATOM     16  C   UNL     1       0.995   8.044  21.301  0.00  0.00    +0.000 A 
ATOM     17  C   UNL     1       1.047   9.118  20.411  0.00  0.00    +0.000 A 
ATOM     18  C   UNL     1       1.580   8.918  19.138  0.00  0.00    +0.000 A 
ATOM     19  C   UNL     1       2.232   7.719  18.830  0.00  0.00    +0.000 A 
BRANCH  17  20
ATOM     20  O   UNL     1       0.510  10.307  20.855  0.00  0.00    +0.000 OA
BRANCH  20  21
ATOM     21  C   UNL     1       0.248  11.331  19.967  0.00  0.00    +0.000 A 
ATOM     22  C   UNL     1      -1.028  11.326  19.396  0.00  0.00    +0.000 A 
ATOM     23  C   UNL     1      -1.393  12.304  18.466  0.00  0.00    +0.000 A 
ATOM     24  C   UNL     1      -0.483  13.296  18.106  0.00  0.00    +0.000 A 
ATOM     25  C   UNL     1       0.775  13.334  18.705  0.00  0.00    +0.000 A 
ATOM     26  C   UNL     1       1.128  12.373  19.656  0.00  0.00    +0.000 A 
ENDBRANCH  20  21
ENDBRANCH  17  20
ENDBRANCH   3  14
BRANCH   4  27
ATOM     27  C   UNL     1       2.128   3.531  20.850  0.00  0.00    +0.000 C 
ATOM     28  N   UNL     1       0.871   3.384  20.338  0.00  0.00    +0.000 N 
ATOM     29  O   UNL     1       2.347   3.159  22.002  0.00  0.00    +0.000 OA
ATOM     30  H   UNL     1       0.578   3.792  19.463  0.00  0.00    +0.000 HD
ATOM     31  H   UNL     1       0.179   2.953  20.932  0.00  0.00    +0.000 HD
ENDBRANCH   4  27
BRANCH   5  32
ATOM     32  N   UNL     1       4.718   2.326  19.817  0.00  0.00    +0.000 N 
ATOM     33  H   UNL     1       5.134   2.104  20.727  0.00  0.00    +0.000 HD
ATOM     34  H   UNL     1       4.840   1.599  19.124  0.00  0.00    +0.000 HD
ENDBRANCH   5  32
TORSDOF 7
ENDMDL
MODEL 4
REMARK VINA RESULT:      -8.3      4.888      9.215
REMARK  Name = 
REMARK  7 active torsions:
REMARK  status: ('A' for Active; 'I' for Inactive)
REMARK    1  A    between atoms: C_2  and  N_3
REMARK    2  A    between atoms: C_7  and  N_8
REMARK    3  A    between atoms: C_10  and  C_11
REMARK    4  A    between atoms: C_14  and  O_15
REMARK    5  A    between atoms: O_15  and  C_16
REMARK    6  A    between atoms: C_24  and  C_25
REMARK    7  A    between atoms: C_28  and  N_29
REMARK                            x       y       z     vdW  Elec       q    Type
REMARK                         _______ _______ _______ _____ _____    ______ ____
ROOT
ATOM      1  N   UNL     1      -1.836  12.701  20.033  0.00  0.00    +0.000 N 
ATOM      2  N   UNL     1      -0.710  12.030  20.360  0.00  0.00    +0.000 NA
ATOM      3  C   UNL     1      -0.764  10.883  19.655  0.00  0.00    +0.000 A 
ATOM      4  C   UNL     1      -1.936  10.845  18.825  0.00  0.00    +0.000 A 
ATOM      5  C   UNL     1      -2.595  12.033  19.101  0.00  0.00    +0.000 A 
ENDROOT
BRANCH   1  10
ATOM      6  N   UNL     1      -2.841  13.627  22.911  0.00  0.00    +0.000 N 
ATOM      7  C   UNL     1      -1.740  14.450  23.470  0.00  0.00    +0.000 C 
ATOM      8  C   UNL     1      -0.534  14.411  22.541  0.00  0.00    +0.000 C 
ATOM      9  C   UNL     1      -0.901  14.815  21.112  0.00  0.00    +0.000 C 
ATOM     10  C   UNL     1      -2.108  14.042  20.551  0.00  0.00    +0.000 C 
ATOM     11  C   UNL     1      -3.271  14.057  21.552  0.00  0.00    +0.000 C 
BRANCH   6  13
ATOM     12  N   UNL     1      -3.830  11.671  24.107  0.00  0.00    +0.000 NA
ATOM     13  C   UNL     1      -3.364  12.570  23.545  0.00  0.00    +0.000 C 
ENDBRANCH   6  13
ENDBRANCH   1  10
BRANCH   3  14
ATOM     14  C   UNL     1       0.353   9.922  19.703  0.00  0.00    +0.000 A 
ATOM     15  C   UNL     1       0.659   9.192  20.861  0.00  0.00    +0.000 A 
ATOM     16  C   UNL     1       1.496   8.069  20.794  0.00  0.00    +0.000 A 
ATOM     17  C   UNL     1       2.087   7.702  19.584  0.00  0.00    +0.000 A 
ATOM     18  C   UNL     1       1.943   8.540  18.479  0.00  0.00    +0.000 A 
ATOM     19  C   UNL     1       1.058   9.623  18.528  0.00  0.00    +0.000 A 
BRANCH  17  20
ATOM     20  O   UNL     1       2.824   6.538  19.591  0.00  0.00    +0.000 OA
BRANCH  20  21
ATOM     21  C   UNL     1       2.195   5.310  19.542  0.00  0.00    +0.000 A 
ATOM     22  C   UNL     1       2.026   4.766  18.266  0.00  0.00    +0.000 A 
ATOM     23  C   UNL     1       1.382   3.537  18.099  0.00  0.00    +0.000 A 
ATOM     24  C   UNL     1       0.904   2.844  19.210  0.00  0.00    +0.000 A 
ATOM     25  C   UNL     1       1.109   3.359  20.488  0.00  0.00    +0.000 A 
ATOM     26  C   UNL     1       1.780   4.574  20.657  0.00  0.00    +0.000 A 
ENDBRANCH  20  21
ENDBRANCH  17  20
ENDBRANCH   3  14
BRANCH   4  27
ATOM     27  C   UNL     1      -2.407   9.889  17.836  0.00  0.00    +0.000 C 
ATOM     28  N   UNL     1      -1.710   9.794  16.666  0.00  0.00    +0.000 N 
ATOM     29  O   UNL     1      -3.432   9.223  17.972  0.00  0.00    +0.000 OA
ATOM     30  H   UNL     1      -0.948  10.409  16.423  0.00  0.00    +0.000 HD
ATOM     31  H   UNL     1      -2.065   9.158  15.969  0.00  0.00    +0.000 HD
ENDBRANCH   4  27
BRANCH   5  32
ATOM     32  N   UNL     1      -3.734  12.524  18.563  0.00  0.00    +0.000 N 
ATOM     33  H   UNL     1      -4.380  13.043  19.166  0.00  0.00    +0.000 HD
ATOM     34  H   UNL     1      -4.118  12.294  17.655  0.00  0.00    +0.000 HD
ENDBRANCH   5  32
TORSDOF 7
ENDMDL
MODEL 5
REMARK VINA RESULT:      -8.3      2.209      4.666
REMARK  Name = 
REMARK  7 active torsions:
REMARK  status: ('A' for Active; 'I' for Inactive)
REMARK    1  A    between atoms: C_2  and  N_3
REMARK    2  A    between atoms: C_7  and  N_8
REMARK    3  A    between atoms: C_10  and  C_11
REMARK    4  A    between atoms: C_14  and  O_15
REMARK    5  A    between atoms: O_15  and  C_16
REMARK    6  A    between atoms: C_24  and  C_25
REMARK    7  A    between atoms: C_28  and  N_29
REMARK                            x       y       z     vdW  Elec       q    Type
REMARK                         _______ _______ _______ _____ _____    ______ ____
ROOT
ATOM      1  N   UNL     1       5.010   4.711  19.008  0.00  0.00    +0.000 N 
ATOM      2  N   UNL     1       4.417   5.910  18.818  0.00  0.00    +0.000 NA
ATOM      3  C   UNL     1       3.211   5.805  19.411  0.00  0.00    +0.000 A 
ATOM      4  C   UNL     1       3.053   4.519  20.031  0.00  0.00    +0.000 A 
ATOM      5  C   UNL     1       4.234   3.849  19.746  0.00  0.00    +0.000 A 
ENDROOT
BRANCH   1  10
ATOM      6  N   UNL     1       6.616   5.888  16.520  0.00  0.00    +0.000 N 
ATOM      7  C   UNL     1       7.748   6.650  17.103  0.00  0.00    +0.000 C 
ATOM      8  C   UNL     1       7.622   6.695  18.621  0.00  0.00    +0.000 C 
ATOM      9  C   UNL     1       7.484   5.296  19.224  0.00  0.00    +0.000 C 
ATOM     10  C   UNL     1       6.379   4.453  18.561  0.00  0.00    +0.000 C 
ATOM     11  C   UNL     1       6.513   4.494  17.033  0.00  0.00    +0.000 C 
BRANCH   6  13
ATOM     12  N   UNL     1       4.969   6.856  14.913  0.00  0.00    +0.000 NA
ATOM     13  C   UNL     1       5.742   6.417  15.655  0.00  0.00    +0.000 C 
ENDBRANCH   6  13
ENDBRANCH   1  10
BRANCH   3  14
ATOM     14  C   UNL     1       2.304   6.966  19.471  0.00  0.00    +0.000 A 
ATOM     15  C   UNL     1       1.673   7.357  20.661  0.00  0.00    +0.000 A 
ATOM     16  C   UNL     1       1.088   8.626  20.772  0.00  0.00    +0.000 A 
ATOM     17  C   UNL     1       1.069   9.491  19.677  0.00  0.00    +0.000 A 
ATOM     18  C   UNL     1       1.517   9.028  18.440  0.00  0.00    +0.000 A 
ATOM     19  C   UNL     1       2.159   7.788  18.345  0.00  0.00    +0.000 A 
BRANCH  17  20
ATOM     20  O   UNL     1       0.551  10.749  19.898  0.00  0.00    +0.000 OA
BRANCH  20  21
ATOM     21  C   UNL     1      -0.731  11.059  19.492  0.00  0.00    +0.000 A 
ATOM     22  C   UNL     1      -1.180  10.399  18.345  0.00  0.00    +0.000 A 
ATOM     23  C   UNL     1      -2.455  10.655  17.833  0.00  0.00    +0.000 A 
ATOM     24  C   UNL     1      -3.290  11.572  18.468  0.00  0.00    +0.000 A 
ATOM     25  C   UNL     1      -2.867  12.201  19.638  0.00  0.00    +0.000 A 
ATOM     26  C   UNL     1      -1.603  11.922  20.166  0.00  0.00    +0.000 A 
ENDBRANCH  20  21
ENDBRANCH  17  20
ENDBRANCH   3  14
BRANCH   4  27
ATOM     27  C   UNL     1       1.997   3.947  20.849  0.00  0.00    +0.000 C 
ATOM     28  N   UNL     1       0.740   3.901  20.318  0.00  0.00    +0.000 N 
ATOM     29  O   UNL     1       2.165   3.573  22.009  0.00  0.00    +0.000 OA
ATOM     30  H   UNL     1       0.496   4.320  19.433  0.00  0.00    +0.000 HD
ATOM     31  H   UNL     1       0.004   3.539  20.905  0.00  0.00    +0.000 HD
ENDBRANCH   4  27
BRANCH   5  32
ATOM     32  N   UNL     1       4.629   2.614  20.126  0.00  0.00    +0.000 N 
ATOM     33  H   UNL     1       5.583   2.312  19.905  0.00  0.00    +0.000 HD
ATOM     34  H   UNL     1       4.033   1.868  20.464  0.00  0.00    +0.000 HD
ENDBRANCH   5  32
TORSDOF 7
ENDMDL
MODEL 6
REMARK VINA RESULT:      -8.2      2.353      4.781
REMARK  Name = 
REMARK  7 active torsions:
REMARK  status: ('A' for Active; 'I' for Inactive)
REMARK    1  A    between atoms: C_2  and  N_3
REMARK    2  A    between atoms: C_7  and  N_8
REMARK    3  A    between atoms: C_10  and  C_11
REMARK    4  A    between atoms: C_14  and  O_15
REMARK    5  A    between atoms: O_15  and  C_16
REMARK    6  A    between atoms: C_24  and  C_25
REMARK    7  A    between atoms: C_28  and  N_29
REMARK                            x       y       z     vdW  Elec       q    Type
REMARK                         _______ _______ _______ _____ _____    ______ ____
ROOT
ATOM      1  N   UNL     1       5.159   4.577  18.944  0.00  0.00    +0.000 N 
ATOM      2  N   UNL     1       4.523   5.769  18.935  0.00  0.00    +0.000 NA
ATOM      3  C   UNL     1       3.318   5.532  19.488  0.00  0.00    +0.000 A 
ATOM      4  C   UNL     1       3.202   4.159  19.899  0.00  0.00    +0.000 A 
ATOM      5  C   UNL     1       4.408   3.584  19.529  0.00  0.00    +0.000 A 
ENDROOT
BRANCH   1  10
ATOM      6  N   UNL     1       6.647   5.952  16.485  0.00  0.00    +0.000 N 
ATOM      7  C   UNL     1       7.721   6.781  17.084  0.00  0.00    +0.000 C 
ATOM      8  C   UNL     1       7.606   6.769  18.604  0.00  0.00    +0.000 C 
ATOM      9  C   UNL     1       7.581   5.346  19.163  0.00  0.00    +0.000 C 
ATOM     10  C   UNL     1       6.540   4.440  18.481  0.00  0.00    +0.000 C 
ATOM     11  C   UNL     1       6.657   4.539  16.954  0.00  0.00    +0.000 C 
BRANCH   6  13
ATOM     12  N   UNL     1       4.937   6.880  14.920  0.00  0.00    +0.000 NA
ATOM     13  C   UNL     1       5.727   6.437  15.642  0.00  0.00    +0.000 C 
ENDBRANCH   6  13
ENDBRANCH   1  10
BRANCH   3  14
ATOM     14  C   UNL     1       2.368   6.636  19.716  0.00  0.00    +0.000 A 
ATOM     15  C   UNL     1       1.626   6.748  20.901  0.00  0.00    +0.000 A 
ATOM     16  C   UNL     1       0.989   7.953  21.230  0.00  0.00    +0.000 A 
ATOM     17  C   UNL     1       1.031   9.035  20.350  0.00  0.00    +0.000 A 
ATOM     18  C   UNL     1       1.597   8.860  19.087  0.00  0.00    +0.000 A 
ATOM     19  C   UNL     1       2.288   7.681  18.785  0.00  0.00    +0.000 A 
BRANCH  17  20
ATOM     20  O   UNL     1       0.452  10.206  20.790  0.00  0.00    +0.000 OA
BRANCH  20  21
ATOM     21  C   UNL     1       0.066  11.178  19.889  0.00  0.00    +0.000 A 
ATOM     22  C   UNL     1       0.937  12.265  19.762  0.00  0.00    +0.000 A 
ATOM     23  C   UNL     1       0.633  13.318  18.894  0.00  0.00    +0.000 A 
ATOM     24  C   UNL     1      -0.542  13.288  18.147  0.00  0.00    +0.000 A 
ATOM     25  C   UNL     1      -1.392  12.188  18.235  0.00  0.00    +0.000 A 
ATOM     26  C   UNL     1      -1.074  11.121  19.081  0.00  0.00    +0.000 A 
ENDBRANCH  20  21
ENDBRANCH  17  20
ENDBRANCH   3  14
BRANCH   4  27
ATOM     27  C   UNL     1       2.161   3.430  20.604  0.00  0.00    +0.000 C 
ATOM     28  N   UNL     1       2.288   3.296  21.957  0.00  0.00    +0.000 N 
ATOM     29  O   UNL     1       1.221   2.874  20.038  0.00  0.00    +0.000 OA
ATOM     30  H   UNL     1       3.103   3.597  22.469  0.00  0.00    +0.000 HD
ATOM     31  H   UNL     1       1.583   2.756  22.435  0.00  0.00    +0.000 HD
ENDBRANCH   4  27
BRANCH   5  32
ATOM     32  N   UNL     1       4.846   2.319  19.718  0.00  0.00    +0.000 N 
ATOM     33  H   UNL     1       4.355   1.724  20.392  0.00  0.00    +0.000 HD
ATOM     34  H   UNL     1       5.721   1.930  19.392  0.00  0.00    +0.000 HD
ENDBRANCH   5  32
TORSDOF 7
ENDMDL
MODEL 7
REMARK VINA RESULT:      -8.2      2.255      4.546
REMARK  Name = 
REMARK  7 active torsions:
REMARK  status: ('A' for Active; 'I' for Inactive)
REMARK    1  A    between atoms: C_2  and  N_3
REMARK    2  A    between atoms: C_7  and  N_8
REMARK    3  A    between atoms: C_10  and  C_11
REMARK    4  A    between atoms: C_14  and  O_15
REMARK    5  A    between atoms: O_15  and  C_16
REMARK    6  A    between atoms: C_24  and  C_25
REMARK    7  A    between atoms: C_28  and  N_29
REMARK                            x       y       z     vdW  Elec       q    Type
REMARK                         _______ _______ _______ _____ _____    ______ ____
ROOT
ATOM      1  N   UNL     1       5.351   5.050  18.931  0.00  0.00    +0.000 N 
ATOM      2  N   UNL     1       4.687   6.216  18.778  0.00  0.00    +0.000 NA
ATOM      3  C   UNL     1       3.437   5.972  19.217  0.00  0.00    +0.000 A 
ATOM      4  C   UNL     1       3.317   4.625  19.704  0.00  0.00    +0.000 A 
ATOM      5  C   UNL     1       4.572   4.070  19.500  0.00  0.00    +0.000 A 
ENDROOT
BRANCH   1  10
ATOM      6  N   UNL     1       6.853   5.046  16.121  0.00  0.00    +0.000 N 
ATOM      7  C   UNL     1       7.721   6.249  16.134  0.00  0.00    +0.000 C 
ATOM      8  C   UNL     1       7.456   7.073  17.387  0.00  0.00    +0.000 C 
ATOM      9  C   UNL     1       7.593   6.237  18.660  0.00  0.00    +0.000 C 
ATOM     10  C   UNL     1       6.777   4.932  18.623  0.00  0.00    +0.000 C 
ATOM     11  C   UNL     1       7.032   4.174  17.314  0.00  0.00    +0.000 C 
BRANCH   6  13
ATOM     12  N   UNL     1       5.201   4.558  14.314  0.00  0.00    +0.000 NA
ATOM     13  C   UNL     1       5.960   4.794  15.156  0.00  0.00    +0.000 C 
ENDBRANCH   6  13
ENDBRANCH   1  10
BRANCH   3  14
ATOM     14  C   UNL     1       2.438   7.054  19.272  0.00  0.00    +0.000 A 
ATOM     15  C   UNL     1       1.755   7.378  20.453  0.00  0.00    +0.000 A 
ATOM     16  C   UNL     1       1.067   8.595  20.566  0.00  0.00    +0.000 A 
ATOM     17  C   UNL     1       0.999   9.469  19.480  0.00  0.00    +0.000 A 
ATOM     18  C   UNL     1       1.507   9.059  18.248  0.00  0.00    +0.000 A 
ATOM     19  C   UNL     1       2.248   7.876  18.152  0.00  0.00    +0.000 A 
BRANCH  17  20
ATOM     20  O   UNL     1       0.377  10.678  19.705  0.00  0.00    +0.000 OA
BRANCH  20  21
ATOM     21  C   UNL     1      -0.903  10.904  19.239  0.00  0.00    +0.000 A 
ATOM     22  C   UNL     1      -1.594  11.952  19.854  0.00  0.00    +0.000 A 
ATOM     23  C   UNL     1      -2.906  12.254  19.476  0.00  0.00    +0.000 A 
ATOM     24  C   UNL     1      -3.532  11.510  18.478  0.00  0.00    +0.000 A 
ATOM     25  C   UNL     1      -2.833  10.494  17.830  0.00  0.00    +0.000 A 
ATOM     26  C   UNL     1      -1.512  10.212  18.188  0.00  0.00    +0.000 A 
ENDBRANCH  20  21
ENDBRANCH  17  20
ENDBRANCH   3  14
BRANCH   4  27
ATOM     27  C   UNL     1       2.229   3.906  20.344  0.00  0.00    +0.000 C 
ATOM     28  N   UNL     1       1.062   3.773  19.647  0.00  0.00    +0.000 N 
ATOM     29  O   UNL     1       2.284   3.479  21.497  0.00  0.00    +0.000 OA
ATOM     30  H   UNL     1       0.893   4.220  18.759  0.00  0.00    +0.000 HD
ATOM     31  H   UNL     1       0.298   3.307  20.113  0.00  0.00    +0.000 HD
ENDBRANCH   4  27
BRANCH   5  32
ATOM     32  N   UNL     1       5.022   2.835  19.816  0.00  0.00    +0.000 N 
ATOM     33  H   UNL     1       5.859   2.480  19.344  0.00  0.00    +0.000 HD
ATOM     34  H   UNL     1       4.528   2.133  20.353  0.00  0.00    +0.000 HD
ENDBRANCH   5  32
TORSDOF 7
ENDMDL
MODEL 8
REMARK VINA RESULT:      -8.1      5.159      9.456
REMARK  Name = 
REMARK  7 active torsions:
REMARK  status: ('A' for Active; 'I' for Inactive)
REMARK    1  A    between atoms: C_2  and  N_3
REMARK    2  A    between atoms: C_7  and  N_8
REMARK    3  A    between atoms: C_10  and  C_11
REMARK    4  A    between atoms: C_14  and  O_15
REMARK    5  A    between atoms: O_15  and  C_16
REMARK    6  A    between atoms: C_24  and  C_25
REMARK    7  A    between atoms: C_28  and  N_29
REMARK                            x       y       z     vdW  Elec       q    Type
REMARK                         _______ _______ _______ _____ _____    ______ ____
ROOT
ATOM      1  N   UNL     1      -2.290  12.649  20.282  0.00  0.00    +0.000 N 
ATOM      2  N   UNL     1      -1.150  12.011  20.625  0.00  0.00    +0.000 NA
ATOM      3  C   UNL     1      -1.084  10.942  19.806  0.00  0.00    +0.000 A 
ATOM      4  C   UNL     1      -2.190  10.927  18.890  0.00  0.00    +0.000 A 
ATOM      5  C   UNL     1      -2.939  12.043  19.232  0.00  0.00    +0.000 A 
ENDROOT
BRANCH   1  10
ATOM      6  N   UNL     1      -4.882  13.383  21.983  0.00  0.00    +0.000 N 
ATOM      7  C   UNL     1      -4.383  13.731  23.336  0.00  0.00    +0.000 C 
ATOM      8  C   UNL     1      -2.885  13.467  23.426  0.00  0.00    +0.000 C 
ATOM      9  C   UNL     1      -2.113  14.180  22.315  0.00  0.00    +0.000 C 
ATOM     10  C   UNL     1      -2.680  13.912  20.909  0.00  0.00    +0.000 C 
ATOM     11  C   UNL     1      -4.199  14.129  20.890  0.00  0.00    +0.000 C 
BRANCH   6  13
ATOM     12  N   UNL     1      -6.648  11.667  21.572  0.00  0.00    +0.000 NA
ATOM     13  C   UNL     1      -5.819  12.454  21.761  0.00  0.00    +0.000 C 
ENDBRANCH   6  13
ENDBRANCH   1  10
BRANCH   3  14
ATOM     14  C   UNL     1       0.085  10.043  19.842  0.00  0.00    +0.000 A 
ATOM     15  C   UNL     1       0.425   9.310  20.988  0.00  0.00    +0.000 A 
ATOM     16  C   UNL     1       1.323   8.236  20.904  0.00  0.00    +0.000 A 
ATOM     17  C   UNL     1       1.939   7.926  19.691  0.00  0.00    +0.000 A 
ATOM     18  C   UNL     1       1.754   8.776  18.601  0.00  0.00    +0.000 A 
ATOM     19  C   UNL     1       0.810   9.807  18.666  0.00  0.00    +0.000 A 
BRANCH  17  20
ATOM     20  O   UNL     1       2.739   6.805  19.679  0.00  0.00    +0.000 OA
BRANCH  20  21
ATOM     21  C   UNL     1       2.182   5.547  19.561  0.00  0.00    +0.000 A 
ATOM     22  C   UNL     1       2.111   5.036  18.262  0.00  0.00    +0.000 A 
ATOM     23  C   UNL     1       1.544   3.780  18.024  0.00  0.00    +0.000 A 
ATOM     24  C   UNL     1       1.048   3.027  19.087  0.00  0.00    +0.000 A 
ATOM     25  C   UNL     1       1.156   3.511  20.389  0.00  0.00    +0.000 A 
ATOM     26  C   UNL     1       1.749   4.754  20.629  0.00  0.00    +0.000 A 
ENDBRANCH  20  21
ENDBRANCH  17  20
ENDBRANCH   3  14
BRANCH   4  27
ATOM     27  C   UNL     1      -2.531  10.056  17.777  0.00  0.00    +0.000 C 
ATOM     28  N   UNL     1      -1.826  10.206  16.617  0.00  0.00    +0.000 N 
ATOM     29  O   UNL     1      -3.460   9.250  17.808  0.00  0.00    +0.000 OA
ATOM     30  H   UNL     1      -1.152  10.941  16.469  0.00  0.00    +0.000 HD
ATOM     31  H   UNL     1      -2.094   9.625  15.837  0.00  0.00    +0.000 HD
ENDBRANCH   4  27
BRANCH   5  32
ATOM     32  N   UNL     1      -4.066  12.524  18.661  0.00  0.00    +0.000 N 
ATOM     33  H   UNL     1      -4.288  12.247  17.699  0.00  0.00    +0.000 HD
ATOM     34  H   UNL     1      -4.646  13.274  19.014  0.00  0.00    +0.000 HD
ENDBRANCH   5  32
TORSDOF 7
ENDMDL
MODEL 9
REMARK VINA RESULT:      -8.0      2.774      5.242
REMARK  Name = 
REMARK  7 active torsions:
REMARK  status: ('A' for Active; 'I' for Inactive)
REMARK    1  A    between atoms: C_2  and  N_3
REMARK    2  A    between atoms: C_7  and  N_8
REMARK    3  A    between atoms: C_10  and  C_11
REMARK    4  A    between atoms: C_14  and  O_15
REMARK    5  A    between atoms: O_15  and  C_16
REMARK    6  A    between atoms: C_24  and  C_25
REMARK    7  A    between atoms: C_28  and  N_29
REMARK                            x       y       z     vdW  Elec       q    Type
REMARK                         _______ _______ _______ _____ _____    ______ ____
ROOT
ATOM      1  N   UNL     1       5.000   4.738  18.996  0.00  0.00    +0.000 N 
ATOM      2  N   UNL     1       4.400   5.933  18.808  0.00  0.00    +0.000 NA
ATOM      3  C   UNL     1       3.195   5.821  19.401  0.00  0.00    +0.000 A 
ATOM      4  C   UNL     1       3.045   4.533  20.020  0.00  0.00    +0.000 A 
ATOM      5  C   UNL     1       4.229   3.870  19.734  0.00  0.00    +0.000 A 
ENDROOT
BRANCH   1  10
ATOM      6  N   UNL     1       6.593   5.913  16.499  0.00  0.00    +0.000 N 
ATOM      7  C   UNL     1       7.719   6.688  17.075  0.00  0.00    +0.000 C 
ATOM      8  C   UNL     1       7.595   6.741  18.593  0.00  0.00    +0.000 C 
ATOM      9  C   UNL     1       7.470   5.345  19.205  0.00  0.00    +0.000 C 
ATOM     10  C   UNL     1       6.371   4.488  18.549  0.00  0.00    +0.000 C 
ATOM     11  C   UNL     1       6.503   4.521  17.021  0.00  0.00    +0.000 C 
BRANCH   6  13
ATOM     12  N   UNL     1       4.948   6.894  14.897  0.00  0.00    +0.000 NA
ATOM     13  C   UNL     1       5.713   6.428  15.632  0.00  0.00    +0.000 C 
ENDBRANCH   6  13
ENDBRANCH   1  10
BRANCH   3  14
ATOM     14  C   UNL     1       2.281   6.976  19.463  0.00  0.00    +0.000 A 
ATOM     15  C   UNL     1       1.714   7.413  20.668  0.00  0.00    +0.000 A 
ATOM     16  C   UNL     1       1.123   8.682  20.758  0.00  0.00    +0.000 A 
ATOM     17  C   UNL     1       1.034   9.499  19.629  0.00  0.00    +0.000 A 
ATOM     18  C   UNL     1       1.417   8.986  18.390  0.00  0.00    +0.000 A 
ATOM     19  C   UNL     1       2.065   7.748  18.312  0.00  0.00    +0.000 A 
BRANCH  17  20
ATOM     20  O   UNL     1       0.517  10.760  19.826  0.00  0.00    +0.000 OA
BRANCH  20  21
ATOM     21  C   UNL     1       1.333  11.871  19.753  0.00  0.00    +0.000 A 
ATOM     22  C   UNL     1       1.872  12.146  18.493  0.00  0.00    +0.000 A 
ATOM     23  C   UNL     1       2.730  13.234  18.310  0.00  0.00    +0.000 A 
ATOM     24  C   UNL     1       3.052  14.056  19.389  0.00  0.00    +0.000 A 
ATOM     25  C   UNL     1       2.484  13.814  20.638  0.00  0.00    +0.000 A 
ATOM     26  C   UNL     1       1.602  12.744  20.813  0.00  0.00    +0.000 A 
ENDBRANCH  20  21
ENDBRANCH  17  20
ENDBRANCH   3  14
BRANCH   4  27
ATOM     27  C   UNL     1       1.992   3.954  20.837  0.00  0.00    +0.000 C 
ATOM     28  N   UNL     1       0.731   3.920  20.314  0.00  0.00    +0.000 N 
ATOM     29  O   UNL     1       2.167   3.564  21.991  0.00  0.00    +0.000 OA
ATOM     30  H   UNL     1       0.483   4.352  19.437  0.00  0.00    +0.000 HD
ATOM     31  H   UNL     1      -0.002   3.553  20.902  0.00  0.00    +0.000 HD
ENDBRANCH   4  27
BRANCH   5  32
ATOM     32  N   UNL     1       4.632   2.637  20.113  0.00  0.00    +0.000 N 
ATOM     33  H   UNL     1       5.429   2.553  20.751  0.00  0.00    +0.000 HD
ATOM     34  H   UNL     1       4.342   1.757  19.704  0.00  0.00    +0.000 HD
ENDBRANCH   5  32
TORSDOF 7
ENDMDL
