MODEL 1
REMARK VINA RESULT:      -6.8      0.000      0.000
REMARK  Name = 
REMARK  1 active torsions:
REMARK  status: ('A' for Active; 'I' for Inactive)
REMARK    1  A    between atoms: N_4  and  C_5
REMARK                            x       y       z     vdW  Elec       q    Type
REMARK                         _______ _______ _______ _____ _____    ______ ____
ROOT
ATOM      1  C   UNL     1       5.764   4.732  17.809  0.00  0.00    +0.000 C 
ATOM      2  C   UNL     1       6.570   5.805  17.863  0.00  0.00    +0.000 C 
ATOM      3  C   UNL     1       7.637   5.956  18.878  0.00  0.00    +0.000 C 
ATOM      4  O   UNL     1       7.967   5.057  19.647  0.00  0.00    +0.000 OA
ATOM      5  N   UNL     1       8.246   7.181  18.903  0.00  0.00    +0.000 N 
ATOM      6  C   UNL     1       8.060   8.195  18.013  0.00  0.00    +0.000 C 
ATOM      7  O   UNL     1       8.718   9.227  18.070  0.00  0.00    +0.000 OA
ATOM      8  N   UNL     1       7.120   8.000  17.049  0.00  0.00    +0.000 N 
ATOM      9  C   UNL     1       6.337   6.893  16.883  0.00  0.00    +0.000 C 
ATOM     10  O   UNL     1       5.505   6.835  15.987  0.00  0.00    +0.000 OA
ATOM     11  H   UNL     1       8.973   7.319  19.590  0.00  0.00    +0.000 HD
ATOM     12  H   UNL     1       6.978   8.755  16.392  0.00  0.00    +0.000 HD
ENDROOT
BRANCH   1  16
ATOM     13  N   UNL     1       5.011   2.153  20.177  0.00  0.00    +0.000 N 
ATOM     14  C   UNL     1       4.713   3.154  19.307  0.00  0.00    +0.000 C 
ATOM     15  O   UNL     1       3.559   3.533  19.158  0.00  0.00    +0.000 OA
ATOM     16  N   UNL     1       5.815   3.655  18.666  0.00  0.00    +0.000 N 
ATOM     17  H   UNL     1       4.211   1.868  20.730  0.00  0.00    +0.000 HD
ATOM     18  H   UNL     1       5.872   2.228  20.696  0.00  0.00    +0.000 HD
ATOM     19  H   UNL     1       6.698   3.162  18.779  0.00  0.00    +0.000 HD
ENDBRANCH   1  16
TORSDOF 1
ENDMDL
MODEL 2
REMARK VINA RESULT:      -6.7      1.943      2.057
REMARK  Name = 
REMARK  1 active torsions:
REMARK  status: ('A' for Active; 'I' for Inactive)
REMARK    1  A    between atoms: N_4  and  C_5
REMARK                            x       y       z     vdW  Elec       q    Type
REMARK                         _______ _______ _______ _____ _____    ______ ____
ROOT
ATOM      1  C   UNL     1       5.003   3.707  16.650  0.00  0.00    +0.000 C 
ATOM      2  C   UNL     1       5.870   4.621  17.119  0.00  0.00    +0.000 C 
ATOM      3  C   UNL     1       6.208   4.741  18.555  0.00  0.00    +0.000 C 
ATOM      4  O   UNL     1       5.845   3.931  19.403  0.00  0.00    +0.000 OA
ATOM      5  N   UNL     1       6.968   5.832  18.882  0.00  0.00    +0.000 N 
ATOM      6  C   UNL     1       7.539   6.711  18.013  0.00  0.00    +0.000 C 
ATOM      7  O   UNL     1       8.275   7.610  18.401  0.00  0.00    +0.000 OA
ATOM      8  N   UNL     1       7.265   6.533  16.693  0.00  0.00    +0.000 N 
ATOM      9  C   UNL     1       6.470   5.565  16.146  0.00  0.00    +0.000 C 
ATOM     10  O   UNL     1       6.277   5.512  14.938  0.00  0.00    +0.000 OA
ATOM     11  H   UNL     1       7.209   5.948  19.856  0.00  0.00    +0.000 HD
ATOM     12  H   UNL     1       7.685   7.188  16.047  0.00  0.00    +0.000 HD
ENDROOT
BRANCH   1  16
ATOM     13  N   UNL     1       2.515   1.823  18.404  0.00  0.00    +0.000 N 
ATOM     14  C   UNL     1       2.961   2.751  17.519  0.00  0.00    +0.000 C 
ATOM     15  O   UNL     1       2.176   3.464  16.907  0.00  0.00    +0.000 OA
ATOM     16  N   UNL     1       4.327   2.785  17.418  0.00  0.00    +0.000 N 
ATOM     17  H   UNL     1       1.515   1.883  18.560  0.00  0.00    +0.000 HD
ATOM     18  H   UNL     1       3.059   1.676  19.241  0.00  0.00    +0.000 HD
ATOM     19  H   UNL     1       4.858   2.050  17.879  0.00  0.00    +0.000 HD
ENDBRANCH   1  16
TORSDOF 1
ENDMDL
MODEL 3
REMARK VINA RESULT:      -6.7      2.745      5.769
REMARK  Name = 
REMARK  1 active torsions:
REMARK  status: ('A' for Active; 'I' for Inactive)
REMARK    1  A    between atoms: N_4  and  C_5
REMARK                            x       y       z     vdW  Elec       q    Type
REMARK                         _______ _______ _______ _____ _____    ______ ____
ROOT
ATOM      1  C   UNL     1       3.994   3.750  17.195  0.00  0.00    +0.000 C 
ATOM      2  C   UNL     1       3.316   3.532  18.335  0.00  0.00    +0.000 C 
ATOM      3  C   UNL     1       3.977   3.116  19.593  0.00  0.00    +0.000 C 
ATOM      4  O   UNL     1       5.196   3.083  19.735  0.00  0.00    +0.000 OA
ATOM      5  N   UNL     1       3.126   2.767  20.607  0.00  0.00    +0.000 N 
ATOM      6  C   UNL     1       1.771   2.898  20.607  0.00  0.00    +0.000 C 
ATOM      7  O   UNL     1       1.101   2.636  21.600  0.00  0.00    +0.000 OA
ATOM      8  N   UNL     1       1.198   3.349  19.458  0.00  0.00    +0.000 N 
ATOM      9  C   UNL     1       1.842   3.679  18.300  0.00  0.00    +0.000 C 
ATOM     10  O   UNL     1       1.219   4.057  17.315  0.00  0.00    +0.000 OA
ATOM     11  H   UNL     1       3.545   2.470  21.476  0.00  0.00    +0.000 HD
ATOM     12  H   UNL     1       0.191   3.441  19.456  0.00  0.00    +0.000 HD
ENDROOT
BRANCH   1  16
ATOM     13  N   UNL     1       7.489   4.319  16.664  0.00  0.00    +0.000 N 
ATOM     14  C   UNL     1       6.202   4.685  16.894  0.00  0.00    +0.000 C 
ATOM     15  O   UNL     1       5.885   5.867  16.945  0.00  0.00    +0.000 OA
ATOM     16  N   UNL     1       5.357   3.618  17.043  0.00  0.00    +0.000 N 
ATOM     17  H   UNL     1       8.084   5.108  16.440  0.00  0.00    +0.000 HD
ATOM     18  H   UNL     1       7.647   3.502  16.093  0.00  0.00    +0.000 HD
ATOM     19  H   UNL     1       5.768   2.690  17.113  0.00  0.00    +0.000 HD
ENDBRANCH   1  16
TORSDOF 1
ENDMDL
MODEL 4
REMARK VINA RESULT:      -6.6      2.500      3.398
REMARK  Name = 
REMARK  1 active torsions:
REMARK  status: ('A' for Active; 'I' for Inactive)
REMARK    1  A    between atoms: N_4  and  C_5
REMARK                            x       y       z     vdW  Elec       q    Type
REMARK                         _______ _______ _______ _____ _____    ______ ____
ROOT
ATOM      1  C   UNL     1       2.998   5.442  18.587  0.00  0.00    +0.000 C 
ATOM      2  C   UNL     1       4.248   5.115  18.216  0.00  0.00    +0.000 C 
ATOM      3  C   UNL     1       4.971   3.949  18.775  0.00  0.00    +0.000 C 
ATOM      4  O   UNL     1       4.440   3.111  19.499  0.00  0.00    +0.000 OA
ATOM      5  N   UNL     1       6.290   3.862  18.423  0.00  0.00    +0.000 N 
ATOM      6  C   UNL     1       6.942   4.648  17.522  0.00  0.00    +0.000 C 
ATOM      7  O   UNL     1       8.108   4.436  17.211  0.00  0.00    +0.000 OA
ATOM      8  N   UNL     1       6.231   5.670  16.974  0.00  0.00    +0.000 N 
ATOM      9  C   UNL     1       4.930   5.994  17.237  0.00  0.00    +0.000 C 
ATOM     10  O   UNL     1       4.395   6.954  16.697  0.00  0.00    +0.000 OA
ATOM     11  H   UNL     1       6.814   3.082  18.795  0.00  0.00    +0.000 HD
ATOM     12  H   UNL     1       6.715   6.257  16.309  0.00  0.00    +0.000 HD
ENDROOT
BRANCH   1  16
ATOM     13  N   UNL     1       0.600   3.356  20.236  0.00  0.00    +0.000 N 
ATOM     14  C   UNL     1       1.293   3.832  19.169  0.00  0.00    +0.000 C 
ATOM     15  O   UNL     1       1.047   3.440  18.035  0.00  0.00    +0.000 OA
ATOM     16  N   UNL     1       2.240   4.760  19.512  0.00  0.00    +0.000 N 
ATOM     17  H   UNL     1      -0.173   2.760  19.963  0.00  0.00    +0.000 HD
ATOM     18  H   UNL     1       0.386   4.004  20.979  0.00  0.00    +0.000 HD
ATOM     19  H   UNL     1       2.436   4.899  20.501  0.00  0.00    +0.000 HD
ENDBRANCH   1  16
TORSDOF 1
ENDMDL
MODEL 5
REMARK VINA RESULT:      -6.6      2.333      5.925
REMARK  Name = 
REMARK  1 active torsions:
REMARK  status: ('A' for Active; 'I' for Inactive)
REMARK    1  A    between atoms: N_4  and  C_5
REMARK                            x       y       z     vdW  Elec       q    Type
REMARK                         _______ _______ _______ _____ _____    ______ ____
ROOT
ATOM      1  C   UNL     1       5.730   4.375  18.846  0.00  0.00    +0.000 C 
ATOM      2  C   UNL     1       4.510   3.844  18.662  0.00  0.00    +0.000 C 
ATOM      3  C   UNL     1       3.521   4.413  17.718  0.00  0.00    +0.000 C 
ATOM      4  O   UNL     1       3.786   5.314  16.928  0.00  0.00    +0.000 OA
ATOM      5  N   UNL     1       2.272   3.858  17.783  0.00  0.00    +0.000 N 
ATOM      6  C   UNL     1       1.906   2.770  18.516  0.00  0.00    +0.000 C 
ATOM      7  O   UNL     1       0.778   2.296  18.440  0.00  0.00    +0.000 OA
ATOM      8  N   UNL     1       2.857   2.227  19.322  0.00  0.00    +0.000 N 
ATOM      9  C   UNL     1       4.142   2.662  19.479  0.00  0.00    +0.000 C 
ATOM     10  O   UNL     1       4.910   2.105  20.253  0.00  0.00    +0.000 OA
ATOM     11  H   UNL     1       1.571   4.231  17.158  0.00  0.00    +0.000 HD
ATOM     12  H   UNL     1       2.584   1.422  19.870  0.00  0.00    +0.000 HD
ENDROOT
BRANCH   1  16
ATOM     13  N   UNL     1       7.646   6.690  16.898  0.00  0.00    +0.000 N 
ATOM     14  C   UNL     1       7.280   5.460  17.342  0.00  0.00    +0.000 C 
ATOM     15  O   UNL     1       7.883   4.457  16.981  0.00  0.00    +0.000 OA
ATOM     16  N   UNL     1       6.215   5.493  18.203  0.00  0.00    +0.000 N 
ATOM     17  H   UNL     1       8.503   6.669  16.357  0.00  0.00    +0.000 HD
ATOM     18  H   UNL     1       7.582   7.458  17.549  0.00  0.00    +0.000 HD
ATOM     19  H   UNL     1       5.720   6.374  18.316  0.00  0.00    +0.000 HD
ENDBRANCH   1  16
TORSDOF 1
ENDMDL
MODEL 6
REMARK VINA RESULT:      -6.5      3.026      5.334
REMARK  Name = 
REMARK  1 active torsions:
REMARK  status: ('A' for Active; 'I' for Inactive)
REMARK    1  A    between atoms: N_4  and  C_5
REMARK                            x       y       z     vdW  Elec       q    Type
REMARK                         _______ _______ _______ _____ _____    ______ ____
ROOT
ATOM      1  C   UNL     1       4.714   4.478  16.141  0.00  0.00    +0.000 C 
ATOM      2  C   UNL     1       4.539   3.959  17.368  0.00  0.00    +0.000 C 
ATOM      3  C   UNL     1       5.583   4.009  18.416  0.00  0.00    +0.000 C 
ATOM      4  O   UNL     1       6.623   4.651  18.301  0.00  0.00    +0.000 OA
ATOM      5  N   UNL     1       5.309   3.282  19.543  0.00  0.00    +0.000 N 
ATOM      6  C   UNL     1       4.138   2.652  19.835  0.00  0.00    +0.000 C 
ATOM      7  O   UNL     1       3.959   2.097  20.913  0.00  0.00    +0.000 OA
ATOM      8  N   UNL     1       3.171   2.683  18.879  0.00  0.00    +0.000 N 
ATOM      9  C   UNL     1       3.254   3.276  17.651  0.00  0.00    +0.000 C 
ATOM     10  O   UNL     1       2.323   3.223  16.858  0.00  0.00    +0.000 OA
ATOM     11  H   UNL     1       6.006   3.289  20.274  0.00  0.00    +0.000 HD
ATOM     12  H   UNL     1       2.303   2.210  19.093  0.00  0.00    +0.000 HD
ENDROOT
BRANCH   1  16
ATOM     13  N   UNL     1       7.721   5.387  14.423  0.00  0.00    +0.000 N 
ATOM     14  C   UNL     1       6.581   4.676  14.619  0.00  0.00    +0.000 C 
ATOM     15  O   UNL     1       6.284   3.748  13.878  0.00  0.00    +0.000 OA
ATOM     16  N   UNL     1       5.857   5.106  15.700  0.00  0.00    +0.000 N 
ATOM     17  H   UNL     1       8.306   4.991  13.696  0.00  0.00    +0.000 HD
ATOM     18  H   UNL     1       8.224   5.698  15.240  0.00  0.00    +0.000 HD
ATOM     19  H   UNL     1       6.144   5.971  16.152  0.00  0.00    +0.000 HD
ENDBRANCH   1  16
TORSDOF 1
ENDMDL
MODEL 7
REMARK VINA RESULT:      -6.5      2.536      3.402
REMARK  Name = 
REMARK  1 active torsions:
REMARK  status: ('A' for Active; 'I' for Inactive)
REMARK    1  A    between atoms: N_4  and  C_5
REMARK                            x       y       z     vdW  Elec       q    Type
REMARK                         _______ _______ _______ _____ _____    ______ ____
ROOT
ATOM      1  C   UNL     1       3.085   5.068  19.819  0.00  0.00    +0.000 C 
ATOM      2  C   UNL     1       4.160   4.986  19.015  0.00  0.00    +0.000 C 
ATOM      3  C   UNL     1       5.148   3.887  19.110  0.00  0.00    +0.000 C 
ATOM      4  O   UNL     1       4.989   2.897  19.817  0.00  0.00    +0.000 OA
ATOM      5  N   UNL     1       6.269   4.049  18.341  0.00  0.00    +0.000 N 
ATOM      6  C   UNL     1       6.486   5.030  17.422  0.00  0.00    +0.000 C 
ATOM      7  O   UNL     1       7.490   5.040  16.719  0.00  0.00    +0.000 OA
ATOM      8  N   UNL     1       5.527   5.987  17.309  0.00  0.00    +0.000 N 
ATOM      9  C   UNL     1       4.368   6.072  18.029  0.00  0.00    +0.000 C 
ATOM     10  O   UNL     1       3.582   6.995  17.857  0.00  0.00    +0.000 OA
ATOM     11  H   UNL     1       6.968   3.321  18.389  0.00  0.00    +0.000 HD
ATOM     12  H   UNL     1       5.690   6.719  16.630  0.00  0.00    +0.000 HD
ENDROOT
BRANCH   1  16
ATOM     13  N   UNL     1       1.445   2.714  21.960  0.00  0.00    +0.000 N 
ATOM     14  C   UNL     1       1.591   3.468  20.840  0.00  0.00    +0.000 C 
ATOM     15  O   UNL     1       0.723   3.484  19.977  0.00  0.00    +0.000 OA
ATOM     16  N   UNL     1       2.766   4.171  20.813  0.00  0.00    +0.000 N 
ATOM     17  H   UNL     1       0.527   2.290  22.027  0.00  0.00    +0.000 HD
ATOM     18  H   UNL     1       1.793   3.095  22.827  0.00  0.00    +0.000 HD
ATOM     19  H   UNL     1       3.461   3.966  21.527  0.00  0.00    +0.000 HD
ENDBRANCH   1  16
TORSDOF 1
ENDMDL
MODEL 8
REMARK VINA RESULT:      -6.4      2.571      3.636
REMARK  Name = 
REMARK  1 active torsions:
REMARK  status: ('A' for Active; 'I' for Inactive)
REMARK    1  A    between atoms: N_4  and  C_5
REMARK                            x       y       z     vdW  Elec       q    Type
REMARK                         _______ _______ _______ _____ _____    ______ ____
ROOT
ATOM      1  C   UNL     1       2.548   5.029  18.152  0.00  0.00    +0.000 C 
ATOM      2  C   UNL     1       3.881   4.863  18.100  0.00  0.00    +0.000 C 
ATOM      3  C   UNL     1       4.559   3.653  18.620  0.00  0.00    +0.000 C 
ATOM      4  O   UNL     1       3.956   2.653  18.997  0.00  0.00    +0.000 OA
ATOM      5  N   UNL     1       5.926   3.722  18.649  0.00  0.00    +0.000 N 
ATOM      6  C   UNL     1       6.697   4.717  18.130  0.00  0.00    +0.000 C 
ATOM      7  O   UNL     1       7.921   4.646  18.130  0.00  0.00    +0.000 OA
ATOM      8  N   UNL     1       6.044   5.784  17.597  0.00  0.00    +0.000 N 
ATOM      9  C   UNL     1       4.692   5.966  17.533  0.00  0.00    +0.000 C 
ATOM     10  O   UNL     1       4.212   6.983  17.047  0.00  0.00    +0.000 OA
ATOM     11  H   UNL     1       6.419   2.916  19.006  0.00  0.00    +0.000 HD
ATOM     12  H   UNL     1       6.617   6.525  17.216  0.00  0.00    +0.000 HD
ENDROOT
BRANCH   1  16
ATOM     13  N   UNL     1       0.402   3.144  20.311  0.00  0.00    +0.000 N 
ATOM     14  C   UNL     1       1.200   4.189  19.973  0.00  0.00    +0.000 C 
ATOM     15  O   UNL     1       1.458   5.069  20.784  0.00  0.00    +0.000 OA
ATOM     16  N   UNL     1       1.655   4.125  18.683  0.00  0.00    +0.000 N 
ATOM     17  H   UNL     1       0.165   3.137  21.297  0.00  0.00    +0.000 HD
ATOM     18  H   UNL     1       0.635   2.238  19.932  0.00  0.00    +0.000 HD
ATOM     19  H   UNL     1       1.259   3.414  18.073  0.00  0.00    +0.000 HD
ENDBRANCH   1  16
TORSDOF 1
ENDMDL
MODEL 9
REMARK VINA RESULT:      -6.4      2.613      3.938
REMARK  Name = 
REMARK  1 active torsions:
REMARK  status: ('A' for Active; 'I' for Inactive)
REMARK    1  A    between atoms: N_4  and  C_5
REMARK                            x       y       z     vdW  Elec       q    Type
REMARK                         _______ _______ _______ _____ _____    ______ ____
ROOT
ATOM      1  C   UNL     1       4.115   4.167  19.625  0.00  0.00    +0.000 C 
ATOM      2  C   UNL     1       4.899   4.337  18.546  0.00  0.00    +0.000 C 
ATOM      3  C   UNL     1       4.480   3.941  17.182  0.00  0.00    +0.000 C 
ATOM      4  O   UNL     1       3.343   3.571  16.907  0.00  0.00    +0.000 OA
ATOM      5  N   UNL     1       5.460   4.020  16.230  0.00  0.00    +0.000 N 
ATOM      6  C   UNL     1       6.706   4.545  16.391  0.00  0.00    +0.000 C 
ATOM      7  O   UNL     1       7.486   4.649  15.451  0.00  0.00    +0.000 OA
ATOM      8  N   UNL     1       7.037   4.964  17.643  0.00  0.00    +0.000 N 
ATOM      9  C   UNL     1       6.250   4.907  18.758  0.00  0.00    +0.000 C 
ATOM     10  O   UNL     1       6.662   5.297  19.844  0.00  0.00    +0.000 OA
ATOM     11  H   UNL     1       5.210   3.749  15.290  0.00  0.00    +0.000 HD
ATOM     12  H   UNL     1       7.964   5.350  17.764  0.00  0.00    +0.000 HD
ENDROOT
BRANCH   1  16
ATOM     13  N   UNL     1       0.657   3.423  20.178  0.00  0.00    +0.000 N 
ATOM     14  C   UNL     1       1.779   4.186  20.240  0.00  0.00    +0.000 C 
ATOM     15  O   UNL     1       1.773   5.265  20.820  0.00  0.00    +0.000 OA
ATOM     16  N   UNL     1       2.854   3.615  19.612  0.00  0.00    +0.000 N 
ATOM     17  H   UNL     1      -0.099   3.796  20.742  0.00  0.00    +0.000 HD
ATOM     18  H   UNL     1       0.770   2.423  20.240  0.00  0.00    +0.000 HD
ATOM     19  H   UNL     1       2.692   2.780  19.054  0.00  0.00    +0.000 HD
ENDBRANCH   1  16
TORSDOF 1
ENDMDL
