MODEL 1
REMARK VINA RESULT:      -6.0      0.000      0.000
REMARK  Name = 
REMARK  18 active torsions:
REMARK  status: ('A' for Active; 'I' for Inactive)
REMARK    1  A    between atoms: C_2  and  C_3
REMARK    2  A    between atoms: C_2  and  C_4
REMARK    3  A    between atoms: C_11  and  C_12
REMARK    4  A    between atoms: C_11  and  C_13
REMARK    5  A    between atoms: C_13  and  C_14
REMARK    6  A    between atoms: C_13  and  C_15
REMARK    7  A    between atoms: C_15  and  C_16
REMARK    8  A    between atoms: C_16  and  C_18
REMARK    9  A    between atoms: C_18  and  C_19
REMARK   10  A    between atoms: C_19  and  C_20
REMARK   11  A    between atoms: C_19  and  C_21
REMARK   12  A    between atoms: C_21  and  O_23
REMARK   13  A    between atoms: C_24  and  C_25
REMARK   14  A    between atoms: C_29  and  C_30
REMARK   15  A    between atoms: C_29  and  C_31
REMARK   16  A    between atoms: C_31  and  C_32
REMARK   17  A    between atoms: C_32  and  C_33
REMARK   18  A    between atoms: C_33  and  O_35
REMARK                            x       y       z     vdW  Elec       q    Type
REMARK                         _______ _______ _______ _____ _____    ______ ____
ROOT
ATOM      1  C   UNL     1       2.794   4.891  19.642  0.00  0.00    +0.000 C 
ATOM      2  C   UNL     1       2.504   5.523  21.007  0.00  0.00    +0.000 C 
ATOM      3  C   UNL     1       2.068   6.787  21.208  0.00  0.00    +0.000 C 
ATOM      4  C   UNL     1       1.819   7.715  20.109  0.00  0.00    +0.000 C 
ATOM      5  C   UNL     1       1.425   9.014  20.222  0.00  0.00    +0.000 C 
ATOM      6  C   UNL     1       0.793   9.752  21.386  0.00  0.00    +0.000 C 
ATOM      7  C   UNL     1      -0.216  10.771  20.658  0.00  0.00    +0.000 C 
ATOM      8  C   UNL     1      -0.427  10.066  19.201  0.00  0.00    +0.000 C 
ATOM      9  C   UNL     1      -1.601   9.165  19.804  0.00  0.00    +0.000 C 
ATOM     10  C   UNL     1       1.161   9.883  19.005  0.00  0.00    +0.000 C 
ATOM     11  C   UNL     1       1.868  11.328  19.054  0.00  0.00    +0.000 C 
ATOM     12  C   UNL     1       1.936   9.305  17.822  0.00  0.00    +0.000 C 
ATOM     13  C   UNL     1       1.631   7.888  17.533  0.00  0.00    +0.000 C 
ATOM     14  C   UNL     1       1.904   7.013  18.733  0.00  0.00    +0.000 C 
ATOM     15  C   UNL     1       3.092   6.017  18.569  0.00  0.00    +0.000 C 
ATOM     16  C   UNL     1       3.144   5.437  17.127  0.00  0.00    +0.000 C 
ENDROOT
BRANCH   1  18
ATOM     17  C   UNL     1       0.536   3.785  19.963  0.00  0.00    +0.000 C 
ATOM     18  C   UNL     1       1.669   3.894  19.243  0.00  0.00    +0.000 C 
ATOM     19  C   UNL     1       1.820   3.015  18.016  0.00  0.00    +0.000 C 
ENDBRANCH   1  18
BRANCH   8  20
ATOM     20  C   UNL     1      -1.121  10.394  17.781  0.00  0.00    +0.000 C 
ATOM     21  C   UNL     1      -1.263  11.963  17.551  0.00  0.00    +0.000 C 
BRANCH  20  22
ATOM     22  C   UNL     1      -2.516   9.841  17.449  0.00  0.00    +0.000 C 
BRANCH  22  23
ATOM     23  C   UNL     1      -3.224  10.613  16.334  0.00  0.00    +0.000 C 
ATOM     24  O   UNL     1      -2.770  10.739  15.191  0.00  0.00    +0.000 OA
BRANCH  23  25
ATOM     25  C   UNL     1      -4.475  11.332  16.718  0.00  0.00    +0.000 C 
BRANCH  25  26
ATOM     26  C   UNL     1      -4.828  11.023  18.166  0.00  0.00    +0.000 C 
ATOM     27  C   UNL     1      -4.425  12.159  19.109  0.00  0.00    +0.000 C 
BRANCH  26  28
ATOM     28  C   UNL     1      -6.314  10.786  18.257  0.00  0.00    +0.000 C 
ATOM     29  O   UNL     1      -6.824   9.817  18.797  0.00  0.00    +0.000 OA
BRANCH  28  30
ATOM     30  O   UNL     1      -7.040  11.755  17.662  0.00  0.00    +0.000 OA
ATOM     31  H   UNL     1      -7.288  12.485  18.262  0.00  0.00    +0.000 HD
ENDBRANCH  28  30
ENDBRANCH  26  28
ENDBRANCH  25  26
ENDBRANCH  23  25
ENDBRANCH  22  23
ENDBRANCH  20  22
ENDBRANCH   8  20
BRANCH  15  32
ATOM     32  C   UNL     1       4.449   6.765  18.817  0.00  0.00    +0.000 C 
BRANCH  32  33
ATOM     33  C   UNL     1       5.676   6.190  18.114  0.00  0.00    +0.000 C 
BRANCH  33  34
ATOM     34  C   UNL     1       6.360   5.171  18.979  0.00  0.00    +0.000 C 
ATOM     35  O   UNL     1       7.054   5.434  19.955  0.00  0.00    +0.000 OA
BRANCH  34  36
ATOM     36  O   UNL     1       6.111   3.885  18.596  0.00  0.00    +0.000 OA
ATOM     37  H   UNL     1       6.061   3.768  17.616  0.00  0.00    +0.000 HD
ENDBRANCH  34  36
ENDBRANCH  33  34
ENDBRANCH  32  33
ENDBRANCH  15  32
TORSDOF 12
ENDMDL
MODEL 2
REMARK VINA RESULT:      -6.0      5.212      9.527
REMARK  Name = 
REMARK  18 active torsions:
REMARK  status: ('A' for Active; 'I' for Inactive)
REMARK    1  A    between atoms: C_2  and  C_3
REMARK    2  A    between atoms: C_2  and  C_4
REMARK    3  A    between atoms: C_11  and  C_12
REMARK    4  A    between atoms: C_11  and  C_13
REMARK    5  A    between atoms: C_13  and  C_14
REMARK    6  A    between atoms: C_13  and  C_15
REMARK    7  A    between atoms: C_15  and  C_16
REMARK    8  A    between atoms: C_16  and  C_18
REMARK    9  A    between atoms: C_18  and  C_19
REMARK   10  A    between atoms: C_19  and  C_20
REMARK   11  A    between atoms: C_19  and  C_21
REMARK   12  A    between atoms: C_21  and  O_23
REMARK   13  A    between atoms: C_24  and  C_25
REMARK   14  A    between atoms: C_29  and  C_30
REMARK   15  A    between atoms: C_29  and  C_31
REMARK   16  A    between atoms: C_31  and  C_32
REMARK   17  A    between atoms: C_32  and  C_33
REMARK   18  A    between atoms: C_33  and  O_35
REMARK                            x       y       z     vdW  Elec       q    Type
REMARK                         _______ _______ _______ _____ _____    ______ ____
ROOT
ATOM      1  C   UNL     1      -6.998  11.707  19.214  0.00  0.00    +0.000 C 
ATOM      2  C   UNL     1      -6.424  10.726  18.187  0.00  0.00    +0.000 C 
ATOM      3  C   UNL     1      -5.117  10.609  17.861  0.00  0.00    +0.000 C 
ATOM      4  C   UNL     1      -4.079  11.434  18.473  0.00  0.00    +0.000 C 
ATOM      5  C   UNL     1      -2.751  11.416  18.173  0.00  0.00    +0.000 C 
ATOM      6  C   UNL     1      -1.919  10.369  17.459  0.00  0.00    +0.000 C 
ATOM      7  C   UNL     1      -0.510  10.446  18.231  0.00  0.00    +0.000 C 
ATOM      8  C   UNL     1      -0.930  11.133  19.650  0.00  0.00    +0.000 C 
ATOM      9  C   UNL     1      -1.297   9.695  20.241  0.00  0.00    +0.000 C 
ATOM     10  C   UNL     1      -1.750  12.297  18.899  0.00  0.00    +0.000 C 
ATOM     11  C   UNL     1      -0.750  13.107  17.931  0.00  0.00    +0.000 C 
ATOM     12  C   UNL     1      -2.497  13.495  19.485  0.00  0.00    +0.000 C 
ATOM     13  C   UNL     1      -3.621  13.132  20.373  0.00  0.00    +0.000 C 
ATOM     14  C   UNL     1      -4.629  12.267  19.656  0.00  0.00    +0.000 C 
ATOM     15  C   UNL     1      -6.016  12.934  19.408  0.00  0.00    +0.000 C 
ATOM     16  C   UNL     1      -6.437  13.820  20.615  0.00  0.00    +0.000 C 
ENDROOT
BRANCH   1  18
ATOM     17  C   UNL     1      -7.655  11.645  21.661  0.00  0.00    +0.000 C 
ATOM     18  C   UNL     1      -7.386  10.970  20.527  0.00  0.00    +0.000 C 
ATOM     19  C   UNL     1      -7.480   9.456  20.561  0.00  0.00    +0.000 C 
ENDBRANCH   1  18
BRANCH   8  20
ATOM     20  C   UNL     1      -0.218  11.728  20.971  0.00  0.00    +0.000 C 
ATOM     21  C   UNL     1       1.351  11.458  20.958  0.00  0.00    +0.000 C 
BRANCH  20  22
ATOM     22  C   UNL     1      -0.662  11.269  22.369  0.00  0.00    +0.000 C 
BRANCH  22  23
ATOM     23  C   UNL     1      -1.450  12.334  23.134  0.00  0.00    +0.000 C 
ATOM     24  O   UNL     1      -0.932  13.328  23.657  0.00  0.00    +0.000 OA
BRANCH  23  25
ATOM     25  C   UNL     1      -2.904  12.066  23.334  0.00  0.00    +0.000 C 
BRANCH  25  26
ATOM     26  C   UNL     1      -3.517  13.154  24.206  0.00  0.00    +0.000 C 
ATOM     27  C   UNL     1      -4.127  14.282  23.370  0.00  0.00    +0.000 C 
BRANCH  26  28
ATOM     28  C   UNL     1      -4.579  12.530  25.075  0.00  0.00    +0.000 C 
ATOM     29  O   UNL     1      -5.591  11.996  24.648  0.00  0.00    +0.000 OA
BRANCH  28  30
ATOM     30  O   UNL     1      -4.309  12.631  26.392  0.00  0.00    +0.000 OA
ATOM     31  H   UNL     1      -4.651  11.884  26.923  0.00  0.00    +0.000 HD
ENDBRANCH  28  30
ENDBRANCH  26  28
ENDBRANCH  25  26
ENDBRANCH  23  25
ENDBRANCH  22  23
ENDBRANCH  20  22
ENDBRANCH   8  20
BRANCH  15  32
ATOM     32  C   UNL     1      -5.938  13.870  18.151  0.00  0.00    +0.000 C 
BRANCH  32  33
ATOM     33  C   UNL     1      -7.266  14.413  17.630  0.00  0.00    +0.000 C 
BRANCH  33  34
ATOM     34  C   UNL     1      -7.040  15.555  16.681  0.00  0.00    +0.000 C 
ATOM     35  O   UNL     1      -7.135  15.481  15.461  0.00  0.00    +0.000 OA
BRANCH  34  36
ATOM     36  O   UNL     1      -6.744  16.729  17.312  0.00  0.00    +0.000 OA
ATOM     37  H   UNL     1      -7.402  17.446  17.140  0.00  0.00    +0.000 HD
ENDBRANCH  34  36
ENDBRANCH  33  34
ENDBRANCH  32  33
ENDBRANCH  15  32
TORSDOF 12
ENDMDL
MODEL 3
REMARK VINA RESULT:      -6.0      5.170      8.373
REMARK  Name = 
REMARK  18 active torsions:
REMARK  status: ('A' for Active; 'I' for Inactive)
REMARK    1  A    between atoms: C_2  and  C_3
REMARK    2  A    between atoms: C_2  and  C_4
REMARK    3  A    between atoms: C_11  and  C_12
REMARK    4  A    between atoms: C_11  and  C_13
REMARK    5  A    between atoms: C_13  and  C_14
REMARK    6  A    between atoms: C_13  and  C_15
REMARK    7  A    between atoms: C_15  and  C_16
REMARK    8  A    between atoms: C_16  and  C_18
REMARK    9  A    between atoms: C_18  and  C_19
REMARK   10  A    between atoms: C_19  and  C_20
REMARK   11  A    between atoms: C_19  and  C_21
REMARK   12  A    between atoms: C_21  and  O_23
REMARK   13  A    between atoms: C_24  and  C_25
REMARK   14  A    between atoms: C_29  and  C_30
REMARK   15  A    between atoms: C_29  and  C_31
REMARK   16  A    between atoms: C_31  and  C_32
REMARK   17  A    between atoms: C_32  and  C_33
REMARK   18  A    between atoms: C_33  and  O_35
REMARK                            x       y       z     vdW  Elec       q    Type
REMARK                         _______ _______ _______ _____ _____    ______ ____
ROOT
ATOM      1  C   UNL     1      -0.002  12.055  19.157  0.00  0.00    +0.000 C 
ATOM      2  C   UNL     1      -1.459  11.954  18.698  0.00  0.00    +0.000 C 
ATOM      3  C   UNL     1      -2.542  12.209  19.467  0.00  0.00    +0.000 C 
ATOM      4  C   UNL     1      -2.433  12.622  20.863  0.00  0.00    +0.000 C 
ATOM      5  C   UNL     1      -3.465  12.854  21.720  0.00  0.00    +0.000 C 
ATOM      6  C   UNL     1      -4.932  13.120  21.443  0.00  0.00    +0.000 C 
ATOM      7  C   UNL     1      -5.327  14.172  22.594  0.00  0.00    +0.000 C 
ATOM      8  C   UNL     1      -3.875  14.786  23.015  0.00  0.00    +0.000 C 
ATOM      9  C   UNL     1      -3.987  15.864  21.842  0.00  0.00    +0.000 C 
ATOM     10  C   UNL     1      -3.237  13.314  23.149  0.00  0.00    +0.000 C 
ATOM     11  C   UNL     1      -4.059  12.481  24.255  0.00  0.00    +0.000 C 
ATOM     12  C   UNL     1      -1.829  12.897  23.571  0.00  0.00    +0.000 C 
ATOM     13  C   UNL     1      -0.759  13.393  22.681  0.00  0.00    +0.000 C 
ATOM     14  C   UNL     1      -0.969  12.930  21.260  0.00  0.00    +0.000 C 
ATOM     15  C   UNL     1       0.089  11.913  20.732  0.00  0.00    +0.000 C 
ATOM     16  C   UNL     1       1.511  12.257  21.259  0.00  0.00    +0.000 C 
ENDROOT
BRANCH   1  18
ATOM     17  C   UNL     1       1.920  13.300  18.069  0.00  0.00    +0.000 C 
ATOM     18  C   UNL     1       0.674  13.331  18.579  0.00  0.00    +0.000 C 
ATOM     19  C   UNL     1      -0.065  14.656  18.571  0.00  0.00    +0.000 C 
ENDBRANCH   1  18
BRANCH   8  20
ATOM     20  C   UNL     1      -3.246  15.761  24.138  0.00  0.00    +0.000 C 
ATOM     21  C   UNL     1      -4.384  16.518  24.954  0.00  0.00    +0.000 C 
BRANCH  20  22
ATOM     22  C   UNL     1      -2.267  16.877  23.741  0.00  0.00    +0.000 C 
BRANCH  22  23
ATOM     23  C   UNL     1      -0.808  16.545  24.059  0.00  0.00    +0.000 C 
ATOM     24  O   UNL     1      -0.460  15.779  24.965  0.00  0.00    +0.000 OA
BRANCH  23  25
ATOM     25  C   UNL     1       0.226  17.292  23.284  0.00  0.00    +0.000 C 
BRANCH  25  26
ATOM     26  C   UNL     1       0.359  16.698  21.889  0.00  0.00    +0.000 C 
ATOM     27  C   UNL     1      -0.076  17.684  20.802  0.00  0.00    +0.000 C 
BRANCH  26  28
ATOM     28  C   UNL     1       1.797  16.300  21.673  0.00  0.00    +0.000 C 
ATOM     29  O   UNL     1       2.430  15.574  22.423  0.00  0.00    +0.000 OA
BRANCH  28  30
ATOM     30  O   UNL     1       2.333  16.842  20.560  0.00  0.00    +0.000 OA
ATOM     31  H   UNL     1       2.986  16.265  20.116  0.00  0.00    +0.000 HD
ENDBRANCH  28  30
ENDBRANCH  26  28
ENDBRANCH  25  26
ENDBRANCH  23  25
ENDBRANCH  22  23
ENDBRANCH  20  22
ENDBRANCH   8  20
BRANCH  15  32
ATOM     32  C   UNL     1      -0.259  10.472  21.245  0.00  0.00    +0.000 C 
BRANCH  32  33
ATOM     33  C   UNL     1       0.085   9.319  20.305  0.00  0.00    +0.000 C 
BRANCH  33  34
ATOM     34  C   UNL     1       1.251   8.531  20.829  0.00  0.00    +0.000 C 
ATOM     35  O   UNL     1       1.937   7.767  20.160  0.00  0.00    +0.000 OA
BRANCH  34  36
ATOM     36  O   UNL     1       1.513   8.770  22.147  0.00  0.00    +0.000 OA
ATOM     37  H   UNL     1       0.894   9.420  22.560  0.00  0.00    +0.000 HD
ENDBRANCH  34  36
ENDBRANCH  33  34
ENDBRANCH  32  33
ENDBRANCH  15  32
TORSDOF 12
ENDMDL
MODEL 4
REMARK VINA RESULT:      -6.0      3.923      7.265
REMARK  Name = 
REMARK  18 active torsions:
REMARK  status: ('A' for Active; 'I' for Inactive)
REMARK    1  A    between atoms: C_2  and  C_3
REMARK    2  A    between atoms: C_2  and  C_4
REMARK    3  A    between atoms: C_11  and  C_12
REMARK    4  A    between atoms: C_11  and  C_13
REMARK    5  A    between atoms: C_13  and  C_14
REMARK    6  A    between atoms: C_13  and  C_15
REMARK    7  A    between atoms: C_15  and  C_16
REMARK    8  A    between atoms: C_16  and  C_18
REMARK    9  A    between atoms: C_18  and  C_19
REMARK   10  A    between atoms: C_19  and  C_20
REMARK   11  A    between atoms: C_19  and  C_21
REMARK   12  A    between atoms: C_21  and  O_23
REMARK   13  A    between atoms: C_24  and  C_25
REMARK   14  A    between atoms: C_29  and  C_30
REMARK   15  A    between atoms: C_29  and  C_31
REMARK   16  A    between atoms: C_31  and  C_32
REMARK   17  A    between atoms: C_32  and  C_33
REMARK   18  A    between atoms: C_33  and  O_35
REMARK                            x       y       z     vdW  Elec       q    Type
REMARK                         _______ _______ _______ _____ _____    ______ ____
ROOT
ATOM      1  C   UNL     1       0.737   9.796  18.922  0.00  0.00    +0.000 C 
ATOM      2  C   UNL     1       1.964  10.417  18.247  0.00  0.00    +0.000 C 
ATOM      3  C   UNL     1       2.219  11.741  18.152  0.00  0.00    +0.000 C 
ATOM      4  C   UNL     1       1.322  12.754  18.701  0.00  0.00    +0.000 C 
ATOM      5  C   UNL     1       1.476  14.104  18.611  0.00  0.00    +0.000 C 
ATOM      6  C   UNL     1       2.703  14.934  18.289  0.00  0.00    +0.000 C 
ATOM      7  C   UNL     1       2.510  16.232  19.219  0.00  0.00    +0.000 C 
ATOM      8  C   UNL     1       1.482  15.687  20.363  0.00  0.00    +0.000 C 
ATOM      9  C   UNL     1       2.715  15.129  21.212  0.00  0.00    +0.000 C 
ATOM     10  C   UNL     1       0.495  15.071  19.251  0.00  0.00    +0.000 C 
ATOM     11  C   UNL     1      -0.007  16.250  18.277  0.00  0.00    +0.000 C 
ATOM     12  C   UNL     1      -0.843  14.354  19.426  0.00  0.00    +0.000 C 
ATOM     13  C   UNL     1      -0.761  13.098  20.200  0.00  0.00    +0.000 C 
ATOM     14  C   UNL     1       0.202  12.125  19.564  0.00  0.00    +0.000 C 
ATOM     15  C   UNL     1      -0.452  10.841  18.968  0.00  0.00    +0.000 C 
ATOM     16  C   UNL     1      -1.622  10.340  19.861  0.00  0.00    +0.000 C 
ENDROOT
BRANCH   1  18
ATOM     17  C   UNL     1       1.592   7.924  20.404  0.00  0.00    +0.000 C 
ATOM     18  C   UNL     1       1.115   9.180  20.300  0.00  0.00    +0.000 C 
ATOM     19  C   UNL     1       0.961   9.990  21.573  0.00  0.00    +0.000 C 
ENDBRANCH   1  18
BRANCH   8  20
ATOM     20  C   UNL     1       0.620  16.267  21.599  0.00  0.00    +0.000 C 
ATOM     21  C   UNL     1       1.346  17.509  22.282  0.00  0.00    +0.000 C 
BRANCH  20  22
ATOM     22  C   UNL     1       0.245  15.360  22.781  0.00  0.00    +0.000 C 
BRANCH  22  23
ATOM     23  C   UNL     1      -1.249  15.379  23.109  0.00  0.00    +0.000 C 
ATOM     24  O   UNL     1      -2.010  16.300  22.790  0.00  0.00    +0.000 OA
BRANCH  23  25
ATOM     25  C   UNL     1      -1.756  14.260  23.958  0.00  0.00    +0.000 C 
BRANCH  25  26
ATOM     26  C   UNL     1      -2.594  13.308  23.115  0.00  0.00    +0.000 C 
ATOM     27  C   UNL     1      -2.133  11.856  23.262  0.00  0.00    +0.000 C 
BRANCH  26  28
ATOM     28  C   UNL     1      -4.034  13.433  23.540  0.00  0.00    +0.000 C 
ATOM     29  O   UNL     1      -4.509  14.418  24.084  0.00  0.00    +0.000 OA
BRANCH  28  30
ATOM     30  O   UNL     1      -4.761  12.328  23.273  0.00  0.00    +0.000 OA
ATOM     31  H   UNL     1      -5.354  12.424  22.501  0.00  0.00    +0.000 HD
ENDBRANCH  28  30
ENDBRANCH  26  28
ENDBRANCH  25  26
ENDBRANCH  23  25
ENDBRANCH  22  23
ENDBRANCH  20  22
ENDBRANCH   8  20
BRANCH  15  32
ATOM     32  C   UNL     1      -1.051  11.159  17.553  0.00  0.00    +0.000 C 
BRANCH  32  33
ATOM     33  C   UNL     1      -2.554  10.948  17.393  0.00  0.00    +0.000 C 
BRANCH  33  34
ATOM     34  C   UNL     1      -2.906  10.672  15.959  0.00  0.00    +0.000 C 
ATOM     35  O   UNL     1      -2.738   9.600  15.390  0.00  0.00    +0.000 OA
BRANCH  34  36
ATOM     36  O   UNL     1      -3.478  11.741  15.331  0.00  0.00    +0.000 OA
ATOM     37  H   UNL     1      -4.433  11.866  15.555  0.00  0.00    +0.000 HD
ENDBRANCH  34  36
ENDBRANCH  33  34
ENDBRANCH  32  33
ENDBRANCH  15  32
TORSDOF 12
ENDMDL
MODEL 5
REMARK VINA RESULT:      -5.9      3.904      7.176
REMARK  Name = 
REMARK  18 active torsions:
REMARK  status: ('A' for Active; 'I' for Inactive)
REMARK    1  A    between atoms: C_2  and  C_3
REMARK    2  A    between atoms: C_2  and  C_4
REMARK    3  A    between atoms: C_11  and  C_12
REMARK    4  A    between atoms: C_11  and  C_13
REMARK    5  A    between atoms: C_13  and  C_14
REMARK    6  A    between atoms: C_13  and  C_15
REMARK    7  A    between atoms: C_15  and  C_16
REMARK    8  A    between atoms: C_16  and  C_18
REMARK    9  A    between atoms: C_18  and  C_19
REMARK   10  A    between atoms: C_19  and  C_20
REMARK   11  A    between atoms: C_19  and  C_21
REMARK   12  A    between atoms: C_21  and  O_23
REMARK   13  A    between atoms: C_24  and  C_25
REMARK   14  A    between atoms: C_29  and  C_30
REMARK   15  A    between atoms: C_29  and  C_31
REMARK   16  A    between atoms: C_31  and  C_32
REMARK   17  A    between atoms: C_32  and  C_33
REMARK   18  A    between atoms: C_33  and  O_35
REMARK                            x       y       z     vdW  Elec       q    Type
REMARK                         _______ _______ _______ _____ _____    ______ ____
ROOT
ATOM      1  C   UNL     1       0.904   9.696  18.838  0.00  0.00    +0.000 C 
ATOM      2  C   UNL     1       2.065  10.559  18.336  0.00  0.00    +0.000 C 
ATOM      3  C   UNL     1       2.125  11.908  18.406  0.00  0.00    +0.000 C 
ATOM      4  C   UNL     1       1.054  12.712  18.987  0.00  0.00    +0.000 C 
ATOM      5  C   UNL     1       1.010  14.071  19.057  0.00  0.00    +0.000 C 
ATOM      6  C   UNL     1       2.118  15.098  18.928  0.00  0.00    +0.000 C 
ATOM      7  C   UNL     1       1.674  16.235  19.975  0.00  0.00    +0.000 C 
ATOM      8  C   UNL     1       0.667  15.419  20.966  0.00  0.00    +0.000 C 
ATOM      9  C   UNL     1       1.912  14.943  21.846  0.00  0.00    +0.000 C 
ATOM     10  C   UNL     1      -0.143  14.807  19.717  0.00  0.00    +0.000 C 
ATOM     11  C   UNL     1      -0.752  16.012  18.840  0.00  0.00    +0.000 C 
ATOM     12  C   UNL     1      -1.368  13.893  19.704  0.00  0.00    +0.000 C 
ATOM     13  C   UNL     1      -1.149  12.578  20.341  0.00  0.00    +0.000 C 
ATOM     14  C   UNL     1      -0.013  11.833  19.684  0.00  0.00    +0.000 C 
ATOM     15  C   UNL     1      -0.428  10.550  18.900  0.00  0.00    +0.000 C 
ATOM     16  C   UNL     1      -1.566   9.786  19.636  0.00  0.00    +0.000 C 
ENDROOT
BRANCH   1  18
ATOM     17  C   UNL     1       1.746   7.716  20.179  0.00  0.00    +0.000 C 
ATOM     18  C   UNL     1       1.280   8.980  20.167  0.00  0.00    +0.000 C 
ATOM     19  C   UNL     1       1.136   9.697  21.495  0.00  0.00    +0.000 C 
ENDBRANCH   1  18
BRANCH   8  20
ATOM     20  C   UNL     1      -0.349  15.721  22.184  0.00  0.00    +0.000 C 
ATOM     21  C   UNL     1       0.055  17.048  22.964  0.00  0.00    +0.000 C 
BRANCH  20  22
ATOM     22  C   UNL     1      -0.559  14.683  23.298  0.00  0.00    +0.000 C 
BRANCH  22  23
ATOM     23  C   UNL     1      -1.984  14.672  23.855  0.00  0.00    +0.000 C 
ATOM     24  O   UNL     1      -2.253  14.811  25.054  0.00  0.00    +0.000 OA
BRANCH  23  25
ATOM     25  C   UNL     1      -3.073  14.364  22.883  0.00  0.00    +0.000 C 
BRANCH  25  26
ATOM     26  C   UNL     1      -3.567  12.939  23.092  0.00  0.00    +0.000 C 
ATOM     27  C   UNL     1      -2.418  11.971  23.381  0.00  0.00    +0.000 C 
BRANCH  26  28
ATOM     28  C   UNL     1      -4.541  12.934  24.243  0.00  0.00    +0.000 C 
ATOM     29  O   UNL     1      -4.732  11.978  24.979  0.00  0.00    +0.000 OA
BRANCH  28  30
ATOM     30  O   UNL     1      -5.205  14.100  24.377  0.00  0.00    +0.000 OA
ATOM     31  H   UNL     1      -5.830  14.113  25.129  0.00  0.00    +0.000 HD
ENDBRANCH  28  30
ENDBRANCH  26  28
ENDBRANCH  25  26
ENDBRANCH  23  25
ENDBRANCH  22  23
ENDBRANCH  20  22
ENDBRANCH   8  20
BRANCH  15  32
ATOM     32  C   UNL     1      -0.976  10.947  17.485  0.00  0.00    +0.000 C 
BRANCH  32  33
ATOM     33  C   UNL     1      -2.494  10.965  17.328  0.00  0.00    +0.000 C 
BRANCH  33  34
ATOM     34  C   UNL     1      -2.890  10.653  15.913  0.00  0.00    +0.000 C 
ATOM     35  O   UNL     1      -2.764   9.559  15.376  0.00  0.00    +0.000 OA
BRANCH  34  36
ATOM     36  O   UNL     1      -3.450  11.716  15.265  0.00  0.00    +0.000 OA
ATOM     37  H   UNL     1      -2.834  12.162  14.634  0.00  0.00    +0.000 HD
ENDBRANCH  34  36
ENDBRANCH  33  34
ENDBRANCH  32  33
ENDBRANCH  15  32
TORSDOF 12
ENDMDL
MODEL 6
REMARK VINA RESULT:      -5.9      4.407      7.782
REMARK  Name = 
REMARK  18 active torsions:
REMARK  status: ('A' for Active; 'I' for Inactive)
REMARK    1  A    between atoms: C_2  and  C_3
REMARK    2  A    between atoms: C_2  and  C_4
REMARK    3  A    between atoms: C_11  and  C_12
REMARK    4  A    between atoms: C_11  and  C_13
REMARK    5  A    between atoms: C_13  and  C_14
REMARK    6  A    between atoms: C_13  and  C_15
REMARK    7  A    between atoms: C_15  and  C_16
REMARK    8  A    between atoms: C_16  and  C_18
REMARK    9  A    between atoms: C_18  and  C_19
REMARK   10  A    between atoms: C_19  and  C_20
REMARK   11  A    between atoms: C_19  and  C_21
REMARK   12  A    between atoms: C_21  and  O_23
REMARK   13  A    between atoms: C_24  and  C_25
REMARK   14  A    between atoms: C_29  and  C_30
REMARK   15  A    between atoms: C_29  and  C_31
REMARK   16  A    between atoms: C_31  and  C_32
REMARK   17  A    between atoms: C_32  and  C_33
REMARK   18  A    between atoms: C_33  and  O_35
REMARK                            x       y       z     vdW  Elec       q    Type
REMARK                         _______ _______ _______ _____ _____    ______ ____
ROOT
ATOM      1  C   UNL     1       0.003  10.304  19.334  0.00  0.00    +0.000 C 
ATOM      2  C   UNL     1       1.322  10.718  18.676  0.00  0.00    +0.000 C 
ATOM      3  C   UNL     1       1.752  11.989  18.515  0.00  0.00    +0.000 C 
ATOM      4  C   UNL     1       0.978  13.142  18.965  0.00  0.00    +0.000 C 
ATOM      5  C   UNL     1       1.310  14.453  18.803  0.00  0.00    +0.000 C 
ATOM      6  C   UNL     1       2.647  15.095  18.485  0.00  0.00    +0.000 C 
ATOM      7  C   UNL     1       2.594  16.463  19.329  0.00  0.00    +0.000 C 
ATOM      8  C   UNL     1       1.464  16.130  20.458  0.00  0.00    +0.000 C 
ATOM      9  C   UNL     1       2.584  15.473  21.389  0.00  0.00    +0.000 C 
ATOM     10  C   UNL     1       0.443  15.576  19.343  0.00  0.00    +0.000 C 
ATOM     11  C   UNL     1       0.134  16.747  18.282  0.00  0.00    +0.000 C 
ATOM     12  C   UNL     1      -0.982  15.051  19.503  0.00  0.00    +0.000 C 
ATOM     13  C   UNL     1      -1.092  13.846  20.352  0.00  0.00    +0.000 C 
ATOM     14  C   UNL     1      -0.244  12.719  19.816  0.00  0.00    +0.000 C 
ATOM     15  C   UNL     1      -1.040  11.495  19.268  0.00  0.00    +0.000 C 
ATOM     16  C   UNL     1      -2.296  11.206  20.139  0.00  0.00    +0.000 C 
ENDROOT
BRANCH   1  18
ATOM     17  C   UNL     1       1.046  10.365  21.644  0.00  0.00    +0.000 C 
ATOM     18  C   UNL     1       0.249   9.734  20.760  0.00  0.00    +0.000 C 
ATOM     19  C   UNL     1      -0.414   8.441  21.196  0.00  0.00    +0.000 C 
ENDBRANCH   1  18
BRANCH   8  20
ATOM     20  C   UNL     1       0.645  16.894  21.621  0.00  0.00    +0.000 C 
ATOM     21  C   UNL     1       1.299  18.303  21.965  0.00  0.00    +0.000 C 
BRANCH  20  22
ATOM     22  C   UNL     1       0.442  16.233  22.994  0.00  0.00    +0.000 C 
BRANCH  22  23
ATOM     23  C   UNL     1      -1.020  15.898  23.295  0.00  0.00    +0.000 C 
ATOM     24  O   UNL     1      -1.974  16.584  22.912  0.00  0.00    +0.000 OA
BRANCH  23  25
ATOM     25  C   UNL     1      -1.261  14.733  24.197  0.00  0.00    +0.000 C 
BRANCH  25  26
ATOM     26  C   UNL     1      -2.317  13.818  23.592  0.00  0.00    +0.000 C 
ATOM     27  C   UNL     1      -1.822  12.376  23.466  0.00  0.00    +0.000 C 
BRANCH  26  28
ATOM     28  C   UNL     1      -3.546  13.863  24.465  0.00  0.00    +0.000 C 
ATOM     29  O   UNL     1      -4.465  13.062  24.400  0.00  0.00    +0.000 OA
BRANCH  28  30
ATOM     30  O   UNL     1      -3.541  14.897  25.330  0.00  0.00    +0.000 OA
ATOM     31  H   UNL     1      -3.263  15.745  24.929  0.00  0.00    +0.000 HD
ENDBRANCH  28  30
ENDBRANCH  26  28
ENDBRANCH  25  26
ENDBRANCH  23  25
ENDBRANCH  22  23
ENDBRANCH  20  22
ENDBRANCH   8  20
BRANCH  15  32
ATOM     32  C   UNL     1      -1.544  11.797  17.814  0.00  0.00    +0.000 C 
BRANCH  32  33
ATOM     33  C   UNL     1      -3.038  11.609  17.563  0.00  0.00    +0.000 C 
BRANCH  33  34
ATOM     34  C   UNL     1      -3.277  10.901  16.260  0.00  0.00    +0.000 C 
ATOM     35  O   UNL     1      -2.414  10.326  15.607  0.00  0.00    +0.000 OA
BRANCH  34  36
ATOM     36  O   UNL     1      -4.584  10.924  15.868  0.00  0.00    +0.000 OA
ATOM     37  H   UNL     1      -5.028  11.793  16.024  0.00  0.00    +0.000 HD
ENDBRANCH  34  36
ENDBRANCH  33  34
ENDBRANCH  32  33
ENDBRANCH  15  32
TORSDOF 12
ENDMDL
MODEL 7
REMARK VINA RESULT:      -5.8      4.886      8.061
REMARK  Name = 
REMARK  18 active torsions:
REMARK  status: ('A' for Active; 'I' for Inactive)
REMARK    1  A    between atoms: C_2  and  C_3
REMARK    2  A    between atoms: C_2  and  C_4
REMARK    3  A    between atoms: C_11  and  C_12
REMARK    4  A    between atoms: C_11  and  C_13
REMARK    5  A    between atoms: C_13  and  C_14
REMARK    6  A    between atoms: C_13  and  C_15
REMARK    7  A    between atoms: C_15  and  C_16
REMARK    8  A    between atoms: C_16  and  C_18
REMARK    9  A    between atoms: C_18  and  C_19
REMARK   10  A    between atoms: C_19  and  C_20
REMARK   11  A    between atoms: C_19  and  C_21
REMARK   12  A    between atoms: C_21  and  O_23
REMARK   13  A    between atoms: C_24  and  C_25
REMARK   14  A    between atoms: C_29  and  C_30
REMARK   15  A    between atoms: C_29  and  C_31
REMARK   16  A    between atoms: C_31  and  C_32
REMARK   17  A    between atoms: C_32  and  C_33
REMARK   18  A    between atoms: C_33  and  O_35
REMARK                            x       y       z     vdW  Elec       q    Type
REMARK                         _______ _______ _______ _____ _____    ______ ____
ROOT
ATOM      1  C   UNL     1       0.254  12.353  20.285  0.00  0.00    +0.000 C 
ATOM      2  C   UNL     1       0.763  13.172  21.475  0.00  0.00    +0.000 C 
ATOM      3  C   UNL     1       0.016  14.018  22.219  0.00  0.00    +0.000 C 
ATOM      4  C   UNL     1      -1.401  14.250  21.958  0.00  0.00    +0.000 C 
ATOM      5  C   UNL     1      -2.215  15.116  22.624  0.00  0.00    +0.000 C 
ATOM      6  C   UNL     1      -2.048  15.777  23.979  0.00  0.00    +0.000 C 
ATOM      7  C   UNL     1      -3.554  15.821  24.542  0.00  0.00    +0.000 C 
ATOM      8  C   UNL     1      -4.286  14.659  23.662  0.00  0.00    +0.000 C 
ATOM      9  C   UNL     1      -3.811  13.556  24.715  0.00  0.00    +0.000 C 
ATOM     10  C   UNL     1      -3.690  15.254  22.290  0.00  0.00    +0.000 C 
ATOM     11  C   UNL     1      -4.192  16.773  22.110  0.00  0.00    +0.000 C 
ATOM     12  C   UNL     1      -3.904  14.786  20.851  0.00  0.00    +0.000 C 
ATOM     13  C   UNL     1      -3.429  13.412  20.584  0.00  0.00    +0.000 C 
ATOM     14  C   UNL     1      -1.961  13.268  20.901  0.00  0.00    +0.000 C 
ATOM     15  C   UNL     1      -1.038  13.028  19.666  0.00  0.00    +0.000 C 
ATOM     16  C   UNL     1      -1.726  12.103  18.623  0.00  0.00    +0.000 C 
ENDROOT
BRANCH   1  18
ATOM     17  C   UNL     1      -0.505  10.491  21.829  0.00  0.00    +0.000 C 
ATOM     18  C   UNL     1       0.083  10.857  20.673  0.00  0.00    +0.000 C 
ATOM     19  C   UNL     1       0.575   9.760  19.748  0.00  0.00    +0.000 C 
ENDBRANCH   1  18
BRANCH   8  20
ATOM     20  C   UNL     1      -5.773  14.081  23.408  0.00  0.00    +0.000 C 
ATOM     21  C   UNL     1      -6.887  15.129  23.847  0.00  0.00    +0.000 C 
BRANCH  20  22
ATOM     22  C   UNL     1      -6.220  12.765  24.065  0.00  0.00    +0.000 C 
BRANCH  22  23
ATOM     23  C   UNL     1      -7.346  12.061  23.306  0.00  0.00    +0.000 C 
ATOM     24  O   UNL     1      -7.915  11.042  23.714  0.00  0.00    +0.000 OA
BRANCH  23  25
ATOM     25  C   UNL     1      -7.671  12.600  21.953  0.00  0.00    +0.000 C 
BRANCH  25  26
ATOM     26  C   UNL     1      -6.901  11.829  20.889  0.00  0.00    +0.000 C 
ATOM     27  C   UNL     1      -7.589  10.511  20.527  0.00  0.00    +0.000 C 
BRANCH  26  28
ATOM     28  C   UNL     1      -6.782  12.696  19.662  0.00  0.00    +0.000 C 
ATOM     29  O   UNL     1      -7.219  13.834  19.578  0.00  0.00    +0.000 OA
BRANCH  28  30
ATOM     30  O   UNL     1      -6.147  12.083  18.642  0.00  0.00    +0.000 OA
ATOM     31  H   UNL     1      -5.928  11.147  18.820  0.00  0.00    +0.000 HD
ENDBRANCH  28  30
ENDBRANCH  26  28
ENDBRANCH  25  26
ENDBRANCH  23  25
ENDBRANCH  22  23
ENDBRANCH  20  22
ENDBRANCH   8  20
BRANCH  15  32
ATOM     32  C   UNL     1      -0.742  14.393  18.952  0.00  0.00    +0.000 C 
BRANCH  32  33
ATOM     33  C   UNL     1       0.719  14.674  18.612  0.00  0.00    +0.000 C 
BRANCH  33  34
ATOM     34  C   UNL     1       1.110  16.062  19.036  0.00  0.00    +0.000 C 
ATOM     35  O   UNL     1       0.813  16.576  20.108  0.00  0.00    +0.000 OA
BRANCH  34  36
ATOM     36  O   UNL     1       1.876  16.711  18.111  0.00  0.00    +0.000 OA
ATOM     37  H   UNL     1       1.952  16.227  17.253  0.00  0.00    +0.000 HD
ENDBRANCH  34  36
ENDBRANCH  33  34
ENDBRANCH  32  33
ENDBRANCH  15  32
TORSDOF 12
ENDMDL
MODEL 8
REMARK VINA RESULT:      -5.8      5.238      8.404
REMARK  Name = 
REMARK  18 active torsions:
REMARK  status: ('A' for Active; 'I' for Inactive)
REMARK    1  A    between atoms: C_2  and  C_3
REMARK    2  A    between atoms: C_2  and  C_4
REMARK    3  A    between atoms: C_11  and  C_12
REMARK    4  A    between atoms: C_11  and  C_13
REMARK    5  A    between atoms: C_13  and  C_14
REMARK    6  A    between atoms: C_13  and  C_15
REMARK    7  A    between atoms: C_15  and  C_16
REMARK    8  A    between atoms: C_16  and  C_18
REMARK    9  A    between atoms: C_18  and  C_19
REMARK   10  A    between atoms: C_19  and  C_20
REMARK   11  A    between atoms: C_19  and  C_21
REMARK   12  A    between atoms: C_21  and  O_23
REMARK   13  A    between atoms: C_24  and  C_25
REMARK   14  A    between atoms: C_29  and  C_30
REMARK   15  A    between atoms: C_29  and  C_31
REMARK   16  A    between atoms: C_31  and  C_32
REMARK   17  A    between atoms: C_32  and  C_33
REMARK   18  A    between atoms: C_33  and  O_35
REMARK                            x       y       z     vdW  Elec       q    Type
REMARK                         _______ _______ _______ _____ _____    ______ ____
ROOT
ATOM      1  C   UNL     1      -0.029  11.949  19.111  0.00  0.00    +0.000 C 
ATOM      2  C   UNL     1      -1.483  11.819  18.644  0.00  0.00    +0.000 C 
ATOM      3  C   UNL     1      -2.573  12.109  19.389  0.00  0.00    +0.000 C 
ATOM      4  C   UNL     1      -2.478  12.592  20.764  0.00  0.00    +0.000 C 
ATOM      5  C   UNL     1      -3.519  12.863  21.599  0.00  0.00    +0.000 C 
ATOM      6  C   UNL     1      -4.984  13.110  21.295  0.00  0.00    +0.000 C 
ATOM      7  C   UNL     1      -5.393  14.217  22.388  0.00  0.00    +0.000 C 
ATOM      8  C   UNL     1      -3.947  14.857  22.790  0.00  0.00    +0.000 C 
ATOM      9  C   UNL     1      -4.051  15.874  21.563  0.00  0.00    +0.000 C 
ATOM     10  C   UNL     1      -3.306  13.395  23.005  0.00  0.00    +0.000 C 
ATOM     11  C   UNL     1      -4.135  12.617  24.144  0.00  0.00    +0.000 C 
ATOM     12  C   UNL     1      -1.900  13.006  23.460  0.00  0.00    +0.000 C 
ATOM     13  C   UNL     1      -0.823  13.460  22.556  0.00  0.00    +0.000 C 
ATOM     14  C   UNL     1      -1.019  12.925  21.158  0.00  0.00    +0.000 C 
ATOM     15  C   UNL     1       0.047  11.886  20.692  0.00  0.00    +0.000 C 
ATOM     16  C   UNL     1       1.463  12.262  21.214  0.00  0.00    +0.000 C 
ENDROOT
BRANCH   1  18
ATOM     17  C   UNL     1      -0.005  14.369  18.358  0.00  0.00    +0.000 C 
ATOM     18  C   UNL     1       0.648  13.196  18.476  0.00  0.00    +0.000 C 
ATOM     19  C   UNL     1       2.077  13.124  17.974  0.00  0.00    +0.000 C 
ENDBRANCH   1  18
BRANCH   8  20
ATOM     20  C   UNL     1      -3.331  15.889  23.868  0.00  0.00    +0.000 C 
ATOM     21  C   UNL     1      -4.441  16.388  24.895  0.00  0.00    +0.000 C 
BRANCH  20  22
ATOM     22  C   UNL     1      -2.645  17.184  23.404  0.00  0.00    +0.000 C 
BRANCH  22  23
ATOM     23  C   UNL     1      -1.392  17.529  24.212  0.00  0.00    +0.000 C 
ATOM     24  O   UNL     1      -1.344  18.439  25.047  0.00  0.00    +0.000 OA
BRANCH  23  25
ATOM     25  C   UNL     1      -0.152  16.776  23.864  0.00  0.00    +0.000 C 
BRANCH  25  26
ATOM     26  C   UNL     1       0.206  17.012  22.403  0.00  0.00    +0.000 C 
ATOM     27  C   UNL     1       0.471  18.490  22.110  0.00  0.00    +0.000 C 
BRANCH  26  28
ATOM     28  C   UNL     1       1.431  16.198  22.072  0.00  0.00    +0.000 C 
ATOM     29  O   UNL     1       2.088  15.577  22.895  0.00  0.00    +0.000 OA
BRANCH  28  30
ATOM     30  O   UNL     1       1.750  16.230  20.762  0.00  0.00    +0.000 OA
ATOM     31  H   UNL     1       1.111  15.760  20.190  0.00  0.00    +0.000 HD
ENDBRANCH  28  30
ENDBRANCH  26  28
ENDBRANCH  25  26
ENDBRANCH  23  25
ENDBRANCH  22  23
ENDBRANCH  20  22
ENDBRANCH   8  20
BRANCH  15  32
ATOM     32  C   UNL     1      -0.302  10.472  21.273  0.00  0.00    +0.000 C 
BRANCH  32  33
ATOM     33  C   UNL     1       0.876   9.637  21.770  0.00  0.00    +0.000 C 
BRANCH  33  34
ATOM     34  C   UNL     1       1.304   8.643  20.728  0.00  0.00    +0.000 C 
ATOM     35  O   UNL     1       1.369   8.873  19.527  0.00  0.00    +0.000 OA
BRANCH  34  36
ATOM     36  O   UNL     1       1.659   7.433  21.253  0.00  0.00    +0.000 OA
ATOM     37  H   UNL     1       2.631   7.258  21.218  0.00  0.00    +0.000 HD
ENDBRANCH  34  36
ENDBRANCH  33  34
ENDBRANCH  32  33
ENDBRANCH  15  32
TORSDOF 12
ENDMDL
MODEL 9
REMARK VINA RESULT:      -5.8      5.157      8.752
REMARK  Name = 
REMARK  18 active torsions:
REMARK  status: ('A' for Active; 'I' for Inactive)
REMARK    1  A    between atoms: C_2  and  C_3
REMARK    2  A    between atoms: C_2  and  C_4
REMARK    3  A    between atoms: C_11  and  C_12
REMARK    4  A    between atoms: C_11  and  C_13
REMARK    5  A    between atoms: C_13  and  C_14
REMARK    6  A    between atoms: C_13  and  C_15
REMARK    7  A    between atoms: C_15  and  C_16
REMARK    8  A    between atoms: C_16  and  C_18
REMARK    9  A    between atoms: C_18  and  C_19
REMARK   10  A    between atoms: C_19  and  C_20
REMARK   11  A    between atoms: C_19  and  C_21
REMARK   12  A    between atoms: C_21  and  O_23
REMARK   13  A    between atoms: C_24  and  C_25
REMARK   14  A    between atoms: C_29  and  C_30
REMARK   15  A    between atoms: C_29  and  C_31
REMARK   16  A    between atoms: C_31  and  C_32
REMARK   17  A    between atoms: C_32  and  C_33
REMARK   18  A    between atoms: C_33  and  O_35
REMARK                            x       y       z     vdW  Elec       q    Type
REMARK                         _______ _______ _______ _____ _____    ______ ____
ROOT
ATOM      1  C   UNL     1      -1.249  10.782  19.231  0.00  0.00    +0.000 C 
ATOM      2  C   UNL     1      -1.989  11.833  20.064  0.00  0.00    +0.000 C 
ATOM      3  C   UNL     1      -1.458  12.991  20.514  0.00  0.00    +0.000 C 
ATOM      4  C   UNL     1      -0.075  13.376  20.247  0.00  0.00    +0.000 C 
ATOM      5  C   UNL     1       0.554  14.497  20.698  0.00  0.00    +0.000 C 
ATOM      6  C   UNL     1      -0.017  15.790  21.247  0.00  0.00    +0.000 C 
ATOM      7  C   UNL     1       1.014  16.896  20.697  0.00  0.00    +0.000 C 
ATOM      8  C   UNL     1       1.707  16.126  19.436  0.00  0.00    +0.000 C 
ATOM      9  C   UNL     1       0.517  16.606  18.484  0.00  0.00    +0.000 C 
ATOM     10  C   UNL     1       1.991  14.817  20.329  0.00  0.00    +0.000 C 
ATOM     11  C   UNL     1       2.924  15.222  21.578  0.00  0.00    +0.000 C 
ATOM     12  C   UNL     1       2.694  13.514  19.951  0.00  0.00    +0.000 C 
ATOM     13  C   UNL     1       2.028  12.759  18.869  0.00  0.00    +0.000 C 
ATOM     14  C   UNL     1       0.602  12.424  19.232  0.00  0.00    +0.000 C 
ATOM     15  C   UNL     1       0.314  10.907  19.453  0.00  0.00    +0.000 C 
ATOM     16  C   UNL     1       1.109  10.032  18.444  0.00  0.00    +0.000 C 
ENDROOT
BRANCH   1  18
ATOM     17  C   UNL     1      -1.688  11.985  17.043  0.00  0.00    +0.000 C 
ATOM     18  C   UNL     1      -1.701  10.834  17.743  0.00  0.00    +0.000 C 
ATOM     19  C   UNL     1      -2.167   9.576  17.036  0.00  0.00    +0.000 C 
ENDBRANCH   1  18
BRANCH   8  20
ATOM     20  C   UNL     1       2.917  16.350  18.390  0.00  0.00    +0.000 C 
ATOM     21  C   UNL     1       2.452  17.219  17.141  0.00  0.00    +0.000 C 
BRANCH  20  22
ATOM     22  C   UNL     1       3.634  15.146  17.760  0.00  0.00    +0.000 C 
BRANCH  22  23
ATOM     23  C   UNL     1       5.135  15.113  18.055  0.00  0.00    +0.000 C 
ATOM     24  O   UNL     1       5.913  14.288  17.563  0.00  0.00    +0.000 OA
BRANCH  23  25
ATOM     25  C   UNL     1       5.630  16.075  19.083  0.00  0.00    +0.000 C 
BRANCH  25  26
ATOM     26  C   UNL     1       7.104  15.820  19.365  0.00  0.00    +0.000 C 
ATOM     27  C   UNL     1       7.982  16.996  18.932  0.00  0.00    +0.000 C 
BRANCH  26  28
ATOM     28  C   UNL     1       7.274  15.573  20.842  0.00  0.00    +0.000 C 
ATOM     29  O   UNL     1       8.017  16.216  21.567  0.00  0.00    +0.000 OA
BRANCH  28  30
ATOM     30  O   UNL     1       6.525  14.546  21.295  0.00  0.00    +0.000 OA
ATOM     31  H   UNL     1       5.647  14.482  20.870  0.00  0.00    +0.000 HD
ENDBRANCH  28  30
ENDBRANCH  26  28
ENDBRANCH  25  26
ENDBRANCH  23  25
ENDBRANCH  22  23
ENDBRANCH  20  22
ENDBRANCH   8  20
BRANCH  15  32
ATOM     32  C   UNL     1       0.771  10.485  20.893  0.00  0.00    +0.000 C 
BRANCH  32  33
ATOM     33  C   UNL     1      -0.128   9.490  21.622  0.00  0.00    +0.000 C 
BRANCH  33  34
ATOM     34  C   UNL     1      -0.289   9.872  23.066  0.00  0.00    +0.000 C 
ATOM     35  O   UNL     1       0.518   9.615  23.952  0.00  0.00    +0.000 OA
BRANCH  34  36
ATOM     36  O   UNL     1      -1.429  10.581  23.311  0.00  0.00    +0.000 OA
ATOM     37  H   UNL     1      -1.818  10.406  24.202  0.00  0.00    +0.000 HD
ENDBRANCH  34  36
ENDBRANCH  33  34
ENDBRANCH  32  33
ENDBRANCH  15  32
TORSDOF 12
ENDMDL
