MODEL 1
REMARK VINA RESULT:      -6.8      0.000      0.000
REMARK  Name = 
REMARK  14 active torsions:
REMARK  status: ('A' for Active; 'I' for Inactive)
REMARK    1  A    between atoms: C_1  and  N_2
REMARK    2  A    between atoms: N_2  and  C_3
REMARK    3  A    between atoms: N_2  and  C_17
REMARK    4  A    between atoms: C_3  and  C_4
REMARK    5  A    between atoms: C_8  and  O_10
REMARK    6  A    between atoms: O_10  and  C_11
REMARK    7  A    between atoms: C_11  and  C_12
REMARK    8  A    between atoms: C_11  and  C_13
REMARK    9  A    between atoms: C_11  and  C_14
REMARK   10  A    between atoms: C_17  and  C_18
REMARK   11  A    between atoms: C_18  and  O_19
REMARK   12  A    between atoms: C_18  and  C_20
REMARK   13  A    between atoms: C_18  and  C_26
REMARK   14  A    between atoms: C_20  and  N_21
REMARK                            x       y       z     vdW  Elec       q    Type
REMARK                         _______ _______ _______ _____ _____    ______ ____
ROOT
ATOM      1  C   UNL     1       5.885   4.190  18.301  0.00  0.00    +0.000 C 
ENDROOT
BRANCH   1   3
ATOM      2  C   UNL     1       4.040   2.789  18.890  0.00  0.00    +0.000 C 
ATOM      3  N   UNL     1       4.372   4.100  18.279  0.00  0.00    +0.000 NA
BRANCH   3   4
ATOM      4  C   UNL     1       3.722   5.183  19.061  0.00  0.00    +0.000 C 
BRANCH   4   5
ATOM      5  C   UNL     1       2.227   5.585  18.834  0.00  0.00    +0.000 C 
ATOM      6  C   UNL     1       1.927   6.566  17.681  0.00  0.00    +0.000 C 
ATOM      7  C   UNL     1       2.175   8.048  17.983  0.00  0.00    +0.000 C 
ATOM      8  N   UNL     1       1.737   8.462  19.310  0.00  0.00    +0.000 N 
ATOM      9  C   UNL     1       1.495   9.820  19.514  0.00  0.00    +0.000 C 
ATOM     10  O   UNL     1       1.536  10.645  18.609  0.00  0.00    +0.000 OA
ATOM     11  C   UNL     1       2.117   7.590  20.413  0.00  0.00    +0.000 C 
ATOM     12  C   UNL     1       1.645   6.168  20.141  0.00  0.00    +0.000 C 
BRANCH   9  13
ATOM     13  O   UNL     1       1.252  10.129  20.819  0.00  0.00    +0.000 OA
BRANCH  13  14
ATOM     14  C   UNL     1      -0.083  10.524  21.240  0.00  0.00    +0.000 C 
ATOM     15  C   UNL     1      -0.515   9.898  22.573  0.00  0.00    +0.000 C 
ATOM     16  C   UNL     1      -0.029  12.049  21.442  0.00  0.00    +0.000 C 
ATOM     17  C   UNL     1      -1.069  10.222  20.105  0.00  0.00    +0.000 C 
ENDBRANCH  13  14
ENDBRANCH   9  13
ENDBRANCH   4   5
ENDBRANCH   3   4
ENDBRANCH   1   3
BRANCH   1  18
ATOM     18  C   UNL     1       6.772   4.981  17.226  0.00  0.00    +0.000 C 
BRANCH  18  19
ATOM     19  C   UNL     1       7.253   6.382  17.726  0.00  0.00    +0.000 A 
ATOM     20  C   UNL     1       6.920   7.554  17.007  0.00  0.00    +0.000 A 
ATOM     21  C   UNL     1       7.467   8.806  17.323  0.00  0.00    +0.000 A 
ATOM     22  C   UNL     1       8.373   8.924  18.365  0.00  0.00    +0.000 A 
ATOM     23 CL   UNL     1       9.113  10.440  18.693  0.00  0.00    +0.000 Cl
ATOM     24  C   UNL     1       8.673   7.819  19.143  0.00  0.00    +0.000 A 
ATOM     25  C   UNL     1       8.083   6.573  18.863  0.00  0.00    +0.000 A 
ATOM     26 CL   UNL     1       8.453   5.341  20.023  0.00  0.00    +0.000 Cl
ENDBRANCH  18  19
BRANCH  18  27
ATOM     27  O   UNL     1       7.984   4.210  17.067  0.00  0.00    +0.000 OA
ATOM     28  H   UNL     1       7.739   3.366  16.636  0.00  0.00    +0.000 HD
ENDBRANCH  18  27
BRANCH  18  29
ATOM     29  C   UNL     1       6.073   5.081  15.863  0.00  0.00    +0.000 C 
BRANCH  29  30
ATOM     30  N   UNL     1       6.727   4.562  14.682  0.00  0.00    +0.000 N 
ATOM     31  C   UNL     1       6.163   3.777  13.705  0.00  0.00    +0.000 A 
ATOM     32  N   UNL     1       6.687   4.075  12.544  0.00  0.00    +0.000 NA
ATOM     33  C   UNL     1       7.611   5.025  12.857  0.00  0.00    +0.000 A 
ATOM     34  N   UNL     1       7.745   5.268  14.161  0.00  0.00    +0.000 NA
ENDBRANCH  29  30
ENDBRANCH  18  29
ENDBRANCH   1  18
TORSDOF 10
ENDMDL
MODEL 2
REMARK VINA RESULT:      -6.7      2.891      4.747
REMARK  Name = 
REMARK  14 active torsions:
REMARK  status: ('A' for Active; 'I' for Inactive)
REMARK    1  A    between atoms: C_1  and  N_2
REMARK    2  A    between atoms: N_2  and  C_3
REMARK    3  A    between atoms: N_2  and  C_17
REMARK    4  A    between atoms: C_3  and  C_4
REMARK    5  A    between atoms: C_8  and  O_10
REMARK    6  A    between atoms: O_10  and  C_11
REMARK    7  A    between atoms: C_11  and  C_12
REMARK    8  A    between atoms: C_11  and  C_13
REMARK    9  A    between atoms: C_11  and  C_14
REMARK   10  A    between atoms: C_17  and  C_18
REMARK   11  A    between atoms: C_18  and  O_19
REMARK   12  A    between atoms: C_18  and  C_20
REMARK   13  A    between atoms: C_18  and  C_26
REMARK   14  A    between atoms: C_20  and  N_21
REMARK                            x       y       z     vdW  Elec       q    Type
REMARK                         _______ _______ _______ _____ _____    ______ ____
ROOT
ATOM      1  C   UNL     1       3.935   5.535  19.159  0.00  0.00    +0.000 C 
ENDROOT
BRANCH   1   3
ATOM      2  C   UNL     1       1.872   5.630  17.956  0.00  0.00    +0.000 C 
ATOM      3  N   UNL     1       3.056   6.445  18.325  0.00  0.00    +0.000 NA
BRANCH   3   4
ATOM      4  C   UNL     1       2.609   7.650  19.071  0.00  0.00    +0.000 C 
BRANCH   4   5
ATOM      5  C   UNL     1       1.283   8.399  18.714  0.00  0.00    +0.000 C 
ATOM      6  C   UNL     1       1.405   9.694  17.884  0.00  0.00    +0.000 C 
ATOM      7  C   UNL     1       1.789  10.955  18.666  0.00  0.00    +0.000 C 
ATOM      8  N   UNL     1       1.119  11.078  19.955  0.00  0.00    +0.000 N 
ATOM      9  C   UNL     1       1.036  12.351  20.519  0.00  0.00    +0.000 C 
ATOM     10  O   UNL     1       1.406  13.362  19.935  0.00  0.00    +0.000 OA
ATOM     11  C   UNL     1       1.100   9.882  20.785  0.00  0.00    +0.000 C 
ATOM     12  C   UNL     1       0.503   8.716  20.010  0.00  0.00    +0.000 C 
BRANCH   9  13
ATOM     13  O   UNL     1       0.544  12.339  21.790  0.00  0.00    +0.000 OA
BRANCH  13  14
ATOM     14  C   UNL     1      -0.824  12.763  22.047  0.00  0.00    +0.000 C 
ATOM     15  C   UNL     1      -1.712  12.761  20.796  0.00  0.00    +0.000 C 
ATOM     16  C   UNL     1      -1.408  11.732  23.030  0.00  0.00    +0.000 C 
ATOM     17  C   UNL     1      -0.795  14.129  22.742  0.00  0.00    +0.000 C 
ENDBRANCH  13  14
ENDBRANCH   9  13
ENDBRANCH   4   5
ENDBRANCH   3   4
ENDBRANCH   1   3
BRANCH   1  18
ATOM     18  C   UNL     1       4.825   4.336  18.577  0.00  0.00    +0.000 C 
BRANCH  18  19
ATOM     19  C   UNL     1       5.454   4.648  17.180  0.00  0.00    +0.000 A 
ATOM     20  C   UNL     1       4.921   4.065  16.006  0.00  0.00    +0.000 A 
ATOM     21  C   UNL     1       5.554   4.182  14.760  0.00  0.00    +0.000 A 
ATOM     22  C   UNL     1       6.745   4.881  14.650  0.00  0.00    +0.000 A 
ATOM     23 CL   UNL     1       7.566   4.948  13.142  0.00  0.00    +0.000 Cl
ATOM     24  C   UNL     1       7.266   5.530  15.756  0.00  0.00    +0.000 A 
ATOM     25  C   UNL     1       6.605   5.460  16.996  0.00  0.00    +0.000 A 
ATOM     26 CL   UNL     1       7.312   6.449  18.229  0.00  0.00    +0.000 Cl
ENDBRANCH  18  19
BRANCH  18  27
ATOM     27  O   UNL     1       5.954   4.209  19.471  0.00  0.00    +0.000 OA
ATOM     28  H   UNL     1       6.679   4.758  19.106  0.00  0.00    +0.000 HD
ENDBRANCH  18  27
BRANCH  18  29
ATOM     29  C   UNL     1       4.061   3.004  18.564  0.00  0.00    +0.000 C 
BRANCH  29  30
ATOM     30  N   UNL     1       3.179   2.672  19.661  0.00  0.00    +0.000 N 
ATOM     31  C   UNL     1       3.218   3.184  20.935  0.00  0.00    +0.000 A 
ATOM     32  N   UNL     1       2.002   3.280  21.408  0.00  0.00    +0.000 NA
ATOM     33  C   UNL     1       1.238   2.770  20.403  0.00  0.00    +0.000 A 
ATOM     34  N   UNL     1       1.925   2.284  19.369  0.00  0.00    +0.000 NA
ENDBRANCH  29  30
ENDBRANCH  18  29
ENDBRANCH   1  18
TORSDOF 10
ENDMDL
MODEL 3
REMARK VINA RESULT:      -6.6      2.880      4.713
REMARK  Name = 
REMARK  14 active torsions:
REMARK  status: ('A' for Active; 'I' for Inactive)
REMARK    1  A    between atoms: C_1  and  N_2
REMARK    2  A    between atoms: N_2  and  C_3
REMARK    3  A    between atoms: N_2  and  C_17
REMARK    4  A    between atoms: C_3  and  C_4
REMARK    5  A    between atoms: C_8  and  O_10
REMARK    6  A    between atoms: O_10  and  C_11
REMARK    7  A    between atoms: C_11  and  C_12
REMARK    8  A    between atoms: C_11  and  C_13
REMARK    9  A    between atoms: C_11  and  C_14
REMARK   10  A    between atoms: C_17  and  C_18
REMARK   11  A    between atoms: C_18  and  O_19
REMARK   12  A    between atoms: C_18  and  C_20
REMARK   13  A    between atoms: C_18  and  C_26
REMARK   14  A    between atoms: C_20  and  N_21
REMARK                            x       y       z     vdW  Elec       q    Type
REMARK                         _______ _______ _______ _____ _____    ______ ____
ROOT
ATOM      1  C   UNL     1       4.117   5.839  19.152  0.00  0.00    +0.000 C 
ENDROOT
BRANCH   1   3
ATOM      2  C   UNL     1       2.120   5.894  17.840  0.00  0.00    +0.000 C 
ATOM      3  N   UNL     1       3.314   6.701  18.199  0.00  0.00    +0.000 NA
BRANCH   3   4
ATOM      4  C   UNL     1       2.873   7.980  18.813  0.00  0.00    +0.000 C 
BRANCH   4   5
ATOM      5  C   UNL     1       1.429   8.543  18.609  0.00  0.00    +0.000 C 
ATOM      6  C   UNL     1       1.292   9.882  17.856  0.00  0.00    +0.000 C 
ATOM      7  C   UNL     1       1.558  11.144  18.684  0.00  0.00    +0.000 C 
ATOM      8  N   UNL     1       0.992  11.101  20.027  0.00  0.00    +0.000 N 
ATOM      9  C   UNL     1       0.777  12.316  20.675  0.00  0.00    +0.000 C 
ATOM     10  O   UNL     1       0.947  13.399  20.129  0.00  0.00    +0.000 OA
ATOM     11  C   UNL     1       1.216   9.874  20.779  0.00  0.00    +0.000 C 
ATOM     12  C   UNL     1       0.726   8.673  19.980  0.00  0.00    +0.000 C 
BRANCH   9  13
ATOM     13  O   UNL     1       0.403  12.167  21.977  0.00  0.00    +0.000 OA
BRANCH  13  14
ATOM     14  C   UNL     1      -0.973  12.423  22.376  0.00  0.00    +0.000 C 
ATOM     15  C   UNL     1      -1.153  13.736  23.149  0.00  0.00    +0.000 C 
ATOM     16  C   UNL     1      -1.777  12.541  21.069  0.00  0.00    +0.000 C 
ATOM     17  C   UNL     1      -1.494  11.210  23.155  0.00  0.00    +0.000 C 
ENDBRANCH  13  14
ENDBRANCH   9  13
ENDBRANCH   4   5
ENDBRANCH   3   4
ENDBRANCH   1   3
BRANCH   1  18
ATOM     18  C   UNL     1       5.095   4.649  18.710  0.00  0.00    +0.000 C 
BRANCH  18  19
ATOM     19  C   UNL     1       5.522   4.720  17.208  0.00  0.00    +0.000 A 
ATOM     20  C   UNL     1       4.955   3.838  16.258  0.00  0.00    +0.000 A 
ATOM     21  C   UNL     1       5.429   3.753  14.941  0.00  0.00    +0.000 A 
ATOM     22  C   UNL     1       6.492   4.543  14.533  0.00  0.00    +0.000 A 
ATOM     23 CL   UNL     1       7.131   4.374  12.948  0.00  0.00    +0.000 Cl
ATOM     24  C   UNL     1       7.031   5.473  15.406  0.00  0.00    +0.000 A 
ATOM     25  C   UNL     1       6.521   5.599  16.711  0.00  0.00    +0.000 A 
ATOM     26 CL   UNL     1       7.209   6.908  17.614  0.00  0.00    +0.000 Cl
ENDBRANCH  18  19
BRANCH  18  27
ATOM     27  O   UNL     1       6.319   4.845  19.452  0.00  0.00    +0.000 OA
ATOM     28  H   UNL     1       6.164   4.523  20.364  0.00  0.00    +0.000 HD
ENDBRANCH  18  27
BRANCH  18  29
ATOM     29  C   UNL     1       4.522   3.270  19.067  0.00  0.00    +0.000 C 
BRANCH  29  30
ATOM     30  N   UNL     1       3.134   3.147  19.453  0.00  0.00    +0.000 N 
ATOM     31  C   UNL     1       2.162   2.413  18.815  0.00  0.00    +0.000 A 
ATOM     32  N   UNL     1       1.328   1.928  19.697  0.00  0.00    +0.000 NA
ATOM     33  C   UNL     1       1.797   2.426  20.875  0.00  0.00    +0.000 A 
ATOM     34  N   UNL     1       2.828   3.264  20.757  0.00  0.00    +0.000 NA
ENDBRANCH  29  30
ENDBRANCH  18  29
ENDBRANCH   1  18
TORSDOF 10
ENDMDL
MODEL 4
REMARK VINA RESULT:      -6.5      0.662      1.015
REMARK  Name = 
REMARK  14 active torsions:
REMARK  status: ('A' for Active; 'I' for Inactive)
REMARK    1  A    between atoms: C_1  and  N_2
REMARK    2  A    between atoms: N_2  and  C_3
REMARK    3  A    between atoms: N_2  and  C_17
REMARK    4  A    between atoms: C_3  and  C_4
REMARK    5  A    between atoms: C_8  and  O_10
REMARK    6  A    between atoms: O_10  and  C_11
REMARK    7  A    between atoms: C_11  and  C_12
REMARK    8  A    between atoms: C_11  and  C_13
REMARK    9  A    between atoms: C_11  and  C_14
REMARK   10  A    between atoms: C_17  and  C_18
REMARK   11  A    between atoms: C_18  and  O_19
REMARK   12  A    between atoms: C_18  and  C_20
REMARK   13  A    between atoms: C_18  and  C_26
REMARK   14  A    between atoms: C_20  and  N_21
REMARK                            x       y       z     vdW  Elec       q    Type
REMARK                         _______ _______ _______ _____ _____    ______ ____
ROOT
ATOM      1  C   UNL     1       5.444   4.307  18.776  0.00  0.00    +0.000 C 
ENDROOT
BRANCH   1   3
ATOM      2  C   UNL     1       3.463   3.584  19.902  0.00  0.00    +0.000 C 
ATOM      3  N   UNL     1       3.935   4.448  18.790  0.00  0.00    +0.000 NA
BRANCH   3   4
ATOM      4  C   UNL     1       3.491   5.845  19.033  0.00  0.00    +0.000 C 
BRANCH   4   5
ATOM      5  C   UNL     1       2.041   6.324  18.693  0.00  0.00    +0.000 C 
ATOM      6  C   UNL     1       1.894   7.424  17.621  0.00  0.00    +0.000 C 
ATOM      7  C   UNL     1       2.149   8.858  18.096  0.00  0.00    +0.000 C 
ATOM      8  N   UNL     1       1.583   9.158  19.405  0.00  0.00    +0.000 N 
ATOM      9  C   UNL     1       1.357  10.497  19.719  0.00  0.00    +0.000 C 
ATOM     10  O   UNL     1       1.518  11.405  18.912  0.00  0.00    +0.000 OA
ATOM     11  C   UNL     1       1.817   8.167  20.447  0.00  0.00    +0.000 C 
ATOM     12  C   UNL     1       1.338   6.798  19.985  0.00  0.00    +0.000 C 
BRANCH   9  13
ATOM     13  O   UNL     1       0.984  10.685  21.016  0.00  0.00    +0.000 OA
BRANCH  13  14
ATOM     14  C   UNL     1      -0.268  11.358  21.326  0.00  0.00    +0.000 C 
ATOM     15  C   UNL     1      -1.348  11.165  20.254  0.00  0.00    +0.000 C 
ATOM     16  C   UNL     1      -0.785  10.711  22.624  0.00  0.00    +0.000 C 
ATOM     17  C   UNL     1       0.021  12.837  21.606  0.00  0.00    +0.000 C 
ENDBRANCH  13  14
ENDBRANCH   9  13
ENDBRANCH   4   5
ENDBRANCH   3   4
ENDBRANCH   1   3
BRANCH   1  18
ATOM     18  C   UNL     1       6.405   4.867  17.622  0.00  0.00    +0.000 C 
BRANCH  18  19
ATOM     19  C   UNL     1       6.988   6.284  17.930  0.00  0.00    +0.000 A 
ATOM     20  C   UNL     1       6.583   7.408  17.172  0.00  0.00    +0.000 A 
ATOM     21  C   UNL     1       7.202   8.659  17.302  0.00  0.00    +0.000 A 
ATOM     22  C   UNL     1       8.253   8.826  18.190  0.00  0.00    +0.000 A 
ATOM     23 CL   UNL     1       9.070  10.334  18.283  0.00  0.00    +0.000 Cl
ATOM     24  C   UNL     1       8.635   7.774  19.006  0.00  0.00    +0.000 A 
ATOM     25  C   UNL     1       7.980   6.533  18.916  0.00  0.00    +0.000 A 
ATOM     26 CL   UNL     1       8.485   5.382  20.109  0.00  0.00    +0.000 Cl
ENDBRANCH  18  19
BRANCH  18  27
ATOM     27  O   UNL     1       7.554   3.990  17.604  0.00  0.00    +0.000 OA
ATOM     28  H   UNL     1       8.173   4.333  16.927  0.00  0.00    +0.000 HD
ENDBRANCH  18  27
BRANCH  18  29
ATOM     29  C   UNL     1       5.735   4.823  16.241  0.00  0.00    +0.000 C 
BRANCH  29  30
ATOM     30  N   UNL     1       6.496   4.395  15.088  0.00  0.00    +0.000 N 
ATOM     31  C   UNL     1       6.033   3.666  14.019  0.00  0.00    +0.000 A 
ATOM     32  N   UNL     1       6.643   4.050  12.928  0.00  0.00    +0.000 NA
ATOM     33  C   UNL     1       7.515   4.994  13.377  0.00  0.00    +0.000 A 
ATOM     34  N   UNL     1       7.536   5.153  14.700  0.00  0.00    +0.000 NA
ENDBRANCH  29  30
ENDBRANCH  18  29
ENDBRANCH   1  18
TORSDOF 10
ENDMDL
MODEL 5
REMARK VINA RESULT:      -6.5      4.146      9.426
REMARK  Name = 
REMARK  14 active torsions:
REMARK  status: ('A' for Active; 'I' for Inactive)
REMARK    1  A    between atoms: C_1  and  N_2
REMARK    2  A    between atoms: N_2  and  C_3
REMARK    3  A    between atoms: N_2  and  C_17
REMARK    4  A    between atoms: C_3  and  C_4
REMARK    5  A    between atoms: C_8  and  O_10
REMARK    6  A    between atoms: O_10  and  C_11
REMARK    7  A    between atoms: C_11  and  C_12
REMARK    8  A    between atoms: C_11  and  C_13
REMARK    9  A    between atoms: C_11  and  C_14
REMARK   10  A    between atoms: C_17  and  C_18
REMARK   11  A    between atoms: C_18  and  O_19
REMARK   12  A    between atoms: C_18  and  C_20
REMARK   13  A    between atoms: C_18  and  C_26
REMARK   14  A    between atoms: C_20  and  N_21
REMARK                            x       y       z     vdW  Elec       q    Type
REMARK                         _______ _______ _______ _____ _____    ______ ____
ROOT
ATOM      1  C   UNL     1       0.814   9.801  19.949  0.00  0.00    +0.000 C 
ENDROOT
BRANCH   1   3
ATOM      2  C   UNL     1      -0.453   8.625  21.599  0.00  0.00    +0.000 C 
ATOM      3  N   UNL     1       0.933   9.014  21.238  0.00  0.00    +0.000 NA
BRANCH   3   4
ATOM      4  C   UNL     1       1.762   7.790  21.088  0.00  0.00    +0.000 C 
BRANCH   4   5
ATOM      5  C   UNL     1       1.367   6.637  20.107  0.00  0.00    +0.000 C 
ATOM      6  C   UNL     1       1.582   5.190  20.594  0.00  0.00    +0.000 C 
ATOM      7  C   UNL     1       3.014   4.654  20.486  0.00  0.00    +0.000 C 
ATOM      8  N   UNL     1       3.692   5.024  19.250  0.00  0.00    +0.000 N 
ATOM      9  C   UNL     1       4.776   4.243  18.851  0.00  0.00    +0.000 C 
ATOM     10  O   UNL     1       5.107   3.218  19.436  0.00  0.00    +0.000 OA
ATOM     11  C   UNL     1       3.578   6.419  18.848  0.00  0.00    +0.000 C 
ATOM     12  C   UNL     1       2.112   6.823  18.766  0.00  0.00    +0.000 C 
BRANCH   9  13
ATOM     13  O   UNL     1       5.441   4.761  17.781  0.00  0.00    +0.000 OA
BRANCH  13  14
ATOM     14  C   UNL     1       6.733   5.405  17.965  0.00  0.00    +0.000 C 
ATOM     15  C   UNL     1       7.111   5.608  19.438  0.00  0.00    +0.000 C 
ATOM     16  C   UNL     1       7.772   4.452  17.347  0.00  0.00    +0.000 C 
ATOM     17  C   UNL     1       6.748   6.716  17.171  0.00  0.00    +0.000 C 
ENDBRANCH  13  14
ENDBRANCH   9  13
ENDBRANCH   4   5
ENDBRANCH   3   4
ENDBRANCH   1   3
BRANCH   1  18
ATOM     18  C   UNL     1       0.610  11.388  19.860  0.00  0.00    +0.000 C 
BRANCH  18  19
ATOM     19  C   UNL     1      -0.886  11.816  19.709  0.00  0.00    +0.000 A 
ATOM     20  C   UNL     1      -1.454  12.766  20.590  0.00  0.00    +0.000 A 
ATOM     21  C   UNL     1      -2.826  13.052  20.597  0.00  0.00    +0.000 A 
ATOM     22  C   UNL     1      -3.678  12.390  19.727  0.00  0.00    +0.000 A 
ATOM     23 CL   UNL     1      -5.371  12.673  19.798  0.00  0.00    +0.000 Cl
ATOM     24  C   UNL     1      -3.157  11.506  18.797  0.00  0.00    +0.000 A 
ATOM     25  C   UNL     1      -1.773  11.258  18.751  0.00  0.00    +0.000 A 
ATOM     26 CL   UNL     1      -1.282  10.246  17.434  0.00  0.00    +0.000 Cl
ENDBRANCH  18  19
BRANCH  18  27
ATOM     27  O   UNL     1       1.017  11.914  21.144  0.00  0.00    +0.000 OA
ATOM     28  H   UNL     1       1.995  11.959  21.145  0.00  0.00    +0.000 HD
ENDBRANCH  18  27
BRANCH  18  29
ATOM     29  C   UNL     1       1.489  12.023  18.772  0.00  0.00    +0.000 C 
BRANCH  29  30
ATOM     30  N   UNL     1       2.191  13.257  19.045  0.00  0.00    +0.000 N 
ATOM     31  C   UNL     1       3.296  13.740  18.388  0.00  0.00    +0.000 A 
ATOM     32  N   UNL     1       3.241  15.046  18.335  0.00  0.00    +0.000 NA
ATOM     33  C   UNL     1       2.098  15.335  19.016  0.00  0.00    +0.000 A 
ATOM     34  N   UNL     1       1.489  14.281  19.562  0.00  0.00    +0.000 NA
ENDBRANCH  29  30
ENDBRANCH  18  29
ENDBRANCH   1  18
TORSDOF 10
ENDMDL
MODEL 6
REMARK VINA RESULT:      -6.4      3.862      5.665
REMARK  Name = 
REMARK  14 active torsions:
REMARK  status: ('A' for Active; 'I' for Inactive)
REMARK    1  A    between atoms: C_1  and  N_2
REMARK    2  A    between atoms: N_2  and  C_3
REMARK    3  A    between atoms: N_2  and  C_17
REMARK    4  A    between atoms: C_3  and  C_4
REMARK    5  A    between atoms: C_8  and  O_10
REMARK    6  A    between atoms: O_10  and  C_11
REMARK    7  A    between atoms: C_11  and  C_12
REMARK    8  A    between atoms: C_11  and  C_13
REMARK    9  A    between atoms: C_11  and  C_14
REMARK   10  A    between atoms: C_17  and  C_18
REMARK   11  A    between atoms: C_18  and  O_19
REMARK   12  A    between atoms: C_18  and  C_20
REMARK   13  A    between atoms: C_18  and  C_26
REMARK   14  A    between atoms: C_20  and  N_21
REMARK                            x       y       z     vdW  Elec       q    Type
REMARK                         _______ _______ _______ _____ _____    ______ ____
ROOT
ATOM      1  C   UNL     1       2.774   7.566  19.010  0.00  0.00    +0.000 C 
ENDROOT
BRANCH   1   3
ATOM      2  C   UNL     1       1.491   7.885  21.002  0.00  0.00    +0.000 C 
ATOM      3  N   UNL     1       1.488   8.166  19.544  0.00  0.00    +0.000 NA
BRANCH   3   4
ATOM      4  C   UNL     1       1.408   9.634  19.329  0.00  0.00    +0.000 C 
BRANCH   4   5
ATOM      5  C   UNL     1       0.063  10.346  18.968  0.00  0.00    +0.000 C 
ATOM      6  C   UNL     1       0.123  11.856  18.661  0.00  0.00    +0.000 C 
ATOM      7  C   UNL     1       0.171  12.785  19.879  0.00  0.00    +0.000 C 
ATOM      8  N   UNL     1      -0.718  12.384  20.963  0.00  0.00    +0.000 N 
ATOM      9  C   UNL     1      -1.090  13.361  21.886  0.00  0.00    +0.000 C 
ATOM     10  O   UNL     1      -0.786  14.541  21.762  0.00  0.00    +0.000 OA
ATOM     11  C   UNL     1      -0.693  10.974  21.326  0.00  0.00    +0.000 C 
ATOM     12  C   UNL     1      -0.965  10.113  20.100  0.00  0.00    +0.000 C 
BRANCH   9  13
ATOM     13  O   UNL     1      -1.782  12.857  22.946  0.00  0.00    +0.000 OA
BRANCH  13  14
ATOM     14  C   UNL     1      -3.196  13.163  23.107  0.00  0.00    +0.000 C 
ATOM     15  C   UNL     1      -3.870  12.365  24.230  0.00  0.00    +0.000 C 
ATOM     16  C   UNL     1      -3.265  14.652  23.492  0.00  0.00    +0.000 C 
ATOM     17  C   UNL     1      -3.898  12.980  21.757  0.00  0.00    +0.000 C 
ENDBRANCH  13  14
ENDBRANCH   9  13
ENDBRANCH   4   5
ENDBRANCH   3   4
ENDBRANCH   1   3
BRANCH   1  18
ATOM     18  C   UNL     1       3.024   6.002  18.767  0.00  0.00    +0.000 C 
BRANCH  18  19
ATOM     19  C   UNL     1       4.150   5.706  17.725  0.00  0.00    +0.000 A 
ATOM     20  C   UNL     1       4.443   6.636  16.700  0.00  0.00    +0.000 A 
ATOM     21  C   UNL     1       5.324   6.339  15.650  0.00  0.00    +0.000 A 
ATOM     22  C   UNL     1       5.934   5.096  15.587  0.00  0.00    +0.000 A 
ATOM     23 CL   UNL     1       6.941   4.700  14.252  0.00  0.00    +0.000 Cl
ATOM     24  C   UNL     1       5.735   4.181  16.606  0.00  0.00    +0.000 A 
ATOM     25  C   UNL     1       4.895   4.497  17.689  0.00  0.00    +0.000 A 
ATOM     26 CL   UNL     1       4.879   3.300  18.941  0.00  0.00    +0.000 Cl
ENDBRANCH  18  19
BRANCH  18  27
ATOM     27  O   UNL     1       3.531   5.483  20.017  0.00  0.00    +0.000 OA
ATOM     28  H   UNL     1       4.358   5.966  20.221  0.00  0.00    +0.000 HD
ENDBRANCH  18  27
BRANCH  18  29
ATOM     29  C   UNL     1       1.726   5.258  18.419  0.00  0.00    +0.000 C 
BRANCH  29  30
ATOM     30  N   UNL     1       1.297   4.143  19.235  0.00  0.00    +0.000 N 
ATOM     31  C   UNL     1       1.637   2.822  19.071  0.00  0.00    +0.000 A 
ATOM     32  N   UNL     1       1.729   2.244  20.240  0.00  0.00    +0.000 NA
ATOM     33  C   UNL     1       1.391   3.240  21.106  0.00  0.00    +0.000 A 
ATOM     34  N   UNL     1       1.011   4.379  20.527  0.00  0.00    +0.000 NA
ENDBRANCH  29  30
ENDBRANCH  18  29
ENDBRANCH   1  18
TORSDOF 10
ENDMDL
MODEL 7
REMARK VINA RESULT:      -6.4      4.330      9.743
REMARK  Name = 
REMARK  14 active torsions:
REMARK  status: ('A' for Active; 'I' for Inactive)
REMARK    1  A    between atoms: C_1  and  N_2
REMARK    2  A    between atoms: N_2  and  C_3
REMARK    3  A    between atoms: N_2  and  C_17
REMARK    4  A    between atoms: C_3  and  C_4
REMARK    5  A    between atoms: C_8  and  O_10
REMARK    6  A    between atoms: O_10  and  C_11
REMARK    7  A    between atoms: C_11  and  C_12
REMARK    8  A    between atoms: C_11  and  C_13
REMARK    9  A    between atoms: C_11  and  C_14
REMARK   10  A    between atoms: C_17  and  C_18
REMARK   11  A    between atoms: C_18  and  O_19
REMARK   12  A    between atoms: C_18  and  C_20
REMARK   13  A    between atoms: C_18  and  C_26
REMARK   14  A    between atoms: C_20  and  N_21
REMARK                            x       y       z     vdW  Elec       q    Type
REMARK                         _______ _______ _______ _____ _____    ______ ____
ROOT
ATOM      1  C   UNL     1      -0.056  10.051  19.493  0.00  0.00    +0.000 C 
ENDROOT
BRANCH   1   3
ATOM      2  C   UNL     1      -0.344   8.701  21.444  0.00  0.00    +0.000 C 
ATOM      3  N   UNL     1       0.673   9.476  20.691  0.00  0.00    +0.000 NA
BRANCH   3   4
ATOM      4  C   UNL     1       1.789   8.575  20.305  0.00  0.00    +0.000 C 
BRANCH   4   5
ATOM      5  C   UNL     1       1.555   7.287  19.448  0.00  0.00    +0.000 C 
ATOM      6  C   UNL     1       1.875   5.931  20.110  0.00  0.00    +0.000 C 
ATOM      7  C   UNL     1       3.354   5.529  20.127  0.00  0.00    +0.000 C 
ATOM      8  N   UNL     1       4.062   5.822  18.886  0.00  0.00    +0.000 N 
ATOM      9  C   UNL     1       5.233   5.111  18.628  0.00  0.00    +0.000 C 
ATOM     10  O   UNL     1       5.624   4.195  19.342  0.00  0.00    +0.000 OA
ATOM     11  C   UNL     1       3.842   7.146  18.321  0.00  0.00    +0.000 C 
ATOM     12  C   UNL     1       2.352   7.394  18.128  0.00  0.00    +0.000 C 
BRANCH   9  13
ATOM     13  O   UNL     1       5.905   5.569  17.535  0.00  0.00    +0.000 OA
BRANCH  13  14
ATOM     14  C   UNL     1       5.738   4.913  16.247  0.00  0.00    +0.000 C 
ATOM     15  C   UNL     1       4.619   3.863  16.235  0.00  0.00    +0.000 C 
ATOM     16  C   UNL     1       5.343   6.022  15.256  0.00  0.00    +0.000 C 
ATOM     17  C   UNL     1       7.088   4.334  15.810  0.00  0.00    +0.000 C 
ENDBRANCH  13  14
ENDBRANCH   9  13
ENDBRANCH   4   5
ENDBRANCH   3   4
ENDBRANCH   1   3
BRANCH   1  18
ATOM     18  C   UNL     1      -0.700  11.517  19.428  0.00  0.00    +0.000 C 
BRANCH  18  19
ATOM     19  C   UNL     1      -2.201  11.519  18.995  0.00  0.00    +0.000 A 
ATOM     20  C   UNL     1      -3.143  12.329  19.672  0.00  0.00    +0.000 A 
ATOM     21  C   UNL     1      -4.521  12.236  19.428  0.00  0.00    +0.000 A 
ATOM     22  C   UNL     1      -5.003  11.323  18.504  0.00  0.00    +0.000 A 
ATOM     23 CL   UNL     1      -6.696  11.145  18.272  0.00  0.00    +0.000 Cl
ATOM     24  C   UNL     1      -4.114  10.561  17.764  0.00  0.00    +0.000 A 
ATOM     25  C   UNL     1      -2.728  10.691  17.967  0.00  0.00    +0.000 A 
ATOM     26 CL   UNL     1      -1.763   9.776  16.857  0.00  0.00    +0.000 Cl
ENDBRANCH  18  19
BRANCH  18  27
ATOM     27  O   UNL     1      -0.706  12.008  20.787  0.00  0.00    +0.000 OA
ATOM     28  H   UNL     1      -1.247  12.825  20.801  0.00  0.00    +0.000 HD
ENDBRANCH  18  27
BRANCH  18  29
ATOM     29  C   UNL     1       0.135  12.475  18.566  0.00  0.00    +0.000 C 
BRANCH  29  30
ATOM     30  N   UNL     1       1.435  12.909  19.028  0.00  0.00    +0.000 N 
ATOM     31  C   UNL     1       2.617  12.862  18.329  0.00  0.00    +0.000 A 
ATOM     32  N   UNL     1       3.359  13.891  18.650  0.00  0.00    +0.000 NA
ATOM     33  C   UNL     1       2.611  14.530  19.592  0.00  0.00    +0.000 A 
ATOM     34  N   UNL     1       1.484  13.903  19.933  0.00  0.00    +0.000 NA
ENDBRANCH  29  30
ENDBRANCH  18  29
ENDBRANCH   1  18
TORSDOF 10
ENDMDL
MODEL 8
REMARK VINA RESULT:      -6.4      1.284      1.681
REMARK  Name = 
REMARK  14 active torsions:
REMARK  status: ('A' for Active; 'I' for Inactive)
REMARK    1  A    between atoms: C_1  and  N_2
REMARK    2  A    between atoms: N_2  and  C_3
REMARK    3  A    between atoms: N_2  and  C_17
REMARK    4  A    between atoms: C_3  and  C_4
REMARK    5  A    between atoms: C_8  and  O_10
REMARK    6  A    between atoms: O_10  and  C_11
REMARK    7  A    between atoms: C_11  and  C_12
REMARK    8  A    between atoms: C_11  and  C_13
REMARK    9  A    between atoms: C_11  and  C_14
REMARK   10  A    between atoms: C_17  and  C_18
REMARK   11  A    between atoms: C_18  and  O_19
REMARK   12  A    between atoms: C_18  and  C_20
REMARK   13  A    between atoms: C_18  and  C_26
REMARK   14  A    between atoms: C_20  and  N_21
REMARK                            x       y       z     vdW  Elec       q    Type
REMARK                         _______ _______ _______ _____ _____    ______ ____
ROOT
ATOM      1  C   UNL     1       5.623   4.362  19.182  0.00  0.00    +0.000 C 
ENDROOT
BRANCH   1   3
ATOM      2  C   UNL     1       4.549   2.342  19.875  0.00  0.00    +0.000 C 
ATOM      3  N   UNL     1       4.285   3.652  19.227  0.00  0.00    +0.000 NA
BRANCH   3   4
ATOM      4  C   UNL     1       3.269   4.393  20.019  0.00  0.00    +0.000 C 
BRANCH   4   5
ATOM      5  C   UNL     1       1.929   4.892  19.385  0.00  0.00    +0.000 C 
ATOM      6  C   UNL     1       2.027   5.718  18.085  0.00  0.00    +0.000 C 
ATOM      7  C   UNL     1       2.380   7.199  18.260  0.00  0.00    +0.000 C 
ATOM      8  N   UNL     1       1.702   7.841  19.380  0.00  0.00    +0.000 N 
ATOM      9  C   UNL     1       1.588   9.230  19.354  0.00  0.00    +0.000 C 
ATOM     10  O   UNL     1       1.939   9.907  18.396  0.00  0.00    +0.000 OA
ATOM     11  C   UNL     1       1.705   7.107  20.638  0.00  0.00    +0.000 C 
ATOM     12  C   UNL     1       1.136   5.709  20.430  0.00  0.00    +0.000 C 
BRANCH   9  13
ATOM     13  O   UNL     1       1.090   9.746  20.513  0.00  0.00    +0.000 OA
BRANCH  13  14
ATOM     14  C   UNL     1       0.111  10.822  20.473  0.00  0.00    +0.000 C 
ATOM     15  C   UNL     1      -0.990  10.609  19.427  0.00  0.00    +0.000 C 
ATOM     16  C   UNL     1      -0.561  10.832  21.858  0.00  0.00    +0.000 C 
ATOM     17  C   UNL     1       0.848  12.152  20.284  0.00  0.00    +0.000 C 
ENDBRANCH  13  14
ENDBRANCH   9  13
ENDBRANCH   4   5
ENDBRANCH   3   4
ENDBRANCH   1   3
BRANCH   1  18
ATOM     18  C   UNL     1       6.447   4.679  17.845  0.00  0.00    +0.000 C 
BRANCH  18  19
ATOM     19  C   UNL     1       6.985   6.146  17.779  0.00  0.00    +0.000 A 
ATOM     20  C   UNL     1       8.158   6.513  18.480  0.00  0.00    +0.000 A 
ATOM     21  C   UNL     1       8.579   7.847  18.585  0.00  0.00    +0.000 A 
ATOM     22  C   UNL     1       7.836   8.858  17.997  0.00  0.00    +0.000 A 
ATOM     23 CL   UNL     1       8.302  10.499  18.202  0.00  0.00    +0.000 Cl
ATOM     24  C   UNL     1       6.722   8.539  17.239  0.00  0.00    +0.000 A 
ATOM     25  C   UNL     1       6.328   7.197  17.086  0.00  0.00    +0.000 A 
ATOM     26 CL   UNL     1       5.008   6.971  15.987  0.00  0.00    +0.000 Cl
ENDBRANCH  18  19
BRANCH  18  27
ATOM     27  O   UNL     1       7.632   3.854  17.904  0.00  0.00    +0.000 OA
ATOM     28  H   UNL     1       8.398   4.449  18.037  0.00  0.00    +0.000 HD
ENDBRANCH  18  27
BRANCH  18  29
ATOM     29  C   UNL     1       5.658   4.313  16.580  0.00  0.00    +0.000 C 
BRANCH  29  30
ATOM     30  N   UNL     1       6.363   4.044  15.346  0.00  0.00    +0.000 N 
ATOM     31  C   UNL     1       5.816   3.620  14.159  0.00  0.00    +0.000 A 
ATOM     32  N   UNL     1       6.477   4.144  13.159  0.00  0.00    +0.000 NA
ATOM     33  C   UNL     1       7.460   4.855  13.776  0.00  0.00    +0.000 A 
ATOM     34  N   UNL     1       7.494   4.729  15.103  0.00  0.00    +0.000 NA
ENDBRANCH  29  30
ENDBRANCH  18  29
ENDBRANCH   1  18
TORSDOF 10
ENDMDL
MODEL 9
REMARK VINA RESULT:      -6.3      3.853      9.561
REMARK  Name = 
REMARK  14 active torsions:
REMARK  status: ('A' for Active; 'I' for Inactive)
REMARK    1  A    between atoms: C_1  and  N_2
REMARK    2  A    between atoms: N_2  and  C_3
REMARK    3  A    between atoms: N_2  and  C_17
REMARK    4  A    between atoms: C_3  and  C_4
REMARK    5  A    between atoms: C_8  and  O_10
REMARK    6  A    between atoms: O_10  and  C_11
REMARK    7  A    between atoms: C_11  and  C_12
REMARK    8  A    between atoms: C_11  and  C_13
REMARK    9  A    between atoms: C_11  and  C_14
REMARK   10  A    between atoms: C_17  and  C_18
REMARK   11  A    between atoms: C_18  and  O_19
REMARK   12  A    between atoms: C_18  and  C_20
REMARK   13  A    between atoms: C_18  and  C_26
REMARK   14  A    between atoms: C_20  and  N_21
REMARK                            x       y       z     vdW  Elec       q    Type
REMARK                         _______ _______ _______ _____ _____    ______ ____
ROOT
ATOM      1  C   UNL     1       0.057   9.288  20.840  0.00  0.00    +0.000 C 
ENDROOT
BRANCH   1   3
ATOM      2  C   UNL     1       1.455   9.353  22.778  0.00  0.00    +0.000 C 
ATOM      3  N   UNL     1       1.381   8.807  21.400  0.00  0.00    +0.000 NA
BRANCH   3   4
ATOM      4  C   UNL     1       1.476   7.325  21.454  0.00  0.00    +0.000 C 
BRANCH   4   5
ATOM      5  C   UNL     1       1.312   6.437  20.177  0.00  0.00    +0.000 C 
ATOM      6  C   UNL     1       1.481   4.914  20.349  0.00  0.00    +0.000 C 
ATOM      7  C   UNL     1       2.925   4.402  20.397  0.00  0.00    +0.000 C 
ATOM      8  N   UNL     1       3.811   5.042  19.432  0.00  0.00    +0.000 N 
ATOM      9  C   UNL     1       4.977   4.364  19.079  0.00  0.00    +0.000 C 
ATOM     10  O   UNL     1       5.226   3.228  19.464  0.00  0.00    +0.000 OA
ATOM     11  C   UNL     1       3.727   6.494  19.348  0.00  0.00    +0.000 C 
ATOM     12  C   UNL     1       2.290   6.921  19.082  0.00  0.00    +0.000 C 
BRANCH   9  13
ATOM     13  O   UNL     1       5.813   5.109  18.304  0.00  0.00    +0.000 OA
BRANCH  13  14
ATOM     14  C   UNL     1       5.784   4.973  16.856  0.00  0.00    +0.000 C 
ATOM     15  C   UNL     1       7.079   4.397  16.268  0.00  0.00    +0.000 C 
ATOM     16  C   UNL     1       4.652   3.976  16.548  0.00  0.00    +0.000 C 
ATOM     17  C   UNL     1       5.414   6.328  16.241  0.00  0.00    +0.000 C 
ENDBRANCH  13  14
ENDBRANCH   9  13
ENDBRANCH   4   5
ENDBRANCH   3   4
ENDBRANCH   1   3
BRANCH   1  18
ATOM     18  C   UNL     1      -0.260  10.798  20.407  0.00  0.00    +0.000 C 
BRANCH  18  19
ATOM     19  C   UNL     1      -1.163  10.905  19.136  0.00  0.00    +0.000 A 
ATOM     20  C   UNL     1      -2.347  11.679  19.159  0.00  0.00    +0.000 A 
ATOM     21  C   UNL     1      -3.269  11.666  18.102  0.00  0.00    +0.000 A 
ATOM     22  C   UNL     1      -3.040  10.872  16.990  0.00  0.00    +0.000 A 
ATOM     23 CL   UNL     1      -4.212  10.786  15.738  0.00  0.00    +0.000 Cl
ATOM     24  C   UNL     1      -1.860  10.154  16.891  0.00  0.00    +0.000 A 
ATOM     25  C   UNL     1      -0.908  10.208  17.925  0.00  0.00    +0.000 A 
ATOM     26 CL   UNL     1       0.568   9.372  17.569  0.00  0.00    +0.000 Cl
ENDBRANCH  18  19
BRANCH  18  27
ATOM     27  O   UNL     1      -1.057  11.358  21.475  0.00  0.00    +0.000 OA
ATOM     28  H   UNL     1      -0.692  12.244  21.680  0.00  0.00    +0.000 HD
ENDBRANCH  18  27
BRANCH  18  29
ATOM     29  C   UNL     1       1.018  11.637  20.260  0.00  0.00    +0.000 C 
BRANCH  29  30
ATOM     30  N   UNL     1       0.969  13.066  20.477  0.00  0.00    +0.000 N 
ATOM     31  C   UNL     1       0.500  14.017  19.604  0.00  0.00    +0.000 A 
ATOM     32  N   UNL     1      -0.068  14.986  20.274  0.00  0.00    +0.000 NA
ATOM     33  C   UNL     1       0.112  14.614  21.571  0.00  0.00    +0.000 A 
ATOM     34  N   UNL     1       0.837  13.508  21.740  0.00  0.00    +0.000 NA
ENDBRANCH  29  30
ENDBRANCH  18  29
ENDBRANCH   1  18
TORSDOF 10
ENDMDL
