MODEL 1
REMARK VINA RESULT:      -6.8      0.000      0.000
REMARK  Name = 
REMARK  18 active torsions:
REMARK  status: ('A' for Active; 'I' for Inactive)
REMARK    1  A    between atoms: C_1  and  C_2
REMARK    2  A    between atoms: C_2  and  C_3
REMARK    3  A    between atoms: C_3  and  C_4
REMARK    4  A    between atoms: C_3  and  O_5
REMARK    5  A    between atoms: O_5  and  C_6
REMARK    6  A    between atoms: C_6  and  C_8
REMARK    7  A    between atoms: C_8  and  C_9
REMARK    8  A    between atoms: C_9  and  C_10
REMARK    9  A    between atoms: C_10  and  C_11
REMARK   10  A    between atoms: C_11  and  C_12
REMARK   11  A    between atoms: C_12  and  C_13
REMARK   12  A    between atoms: C_13  and  C_14
REMARK   13  A    between atoms: C_14  and  C_15
REMARK   14  A    between atoms: C_15  and  C_16
REMARK   15  A    between atoms: C_16  and  C_17
REMARK   16  A    between atoms: C_17  and  C_18
REMARK   17  A    between atoms: C_18  and  N_19
REMARK   18  A    between atoms: N_22  and  C_23
REMARK                            x       y       z     vdW  Elec       q    Type
REMARK                         _______ _______ _______ _____ _____    ______ ____
ROOT
ATOM      1  C   UNL     1       0.597   2.889  19.947  0.00  0.00    +0.000 C 
ENDROOT
BRANCH   1   2
ATOM      2  C   UNL     1       1.485   2.903  21.196  0.00  0.00    +0.000 C 
BRANCH   2   3
ATOM      3  C   UNL     1       2.148   4.262  21.401  0.00  0.00    +0.000 C 
BRANCH   3   4
ATOM      4  C   UNL     1       1.445   5.354  20.592  0.00  0.00    +0.000 C 
BRANCH   4   5
ATOM      5  C   UNL     1       2.456   6.363  20.053  0.00  0.00    +0.000 C 
BRANCH   5   6
ATOM      6  C   UNL     1       1.832   7.748  19.900  0.00  0.00    +0.000 C 
BRANCH   6   7
ATOM      7  C   UNL     1       1.272   8.240  21.232  0.00  0.00    +0.000 C 
BRANCH   7   8
ATOM      8  C   UNL     1       0.041   9.127  21.034  0.00  0.00    +0.000 C 
BRANCH   8   9
ATOM      9  C   UNL     1       0.328  10.194  19.981  0.00  0.00    +0.000 C 
BRANCH   9  10
ATOM     10  C   UNL     1      -0.911  10.581  19.172  0.00  0.00    +0.000 C 
BRANCH  10  11
ATOM     11  C   UNL     1      -1.033  12.087  19.113  0.00  0.00    +0.000 C 
ATOM     12  O   UNL     1      -0.991  12.747  18.080  0.00  0.00    +0.000 OA
BRANCH  11  13
ATOM     13  O   UNL     1      -1.206  12.609  20.361  0.00  0.00    +0.000 OA
BRANCH  13  14
ATOM     14  C   UNL     1      -2.458  12.261  20.993  0.00  0.00    +0.000 C 
ATOM     15  C   UNL     1      -3.477  13.335  20.627  0.00  0.00    +0.000 C 
BRANCH  14  17
ATOM     16  C   UNL     1      -1.029  12.932  23.005  0.00  0.00    +0.000 C 
ATOM     17  C   UNL     1      -2.240  12.160  22.512  0.00  0.00    +0.000 C 
ENDBRANCH  14  17
ENDBRANCH  13  14
ENDBRANCH  11  13
ENDBRANCH  10  11
ENDBRANCH   9  10
ENDBRANCH   8   9
ENDBRANCH   7   8
ENDBRANCH   6   7
ENDBRANCH   5   6
ENDBRANCH   4   5
ENDBRANCH   3   4
ENDBRANCH   2   3
ENDBRANCH   1   2
BRANCH   1  18
ATOM     18  C   UNL     1       1.208   1.984  18.886  0.00  0.00    +0.000 C 
BRANCH  18  19
ATOM     19  N   UNL     1       2.648   2.109  18.749  0.00  0.00    +0.000 N 
ATOM     20  C   UNL     1       3.103   3.193  18.024  0.00  0.00    +0.000 C 
ATOM     21  O   UNL     1       2.350   3.970  17.459  0.00  0.00    +0.000 OA
ATOM     22  N   UNL     1       4.472   3.288  18.013  0.00  0.00    +0.000 N 
ATOM     23  H   UNL     1       3.225   1.826  19.526  0.00  0.00    +0.000 HD
ATOM     24  H   UNL     1       4.969   2.441  18.239  0.00  0.00    +0.000 HD
BRANCH  22  25
ATOM     25  C   UNL     1       5.188   4.324  17.248  0.00  0.00    +0.000 C 
ATOM     26  C   UNL     1       4.636   5.741  17.564  0.00  0.00    +0.000 C 
ATOM     27  C   UNL     1       5.419   6.821  16.801  0.00  0.00    +0.000 C 
ATOM     28  C   UNL     1       6.895   6.763  17.220  0.00  0.00    +0.000 C 
ATOM     29  C   UNL     1       7.481   5.384  16.881  0.00  0.00    +0.000 C 
ATOM     30  C   UNL     1       7.360   5.148  15.367  0.00  0.00    +0.000 C 
ATOM     31  C   UNL     1       5.882   5.176  14.949  0.00  0.00    +0.000 C 
ATOM     32  C   UNL     1       5.294   6.555  15.291  0.00  0.00    +0.000 C 
ATOM     33  C   UNL     1       5.111   4.083  15.716  0.00  0.00    +0.000 C 
ATOM     34  C   UNL     1       6.691   4.300  17.637  0.00  0.00    +0.000 C 
ENDBRANCH  22  25
ENDBRANCH  18  19
ENDBRANCH   1  18
TORSDOF 16
ENDMDL
MODEL 2
REMARK VINA RESULT:      -6.8      2.538      9.640
REMARK  Name = 
REMARK  18 active torsions:
REMARK  status: ('A' for Active; 'I' for Inactive)
REMARK    1  A    between atoms: C_1  and  C_2
REMARK    2  A    between atoms: C_2  and  C_3
REMARK    3  A    between atoms: C_3  and  C_4
REMARK    4  A    between atoms: C_3  and  O_5
REMARK    5  A    between atoms: O_5  and  C_6
REMARK    6  A    between atoms: C_6  and  C_8
REMARK    7  A    between atoms: C_8  and  C_9
REMARK    8  A    between atoms: C_9  and  C_10
REMARK    9  A    between atoms: C_10  and  C_11
REMARK   10  A    between atoms: C_11  and  C_12
REMARK   11  A    between atoms: C_12  and  C_13
REMARK   12  A    between atoms: C_13  and  C_14
REMARK   13  A    between atoms: C_14  and  C_15
REMARK   14  A    between atoms: C_15  and  C_16
REMARK   15  A    between atoms: C_16  and  C_17
REMARK   16  A    between atoms: C_17  and  C_18
REMARK   17  A    between atoms: C_18  and  N_19
REMARK   18  A    between atoms: N_22  and  C_23
REMARK                            x       y       z     vdW  Elec       q    Type
REMARK                         _______ _______ _______ _____ _____    ______ ____
ROOT
ATOM      1  C   UNL     1       2.793   7.377  17.893  0.00  0.00    +0.000 C 
ENDROOT
BRANCH   1   2
ATOM      2  C   UNL     1       2.198   6.235  18.724  0.00  0.00    +0.000 C 
BRANCH   2   3
ATOM      3  C   UNL     1       3.152   5.781  19.824  0.00  0.00    +0.000 C 
BRANCH   3   4
ATOM      4  C   UNL     1       2.545   4.652  20.659  0.00  0.00    +0.000 C 
BRANCH   4   5
ATOM      5  C   UNL     1       1.079   4.436  20.291  0.00  0.00    +0.000 C 
BRANCH   5   6
ATOM      6  C   UNL     1       0.811   2.982  19.907  0.00  0.00    +0.000 C 
BRANCH   6   7
ATOM      7  C   UNL     1       2.105   2.282  19.498  0.00  0.00    +0.000 C 
BRANCH   7   8
ATOM      8  C   UNL     1       2.390   2.451  18.005  0.00  0.00    +0.000 C 
BRANCH   8   9
ATOM      9  C   UNL     1       3.868   2.763  17.786  0.00  0.00    +0.000 C 
BRANCH   9  10
ATOM     10  C   UNL     1       4.095   3.884  16.771  0.00  0.00    +0.000 C 
BRANCH  10  11
ATOM     11  C   UNL     1       5.565   4.237  16.720  0.00  0.00    +0.000 C 
ATOM     12  O   UNL     1       6.335   3.880  15.834  0.00  0.00    +0.000 OA
BRANCH  11  13
ATOM     13  O   UNL     1       5.914   5.013  17.786  0.00  0.00    +0.000 OA
BRANCH  13  14
ATOM     14  C   UNL     1       7.278   5.493  17.762  0.00  0.00    +0.000 C 
ATOM     15  C   UNL     1       7.732   5.671  19.207  0.00  0.00    +0.000 C 
BRANCH  14  17
ATOM     16  C   UNL     1       7.738   8.009  17.809  0.00  0.00    +0.000 C 
ATOM     17  C   UNL     1       7.329   6.811  16.970  0.00  0.00    +0.000 C 
ENDBRANCH  14  17
ENDBRANCH  13  14
ENDBRANCH  11  13
ENDBRANCH  10  11
ENDBRANCH   9  10
ENDBRANCH   8   9
ENDBRANCH   7   8
ENDBRANCH   6   7
ENDBRANCH   5   6
ENDBRANCH   4   5
ENDBRANCH   3   4
ENDBRANCH   2   3
ENDBRANCH   1   2
BRANCH   1  18
ATOM     18  C   UNL     1       1.903   8.608  17.990  0.00  0.00    +0.000 C 
BRANCH  18  19
ATOM     19  N   UNL     1       1.407   8.885  19.327  0.00  0.00    +0.000 N 
ATOM     20  C   UNL     1       0.701  10.061  19.486  0.00  0.00    +0.000 C 
ATOM     21  O   UNL     1       0.560  10.871  18.584  0.00  0.00    +0.000 OA
ATOM     22  N   UNL     1       0.194  10.208  20.753  0.00  0.00    +0.000 N 
ATOM     23  H   UNL     1       1.097   8.106  19.888  0.00  0.00    +0.000 HD
ATOM     24  H   UNL     1       0.632   9.646  21.465  0.00  0.00    +0.000 HD
BRANCH  22  25
ATOM     25  C   UNL     1      -0.535  11.416  21.178  0.00  0.00    +0.000 C 
ATOM     26  C   UNL     1      -1.718  11.727  20.220  0.00  0.00    +0.000 C 
ATOM     27  C   UNL     1      -2.505  12.959  20.697  0.00  0.00    +0.000 C 
ATOM     28  C   UNL     1      -3.066  12.685  22.100  0.00  0.00    +0.000 C 
ATOM     29  C   UNL     1      -1.915  12.414  23.080  0.00  0.00    +0.000 C 
ATOM     30  C   UNL     1      -0.992  13.643  23.119  0.00  0.00    +0.000 C 
ATOM     31  C   UNL     1      -0.405  13.901  21.722  0.00  0.00    +0.000 C 
ATOM     32  C   UNL     1      -1.557  14.169  20.740  0.00  0.00    +0.000 C 
ATOM     33  C   UNL     1       0.387  12.662  21.261  0.00  0.00    +0.000 C 
ATOM     34  C   UNL     1      -1.119  11.187  22.598  0.00  0.00    +0.000 C 
ENDBRANCH  22  25
ENDBRANCH  18  19
ENDBRANCH   1  18
TORSDOF 16
ENDMDL
MODEL 3
REMARK VINA RESULT:      -6.5      2.738      9.066
REMARK  Name = 
REMARK  18 active torsions:
REMARK  status: ('A' for Active; 'I' for Inactive)
REMARK    1  A    between atoms: C_1  and  C_2
REMARK    2  A    between atoms: C_2  and  C_3
REMARK    3  A    between atoms: C_3  and  C_4
REMARK    4  A    between atoms: C_3  and  O_5
REMARK    5  A    between atoms: O_5  and  C_6
REMARK    6  A    between atoms: C_6  and  C_8
REMARK    7  A    between atoms: C_8  and  C_9
REMARK    8  A    between atoms: C_9  and  C_10
REMARK    9  A    between atoms: C_10  and  C_11
REMARK   10  A    between atoms: C_11  and  C_12
REMARK   11  A    between atoms: C_12  and  C_13
REMARK   12  A    between atoms: C_13  and  C_14
REMARK   13  A    between atoms: C_14  and  C_15
REMARK   14  A    between atoms: C_15  and  C_16
REMARK   15  A    between atoms: C_16  and  C_17
REMARK   16  A    between atoms: C_17  and  C_18
REMARK   17  A    between atoms: C_18  and  N_19
REMARK   18  A    between atoms: N_22  and  C_23
REMARK                            x       y       z     vdW  Elec       q    Type
REMARK                         _______ _______ _______ _____ _____    ______ ____
ROOT
ATOM      1  C   UNL     1       2.483   5.134  20.908  0.00  0.00    +0.000 C 
ENDROOT
BRANCH   1   2
ATOM      2  C   UNL     1       2.071   3.797  21.534  0.00  0.00    +0.000 C 
BRANCH   2   3
ATOM      3  C   UNL     1       1.241   2.955  20.570  0.00  0.00    +0.000 C 
BRANCH   3   4
ATOM      4  C   UNL     1       2.132   2.124  19.645  0.00  0.00    +0.000 C 
BRANCH   4   5
ATOM      5  C   UNL     1       1.815   2.420  18.181  0.00  0.00    +0.000 C 
BRANCH   5   6
ATOM      6  C   UNL     1       1.321   3.853  17.997  0.00  0.00    +0.000 C 
BRANCH   6   7
ATOM      7  C   UNL     1       2.430   4.741  17.437  0.00  0.00    +0.000 C 
BRANCH   7   8
ATOM      8  C   UNL     1       3.666   3.926  17.054  0.00  0.00    +0.000 C 
BRANCH   8   9
ATOM      9  C   UNL     1       4.933   4.673  17.459  0.00  0.00    +0.000 C 
BRANCH   9  10
ATOM     10  C   UNL     1       5.507   5.528  16.329  0.00  0.00    +0.000 C 
BRANCH  10  11
ATOM     11  C   UNL     1       7.015   5.411  16.314  0.00  0.00    +0.000 C 
ATOM     12  O   UNL     1       7.628   4.358  16.171  0.00  0.00    +0.000 OA
BRANCH  11  13
ATOM     13  O   UNL     1       7.599   6.633  16.473  0.00  0.00    +0.000 OA
BRANCH  13  14
ATOM     14  C   UNL     1       7.375   7.247  17.762  0.00  0.00    +0.000 C 
ATOM     15  C   UNL     1       7.702   8.731  17.632  0.00  0.00    +0.000 C 
BRANCH  14  17
ATOM     16  C   UNL     1       7.503   5.555  19.676  0.00  0.00    +0.000 C 
ATOM     17  C   UNL     1       8.258   6.547  18.808  0.00  0.00    +0.000 C 
ENDBRANCH  14  17
ENDBRANCH  13  14
ENDBRANCH  11  13
ENDBRANCH  10  11
ENDBRANCH   9  10
ENDBRANCH   8   9
ENDBRANCH   7   8
ENDBRANCH   6   7
ENDBRANCH   5   6
ENDBRANCH   4   5
ENDBRANCH   3   4
ENDBRANCH   2   3
ENDBRANCH   1   2
BRANCH   1  18
ATOM     18  C   UNL     1       1.308   6.101  20.931  0.00  0.00    +0.000 C 
BRANCH  18  19
ATOM     19  N   UNL     1       1.687   7.503  20.964  0.00  0.00    +0.000 N 
ATOM     20  C   UNL     1       0.655   8.413  21.088  0.00  0.00    +0.000 C 
ATOM     21  O   UNL     1      -0.519   8.080  21.093  0.00  0.00    +0.000 OA
ATOM     22  N   UNL     1       1.099   9.707  21.198  0.00  0.00    +0.000 N 
ATOM     23  H   UNL     1       2.550   7.751  21.424  0.00  0.00    +0.000 HD
ATOM     24  H   UNL     1       2.038   9.874  20.873  0.00  0.00    +0.000 HD
BRANCH  22  25
ATOM     25  C   UNL     1       0.179  10.856  21.271  0.00  0.00    +0.000 C 
ATOM     26  C   UNL     1      -0.513  10.937  22.659  0.00  0.00    +0.000 C 
ATOM     27  C   UNL     1      -1.433  12.165  22.747  0.00  0.00    +0.000 C 
ATOM     28  C   UNL     1      -0.596  13.436  22.538  0.00  0.00    +0.000 C 
ATOM     29  C   UNL     1       0.069  13.404  21.154  0.00  0.00    +0.000 C 
ATOM     30  C   UNL     1      -1.025  13.317  20.077  0.00  0.00    +0.000 C 
ATOM     31  C   UNL     1      -1.844  12.031  20.264  0.00  0.00    +0.000 C 
ATOM     32  C   UNL     1      -2.507  12.062  21.651  0.00  0.00    +0.000 C 
ATOM     33  C   UNL     1      -0.911  10.808  20.167  0.00  0.00    +0.000 C 
ATOM     34  C   UNL     1       0.983  12.167  21.061  0.00  0.00    +0.000 C 
ENDBRANCH  22  25
ENDBRANCH  18  19
ENDBRANCH   1  18
TORSDOF 16
ENDMDL
MODEL 4
REMARK VINA RESULT:      -6.5      4.653      6.582
REMARK  Name = 
REMARK  18 active torsions:
REMARK  status: ('A' for Active; 'I' for Inactive)
REMARK    1  A    between atoms: C_1  and  C_2
REMARK    2  A    between atoms: C_2  and  C_3
REMARK    3  A    between atoms: C_3  and  C_4
REMARK    4  A    between atoms: C_3  and  O_5
REMARK    5  A    between atoms: O_5  and  C_6
REMARK    6  A    between atoms: C_6  and  C_8
REMARK    7  A    between atoms: C_8  and  C_9
REMARK    8  A    between atoms: C_9  and  C_10
REMARK    9  A    between atoms: C_10  and  C_11
REMARK   10  A    between atoms: C_11  and  C_12
REMARK   11  A    between atoms: C_12  and  C_13
REMARK   12  A    between atoms: C_13  and  C_14
REMARK   13  A    between atoms: C_14  and  C_15
REMARK   14  A    between atoms: C_15  and  C_16
REMARK   15  A    between atoms: C_16  and  C_17
REMARK   16  A    between atoms: C_17  and  C_18
REMARK   17  A    between atoms: C_18  and  N_19
REMARK   18  A    between atoms: N_22  and  C_23
REMARK                            x       y       z     vdW  Elec       q    Type
REMARK                         _______ _______ _______ _____ _____    ______ ____
ROOT
ATOM      1  C   UNL     1       5.821   6.385  17.775  0.00  0.00    +0.000 C 
ENDROOT
BRANCH   1   2
ATOM      2  C   UNL     1       5.404   5.358  16.717  0.00  0.00    +0.000 C 
BRANCH   2   3
ATOM      3  C   UNL     1       4.838   4.092  17.352  0.00  0.00    +0.000 C 
BRANCH   3   4
ATOM      4  C   UNL     1       3.320   4.009  17.176  0.00  0.00    +0.000 C 
BRANCH   4   5
ATOM      5  C   UNL     1       2.640   3.672  18.500  0.00  0.00    +0.000 C 
BRANCH   5   6
ATOM      6  C   UNL     1       3.247   4.467  19.655  0.00  0.00    +0.000 C 
BRANCH   6   7
ATOM      7  C   UNL     1       2.270   5.527  20.157  0.00  0.00    +0.000 C 
BRANCH   7   8
ATOM      8  C   UNL     1       2.461   6.859  19.430  0.00  0.00    +0.000 C 
BRANCH   8   9
ATOM      9  C   UNL     1       1.698   7.965  20.153  0.00  0.00    +0.000 C 
BRANCH   9  10
ATOM     10  C   UNL     1       1.371   9.153  19.249  0.00  0.00    +0.000 C 
BRANCH  10  11
ATOM     11  C   UNL     1       0.459  10.115  19.977  0.00  0.00    +0.000 C 
ATOM     12  O   UNL     1       0.815  10.855  20.888  0.00  0.00    +0.000 OA
BRANCH  11  13
ATOM     13  O   UNL     1      -0.809  10.054  19.477  0.00  0.00    +0.000 OA
BRANCH  13  14
ATOM     14  C   UNL     1      -0.980  10.682  18.187  0.00  0.00    +0.000 C 
ATOM     15  C   UNL     1      -1.469  12.107  18.427  0.00  0.00    +0.000 C 
BRANCH  14  17
ATOM     16  C   UNL     1      -3.270  10.594  17.051  0.00  0.00    +0.000 C 
ATOM     17  C   UNL     1      -1.978   9.857  17.357  0.00  0.00    +0.000 C 
ENDBRANCH  14  17
ENDBRANCH  13  14
ENDBRANCH  11  13
ENDBRANCH  10  11
ENDBRANCH   9  10
ENDBRANCH   8   9
ENDBRANCH   7   8
ENDBRANCH   6   7
ENDBRANCH   5   6
ENDBRANCH   4   5
ENDBRANCH   3   4
ENDBRANCH   2   3
ENDBRANCH   1   2
BRANCH   1  18
ATOM     18  C   UNL     1       7.225   6.893  17.480  0.00  0.00    +0.000 C 
BRANCH  18  19
ATOM     19  N   UNL     1       7.312   8.327  17.269  0.00  0.00    +0.000 N 
ATOM     20  C   UNL     1       8.253   9.001  18.024  0.00  0.00    +0.000 C 
ATOM     21  O   UNL     1       8.927   8.451  18.879  0.00  0.00    +0.000 OA
ATOM     22  N   UNL     1       8.332  10.333  17.705  0.00  0.00    +0.000 N 
ATOM     23  H   UNL     1       7.162   8.679  16.336  0.00  0.00    +0.000 HD
ATOM     24  H   UNL     1       7.532  10.715  17.226  0.00  0.00    +0.000 HD
BRANCH  22  25
ATOM     25  C   UNL     1       9.216  11.267  18.426  0.00  0.00    +0.000 C 
ATOM     26  C   UNL     1       9.377  10.856  19.915  0.00  0.00    +0.000 C 
ATOM     27  C   UNL     1      10.339  11.805  20.648  0.00  0.00    +0.000 C 
ATOM     28  C   UNL     1      11.716  11.748  19.969  0.00  0.00    +0.000 C 
ATOM     29  C   UNL     1      11.595  12.190  18.503  0.00  0.00    +0.000 C 
ATOM     30  C   UNL     1      11.050  13.627  18.458  0.00  0.00    +0.000 C 
ATOM     31  C   UNL     1       9.660  13.681  19.109  0.00  0.00    +0.000 C 
ATOM     32  C   UNL     1       9.779  13.236  20.576  0.00  0.00    +0.000 C 
ATOM     33  C   UNL     1       8.704  12.731  18.360  0.00  0.00    +0.000 C 
ATOM     34  C   UNL     1      10.623  11.247  17.770  0.00  0.00    +0.000 C 
ENDBRANCH  22  25
ENDBRANCH  18  19
ENDBRANCH   1  18
TORSDOF 16
ENDMDL
MODEL 5
REMARK VINA RESULT:      -6.5      2.665      9.109
REMARK  Name = 
REMARK  18 active torsions:
REMARK  status: ('A' for Active; 'I' for Inactive)
REMARK    1  A    between atoms: C_1  and  C_2
REMARK    2  A    between atoms: C_2  and  C_3
REMARK    3  A    between atoms: C_3  and  C_4
REMARK    4  A    between atoms: C_3  and  O_5
REMARK    5  A    between atoms: O_5  and  C_6
REMARK    6  A    between atoms: C_6  and  C_8
REMARK    7  A    between atoms: C_8  and  C_9
REMARK    8  A    between atoms: C_9  and  C_10
REMARK    9  A    between atoms: C_10  and  C_11
REMARK   10  A    between atoms: C_11  and  C_12
REMARK   11  A    between atoms: C_12  and  C_13
REMARK   12  A    between atoms: C_13  and  C_14
REMARK   13  A    between atoms: C_14  and  C_15
REMARK   14  A    between atoms: C_15  and  C_16
REMARK   15  A    between atoms: C_16  and  C_17
REMARK   16  A    between atoms: C_17  and  C_18
REMARK   17  A    between atoms: C_18  and  N_19
REMARK   18  A    between atoms: N_22  and  C_23
REMARK                            x       y       z     vdW  Elec       q    Type
REMARK                         _______ _______ _______ _____ _____    ______ ____
ROOT
ATOM      1  C   UNL     1       2.078   5.610  20.365  0.00  0.00    +0.000 C 
ENDROOT
BRANCH   1   2
ATOM      2  C   UNL     1       2.598   4.542  21.335  0.00  0.00    +0.000 C 
BRANCH   2   3
ATOM      3  C   UNL     1       1.769   3.264  21.263  0.00  0.00    +0.000 C 
BRANCH   3   4
ATOM      4  C   UNL     1       2.364   2.268  20.265  0.00  0.00    +0.000 C 
BRANCH   4   5
ATOM      5  C   UNL     1       1.468   2.133  19.036  0.00  0.00    +0.000 C 
BRANCH   5   6
ATOM      6  C   UNL     1       2.279   2.210  17.745  0.00  0.00    +0.000 C 
BRANCH   6   7
ATOM      7  C   UNL     1       2.424   3.656  17.280  0.00  0.00    +0.000 C 
BRANCH   7   8
ATOM      8  C   UNL     1       3.834   3.944  16.761  0.00  0.00    +0.000 C 
BRANCH   8   9
ATOM      9  C   UNL     1       4.625   4.734  17.800  0.00  0.00    +0.000 C 
BRANCH   9  10
ATOM     10  C   UNL     1       4.618   6.239  17.535  0.00  0.00    +0.000 C 
BRANCH  10  11
ATOM     11  C   UNL     1       5.471   6.549  16.325  0.00  0.00    +0.000 C 
ATOM     12  O   UNL     1       5.028   6.833  15.217  0.00  0.00    +0.000 OA
BRANCH  11  13
ATOM     13  O   UNL     1       6.798   6.479  16.635  0.00  0.00    +0.000 OA
BRANCH  13  14
ATOM     14  C   UNL     1       7.160   7.117  17.880  0.00  0.00    +0.000 C 
ATOM     15  C   UNL     1       7.830   8.445  17.542  0.00  0.00    +0.000 C 
BRANCH  14  17
ATOM     16  C   UNL     1       7.441   5.564  19.894  0.00  0.00    +0.000 C 
ATOM     17  C   UNL     1       8.092   6.180  18.668  0.00  0.00    +0.000 C 
ENDBRANCH  14  17
ENDBRANCH  13  14
ENDBRANCH  11  13
ENDBRANCH  10  11
ENDBRANCH   9  10
ENDBRANCH   8   9
ENDBRANCH   7   8
ENDBRANCH   6   7
ENDBRANCH   5   6
ENDBRANCH   4   5
ENDBRANCH   3   4
ENDBRANCH   2   3
ENDBRANCH   1   2
BRANCH   1  18
ATOM     18  C   UNL     1       1.144   6.563  21.096  0.00  0.00    +0.000 C 
BRANCH  18  19
ATOM     19  N   UNL     1       1.469   7.968  20.928  0.00  0.00    +0.000 N 
ATOM     20  C   UNL     1       0.458   8.868  21.202  0.00  0.00    +0.000 C 
ATOM     21  O   UNL     1      -0.673   8.518  21.495  0.00  0.00    +0.000 OA
ATOM     22  N   UNL     1       0.869  10.174  21.103  0.00  0.00    +0.000 N 
ATOM     23  H   UNL     1       2.403   8.270  21.162  0.00  0.00    +0.000 HD
ATOM     24  H   UNL     1       1.706  10.327  20.565  0.00  0.00    +0.000 HD
BRANCH  22  25
ATOM     25  C   UNL     1      -0.054  11.309  21.283  0.00  0.00    +0.000 C 
ATOM     26  C   UNL     1      -0.790  11.227  22.649  0.00  0.00    +0.000 C 
ATOM     27  C   UNL     1      -1.712  12.439  22.853  0.00  0.00    +0.000 C 
ATOM     28  C   UNL     1      -0.870  13.723  22.824  0.00  0.00    +0.000 C 
ATOM     29  C   UNL     1      -0.161  13.853  21.468  0.00  0.00    +0.000 C 
ATOM     30  C   UNL     1      -1.220  13.900  20.353  0.00  0.00    +0.000 C 
ATOM     31  C   UNL     1      -2.044  12.604  20.360  0.00  0.00    +0.000 C 
ATOM     32  C   UNL     1      -2.751  12.471  21.719  0.00  0.00    +0.000 C 
ATOM     33  C   UNL     1      -1.108  11.398  20.147  0.00  0.00    +0.000 C 
ATOM     34  C   UNL     1       0.756  12.634  21.257  0.00  0.00    +0.000 C 
ENDBRANCH  22  25
ENDBRANCH  18  19
ENDBRANCH   1  18
TORSDOF 16
ENDMDL
MODEL 6
REMARK VINA RESULT:      -6.4      5.050      8.668
REMARK  Name = 
REMARK  18 active torsions:
REMARK  status: ('A' for Active; 'I' for Inactive)
REMARK    1  A    between atoms: C_1  and  C_2
REMARK    2  A    between atoms: C_2  and  C_3
REMARK    3  A    between atoms: C_3  and  C_4
REMARK    4  A    between atoms: C_3  and  O_5
REMARK    5  A    between atoms: O_5  and  C_6
REMARK    6  A    between atoms: C_6  and  C_8
REMARK    7  A    between atoms: C_8  and  C_9
REMARK    8  A    between atoms: C_9  and  C_10
REMARK    9  A    between atoms: C_10  and  C_11
REMARK   10  A    between atoms: C_11  and  C_12
REMARK   11  A    between atoms: C_12  and  C_13
REMARK   12  A    between atoms: C_13  and  C_14
REMARK   13  A    between atoms: C_14  and  C_15
REMARK   14  A    between atoms: C_15  and  C_16
REMARK   15  A    between atoms: C_16  and  C_17
REMARK   16  A    between atoms: C_17  and  C_18
REMARK   17  A    between atoms: C_18  and  N_19
REMARK   18  A    between atoms: N_22  and  C_23
REMARK                            x       y       z     vdW  Elec       q    Type
REMARK                         _______ _______ _______ _____ _____    ______ ____
ROOT
ATOM      1  C   UNL     1       7.413   5.820  18.603  0.00  0.00    +0.000 C 
ENDROOT
BRANCH   1   2
ATOM      2  C   UNL     1       7.489   4.785  17.475  0.00  0.00    +0.000 C 
BRANCH   2   3
ATOM      3  C   UNL     1       6.125   4.550  16.833  0.00  0.00    +0.000 C 
BRANCH   3   4
ATOM      4  C   UNL     1       5.703   5.740  15.970  0.00  0.00    +0.000 C 
BRANCH   4   5
ATOM      5  C   UNL     1       4.498   6.452  16.582  0.00  0.00    +0.000 C 
BRANCH   5   6
ATOM      6  C   UNL     1       3.659   5.496  17.428  0.00  0.00    +0.000 C 
BRANCH   6   7
ATOM      7  C   UNL     1       2.480   6.228  18.064  0.00  0.00    +0.000 C 
BRANCH   7   8
ATOM      8  C   UNL     1       2.807   6.698  19.482  0.00  0.00    +0.000 C 
BRANCH   8   9
ATOM      9  C   UNL     1       1.737   6.212  20.455  0.00  0.00    +0.000 C 
BRANCH   9  10
ATOM     10  C   UNL     1       2.195   5.023  21.299  0.00  0.00    +0.000 C 
BRANCH  10  11
ATOM     11  C   UNL     1       1.651   3.739  20.711  0.00  0.00    +0.000 C 
ATOM     12  O   UNL     1       0.664   3.671  19.986  0.00  0.00    +0.000 OA
BRANCH  11  13
ATOM     13  O   UNL     1       2.411   2.672  21.090  0.00  0.00    +0.000 OA
BRANCH  13  14
ATOM     14  C   UNL     1       3.151   2.048  20.017  0.00  0.00    +0.000 C 
ATOM     15  C   UNL     1       4.357   2.931  19.711  0.00  0.00    +0.000 C 
BRANCH  14  17
ATOM     16  C   UNL     1       2.903   2.190  17.475  0.00  0.00    +0.000 C 
ATOM     17  C   UNL     1       2.225   1.886  18.799  0.00  0.00    +0.000 C 
ENDBRANCH  14  17
ENDBRANCH  13  14
ENDBRANCH  11  13
ENDBRANCH  10  11
ENDBRANCH   9  10
ENDBRANCH   8   9
ENDBRANCH   7   8
ENDBRANCH   6   7
ENDBRANCH   5   6
ENDBRANCH   4   5
ENDBRANCH   3   4
ENDBRANCH   2   3
ENDBRANCH   1   2
BRANCH   1  18
ATOM     18  C   UNL     1       7.793   7.195  18.071  0.00  0.00    +0.000 C 
BRANCH  18  19
ATOM     19  N   UNL     1       8.575   7.999  18.993  0.00  0.00    +0.000 N 
ATOM     20  C   UNL     1       8.840   9.296  18.601  0.00  0.00    +0.000 C 
ATOM     21  O   UNL     1       8.510   9.735  17.511  0.00  0.00    +0.000 OA
ATOM     22  N   UNL     1       9.508  10.015  19.561  0.00  0.00    +0.000 N 
ATOM     23  H   UNL     1       8.435   7.858  19.982  0.00  0.00    +0.000 HD
ATOM     24  H   UNL     1       9.985   9.469  20.260  0.00  0.00    +0.000 HD
BRANCH  22  25
ATOM     25  C   UNL     1       9.958  11.401  19.341  0.00  0.00    +0.000 C 
ATOM     26  C   UNL     1       8.847  12.256  18.673  0.00  0.00    +0.000 C 
ATOM     27  C   UNL     1       9.305  13.713  18.493  0.00  0.00    +0.000 C 
ATOM     28  C   UNL     1       9.628  14.313  19.869  0.00  0.00    +0.000 C 
ATOM     29  C   UNL     1      10.755  13.511  20.538  0.00  0.00    +0.000 C 
ATOM     30  C   UNL     1      12.003  13.560  19.641  0.00  0.00    +0.000 C 
ATOM     31  C   UNL     1      11.692  12.933  18.274  0.00  0.00    +0.000 C 
ATOM     32  C   UNL     1      10.561  13.733  17.606  0.00  0.00    +0.000 C 
ATOM     33  C   UNL     1      11.241  11.472  18.470  0.00  0.00    +0.000 C 
ATOM     34  C   UNL     1      10.302  12.049  20.710  0.00  0.00    +0.000 C 
ENDBRANCH  22  25
ENDBRANCH  18  19
ENDBRANCH   1  18
TORSDOF 16
ENDMDL
MODEL 7
REMARK VINA RESULT:      -6.4      5.190      8.702
REMARK  Name = 
REMARK  18 active torsions:
REMARK  status: ('A' for Active; 'I' for Inactive)
REMARK    1  A    between atoms: C_1  and  C_2
REMARK    2  A    between atoms: C_2  and  C_3
REMARK    3  A    between atoms: C_3  and  C_4
REMARK    4  A    between atoms: C_3  and  O_5
REMARK    5  A    between atoms: O_5  and  C_6
REMARK    6  A    between atoms: C_6  and  C_8
REMARK    7  A    between atoms: C_8  and  C_9
REMARK    8  A    between atoms: C_9  and  C_10
REMARK    9  A    between atoms: C_10  and  C_11
REMARK   10  A    between atoms: C_11  and  C_12
REMARK   11  A    between atoms: C_12  and  C_13
REMARK   12  A    between atoms: C_13  and  C_14
REMARK   13  A    between atoms: C_14  and  C_15
REMARK   14  A    between atoms: C_15  and  C_16
REMARK   15  A    between atoms: C_16  and  C_17
REMARK   16  A    between atoms: C_17  and  C_18
REMARK   17  A    between atoms: C_18  and  N_19
REMARK   18  A    between atoms: N_22  and  C_23
REMARK                            x       y       z     vdW  Elec       q    Type
REMARK                         _______ _______ _______ _____ _____    ______ ____
ROOT
ATOM      1  C   UNL     1       7.859   5.947  18.200  0.00  0.00    +0.000 C 
ENDROOT
BRANCH   1   2
ATOM      2  C   UNL     1       7.046   5.530  19.431  0.00  0.00    +0.000 C 
BRANCH   2   3
ATOM      3  C   UNL     1       5.586   5.266  19.078  0.00  0.00    +0.000 C 
BRANCH   3   4
ATOM      4  C   UNL     1       5.450   4.662  17.679  0.00  0.00    +0.000 C 
BRANCH   4   5
ATOM      5  C   UNL     1       4.684   5.605  16.755  0.00  0.00    +0.000 C 
BRANCH   5   6
ATOM      6  C   UNL     1       4.119   6.799  17.523  0.00  0.00    +0.000 C 
BRANCH   6   7
ATOM      7  C   UNL     1       2.627   6.617  17.787  0.00  0.00    +0.000 C 
BRANCH   7   8
ATOM      8  C   UNL     1       2.194   7.312  19.079  0.00  0.00    +0.000 C 
BRANCH   8   9
ATOM      9  C   UNL     1       2.516   6.431  20.282  0.00  0.00    +0.000 C 
BRANCH   9  10
ATOM     10  C   UNL     1       1.309   5.636  20.779  0.00  0.00    +0.000 C 
BRANCH  10  11
ATOM     11  C   UNL     1       1.629   4.158  20.768  0.00  0.00    +0.000 C 
ATOM     12  O   UNL     1       1.002   3.307  21.389  0.00  0.00    +0.000 OA
BRANCH  11  13
ATOM     13  O   UNL     1       2.703   3.900  19.967  0.00  0.00    +0.000 OA
BRANCH  13  14
ATOM     14  C   UNL     1       2.967   2.497  19.745  0.00  0.00    +0.000 C 
ATOM     15  C   UNL     1       4.330   2.180  20.351  0.00  0.00    +0.000 C 
BRANCH  14  17
ATOM     16  C   UNL     1       3.962   1.207  17.773  0.00  0.00    +0.000 C 
ATOM     17  C   UNL     1       2.923   2.214  18.234  0.00  0.00    +0.000 C 
ENDBRANCH  14  17
ENDBRANCH  13  14
ENDBRANCH  11  13
ENDBRANCH  10  11
ENDBRANCH   9  10
ENDBRANCH   8   9
ENDBRANCH   7   8
ENDBRANCH   6   7
ENDBRANCH   5   6
ENDBRANCH   4   5
ENDBRANCH   3   4
ENDBRANCH   2   3
ENDBRANCH   1   2
BRANCH   1  18
ATOM     18  C   UNL     1       7.767   7.453  18.003  0.00  0.00    +0.000 C 
BRANCH  18  19
ATOM     19  N   UNL     1       8.591   8.229  18.913  0.00  0.00    +0.000 N 
ATOM     20  C   UNL     1       8.840   9.538  18.548  0.00  0.00    +0.000 C 
ATOM     21  O   UNL     1       8.461  10.010  17.489  0.00  0.00    +0.000 OA
ATOM     22  N   UNL     1       9.551  10.227  19.498  0.00  0.00    +0.000 N 
ATOM     23  H   UNL     1       8.495   8.058  19.902  0.00  0.00    +0.000 HD
ATOM     24  H   UNL     1      10.058   9.660  20.159  0.00  0.00    +0.000 HD
BRANCH  22  25
ATOM     25  C   UNL     1       9.993  11.619  19.301  0.00  0.00    +0.000 C 
ATOM     26  C   UNL     1      10.443  12.264  20.640  0.00  0.00    +0.000 C 
ATOM     27  C   UNL     1      10.951  13.698  20.419  0.00  0.00    +0.000 C 
ATOM     28  C   UNL     1      12.150  13.665  19.461  0.00  0.00    +0.000 C 
ATOM     29  C   UNL     1      11.724  13.070  18.110  0.00  0.00    +0.000 C 
ATOM     30  C   UNL     1      10.603  13.936  17.513  0.00  0.00    +0.000 C 
ATOM     31  C   UNL     1       9.390  13.945  18.456  0.00  0.00    +0.000 C 
ATOM     32  C   UNL     1       9.816  14.539  19.809  0.00  0.00    +0.000 C 
ATOM     33  C   UNL     1       8.888  12.502  18.662  0.00  0.00    +0.000 C 
ATOM     34  C   UNL     1      11.206  11.636  18.331  0.00  0.00    +0.000 C 
ENDBRANCH  22  25
ENDBRANCH  18  19
ENDBRANCH   1  18
TORSDOF 16
ENDMDL
MODEL 8
REMARK VINA RESULT:      -6.3      1.670      2.799
REMARK  Name = 
REMARK  18 active torsions:
REMARK  status: ('A' for Active; 'I' for Inactive)
REMARK    1  A    between atoms: C_1  and  C_2
REMARK    2  A    between atoms: C_2  and  C_3
REMARK    3  A    between atoms: C_3  and  C_4
REMARK    4  A    between atoms: C_3  and  O_5
REMARK    5  A    between atoms: O_5  and  C_6
REMARK    6  A    between atoms: C_6  and  C_8
REMARK    7  A    between atoms: C_8  and  C_9
REMARK    8  A    between atoms: C_9  and  C_10
REMARK    9  A    between atoms: C_10  and  C_11
REMARK   10  A    between atoms: C_11  and  C_12
REMARK   11  A    between atoms: C_12  and  C_13
REMARK   12  A    between atoms: C_13  and  C_14
REMARK   13  A    between atoms: C_14  and  C_15
REMARK   14  A    between atoms: C_15  and  C_16
REMARK   15  A    between atoms: C_16  and  C_17
REMARK   16  A    between atoms: C_17  and  C_18
REMARK   17  A    between atoms: C_18  and  N_19
REMARK   18  A    between atoms: N_22  and  C_23
REMARK                            x       y       z     vdW  Elec       q    Type
REMARK                         _______ _______ _______ _____ _____    ______ ____
ROOT
ATOM      1  C   UNL     1       2.492   2.581  21.805  0.00  0.00    +0.000 C 
ENDROOT
BRANCH   1   2
ATOM      2  C   UNL     1       1.358   2.500  20.777  0.00  0.00    +0.000 C 
BRANCH   2   3
ATOM      3  C   UNL     1       1.016   3.873  20.206  0.00  0.00    +0.000 C 
BRANCH   3   4
ATOM      4  C   UNL     1       1.061   3.869  18.677  0.00  0.00    +0.000 C 
BRANCH   4   5
ATOM      5  C   UNL     1       1.672   5.165  18.151  0.00  0.00    +0.000 C 
BRANCH   5   6
ATOM      6  C   UNL     1       2.056   6.103  19.294  0.00  0.00    +0.000 C 
BRANCH   6   7
ATOM      7  C   UNL     1       2.377   7.499  18.764  0.00  0.00    +0.000 C 
BRANCH   7   8
ATOM      8  C   UNL     1       1.554   8.575  19.475  0.00  0.00    +0.000 C 
BRANCH   8   9
ATOM      9  C   UNL     1       1.220   8.127  20.895  0.00  0.00    +0.000 C 
BRANCH   9  10
ATOM     10  C   UNL     1       1.607   9.161  21.952  0.00  0.00    +0.000 C 
BRANCH  10  11
ATOM     11  C   UNL     1       0.381   9.578  22.733  0.00  0.00    +0.000 C 
ATOM     12  O   UNL     1       0.325   9.641  23.956  0.00  0.00    +0.000 OA
BRANCH  11  13
ATOM     13  O   UNL     1      -0.649   9.884  21.892  0.00  0.00    +0.000 OA
BRANCH  13  14
ATOM     14  C   UNL     1      -0.594  11.213  21.328  0.00  0.00    +0.000 C 
ATOM     15  C   UNL     1      -1.404  12.135  22.235  0.00  0.00    +0.000 C 
BRANCH  14  17
ATOM     16  C   UNL     1      -1.582  12.530  19.370  0.00  0.00    +0.000 C 
ATOM     17  C   UNL     1      -1.150  11.171  19.895  0.00  0.00    +0.000 C 
ENDBRANCH  14  17
ENDBRANCH  13  14
ENDBRANCH  11  13
ENDBRANCH  10  11
ENDBRANCH   9  10
ENDBRANCH   8   9
ENDBRANCH   7   8
ENDBRANCH   6   7
ENDBRANCH   5   6
ENDBRANCH   4   5
ENDBRANCH   3   4
ENDBRANCH   2   3
ENDBRANCH   1   2
BRANCH   1  18
ATOM     18  C   UNL     1       3.776   2.027  21.204  0.00  0.00    +0.000 C 
BRANCH  18  19
ATOM     19  N   UNL     1       3.838   2.092  19.755  0.00  0.00    +0.000 N 
ATOM     20  C   UNL     1       4.575   3.130  19.220  0.00  0.00    +0.000 C 
ATOM     21  O   UNL     1       5.089   3.996  19.909  0.00  0.00    +0.000 OA
ATOM     22  N   UNL     1       4.656   3.073  17.851  0.00  0.00    +0.000 N 
ATOM     23  H   UNL     1       3.862   1.224  19.241  0.00  0.00    +0.000 HD
ATOM     24  H   UNL     1       3.952   2.514  17.397  0.00  0.00    +0.000 HD
BRANCH  22  25
ATOM     25  C   UNL     1       5.333   4.112  17.054  0.00  0.00    +0.000 C 
ATOM     26  C   UNL     1       6.700   4.500  17.679  0.00  0.00    +0.000 C 
ATOM     27  C   UNL     1       7.424   5.547  16.817  0.00  0.00    +0.000 C 
ATOM     28  C   UNL     1       7.670   4.964  15.418  0.00  0.00    +0.000 C 
ATOM     29  C   UNL     1       6.330   4.608  14.757  0.00  0.00    +0.000 C 
ATOM     30  C   UNL     1       5.473   5.880  14.648  0.00  0.00    +0.000 C 
ATOM     31  C   UNL     1       5.200   6.449  16.048  0.00  0.00    +0.000 C 
ATOM     32  C   UNL     1       6.541   6.803  16.712  0.00  0.00    +0.000 C 
ATOM     33  C   UNL     1       4.468   5.392  16.899  0.00  0.00    +0.000 C 
ATOM     34  C   UNL     1       5.599   3.567  15.625  0.00  0.00    +0.000 C 
ENDBRANCH  22  25
ENDBRANCH  18  19
ENDBRANCH   1  18
TORSDOF 16
ENDMDL
MODEL 9
REMARK VINA RESULT:      -6.2      5.353      7.764
REMARK  Name = 
REMARK  18 active torsions:
REMARK  status: ('A' for Active; 'I' for Inactive)
REMARK    1  A    between atoms: C_1  and  C_2
REMARK    2  A    between atoms: C_2  and  C_3
REMARK    3  A    between atoms: C_3  and  C_4
REMARK    4  A    between atoms: C_3  and  O_5
REMARK    5  A    between atoms: O_5  and  C_6
REMARK    6  A    between atoms: C_6  and  C_8
REMARK    7  A    between atoms: C_8  and  C_9
REMARK    8  A    between atoms: C_9  and  C_10
REMARK    9  A    between atoms: C_10  and  C_11
REMARK   10  A    between atoms: C_11  and  C_12
REMARK   11  A    between atoms: C_12  and  C_13
REMARK   12  A    between atoms: C_13  and  C_14
REMARK   13  A    between atoms: C_14  and  C_15
REMARK   14  A    between atoms: C_15  and  C_16
REMARK   15  A    between atoms: C_16  and  C_17
REMARK   16  A    between atoms: C_17  and  C_18
REMARK   17  A    between atoms: C_18  and  N_19
REMARK   18  A    between atoms: N_22  and  C_23
REMARK                            x       y       z     vdW  Elec       q    Type
REMARK                         _______ _______ _______ _____ _____    ______ ____
ROOT
ATOM      1  C   UNL     1       8.012   7.605  18.437  0.00  0.00    +0.000 C 
ENDROOT
BRANCH   1   2
ATOM      2  C   UNL     1       8.058   9.015  17.839  0.00  0.00    +0.000 C 
BRANCH   2   3
ATOM      3  C   UNL     1       9.125   9.877  18.506  0.00  0.00    +0.000 C 
BRANCH   3   4
ATOM      4  C   UNL     1       9.022  11.337  18.061  0.00  0.00    +0.000 C 
BRANCH   4   5
ATOM      5  C   UNL     1      10.042  12.201  18.801  0.00  0.00    +0.000 C 
BRANCH   5   6
ATOM      6  C   UNL     1       9.551  12.562  20.202  0.00  0.00    +0.000 C 
BRANCH   6   7
ATOM      7  C   UNL     1      10.511  13.539  20.877  0.00  0.00    +0.000 C 
BRANCH   7   8
ATOM      8  C   UNL     1       9.804  14.831  21.290  0.00  0.00    +0.000 C 
BRANCH   8   9
ATOM      9  C   UNL     1       8.317  14.743  20.959  0.00  0.00    +0.000 C 
BRANCH   9  10
ATOM     10  C   UNL     1       7.693  16.106  20.657  0.00  0.00    +0.000 C 
BRANCH  10  11
ATOM     11  C   UNL     1       7.097  16.098  19.267  0.00  0.00    +0.000 C 
ATOM     12  O   UNL     1       7.401  16.886  18.377  0.00  0.00    +0.000 OA
BRANCH  11  13
ATOM     13  O   UNL     1       6.185  15.093  19.135  0.00  0.00    +0.000 OA
BRANCH  13  14
ATOM     14  C   UNL     1       4.805  15.520  19.179  0.00  0.00    +0.000 C 
ATOM     15  C   UNL     1       4.097  14.691  20.246  0.00  0.00    +0.000 C 
BRANCH  14  17
ATOM     16  C   UNL     1       3.192  16.423  17.411  0.00  0.00    +0.000 C 
ATOM     17  C   UNL     1       4.179  15.332  17.787  0.00  0.00    +0.000 C 
ENDBRANCH  14  17
ENDBRANCH  13  14
ENDBRANCH  11  13
ENDBRANCH  10  11
ENDBRANCH   9  10
ENDBRANCH   8   9
ENDBRANCH   7   8
ENDBRANCH   6   7
ENDBRANCH   5   6
ENDBRANCH   4   5
ENDBRANCH   3   4
ENDBRANCH   2   3
ENDBRANCH   1   2
BRANCH   1  18
ATOM     18  C   UNL     1       7.522   6.614  17.392  0.00  0.00    +0.000 C 
BRANCH  18  19
ATOM     19  N   UNL     1       6.077   6.494  17.310  0.00  0.00    +0.000 N 
ATOM     20  C   UNL     1       5.495   5.534  18.115  0.00  0.00    +0.000 C 
ATOM     21  O   UNL     1       6.149   4.769  18.804  0.00  0.00    +0.000 OA
ATOM     22  N   UNL     1       4.124   5.543  18.044  0.00  0.00    +0.000 N 
ATOM     23  H   UNL     1       5.538   7.336  17.169  0.00  0.00    +0.000 HD
ATOM     24  H   UNL     1       3.733   5.991  17.230  0.00  0.00    +0.000 HD
BRANCH  22  25
ATOM     25  C   UNL     1       3.289   4.563  18.761  0.00  0.00    +0.000 C 
ATOM     26  C   UNL     1       3.034   5.006  20.228  0.00  0.00    +0.000 C 
ATOM     27  C   UNL     1       2.121   4.006  20.956  0.00  0.00    +0.000 C 
ATOM     28  C   UNL     1       0.774   3.929  20.223  0.00  0.00    +0.000 C 
ATOM     29  C   UNL     1       0.990   3.453  18.779  0.00  0.00    +0.000 C 
ATOM     30  C   UNL     1       1.649   2.064  18.805  0.00  0.00    +0.000 C 
ATOM     31  C   UNL     1       3.012   2.144  19.510  0.00  0.00    +0.000 C 
ATOM     32  C   UNL     1       2.796   2.624  20.955  0.00  0.00    +0.000 C 
ATOM     33  C   UNL     1       3.918   3.144  18.766  0.00  0.00    +0.000 C 
ATOM     34  C   UNL     1       1.913   4.448  18.051  0.00  0.00    +0.000 C 
ENDBRANCH  22  25
ENDBRANCH  18  19
ENDBRANCH   1  18
TORSDOF 16
ENDMDL
