MODEL 1
REMARK VINA RESULT:      -7.9      0.000      0.000
REMARK  Name = 
REMARK  8 active torsions:
REMARK  status: ('A' for Active; 'I' for Inactive)
REMARK    1  A    between atoms: C_1  and  C_2
REMARK    2  A    between atoms: C_4  and  C_5
REMARK    3  A    between atoms: N_7  and  C_8
REMARK    4  A    between atoms: C_8  and  C_9
REMARK    5  A    between atoms: C_13  and  C_14
REMARK    6  A    between atoms: C_19  and  N_20
REMARK    7  A    between atoms: N_20  and  C_21
REMARK    8  A    between atoms: N_20  and  C_22
REMARK                            x       y       z     vdW  Elec       q    Type
REMARK                         _______ _______ _______ _____ _____    ______ ____
ROOT
ATOM      1  C   UNL     1       6.516   4.467  16.492  0.00  0.00    +0.000 C 
ATOM      2  C   UNL     1       5.227   5.191  16.941  0.00  0.00    +0.000 C 
ATOM      3  N   UNL     1       4.991   5.105  18.408  0.00  0.00    +0.000 NA
ATOM      4  C   UNL     1       6.218   5.616  19.075  0.00  0.00    +0.000 C 
ATOM      5  C   UNL     1       7.544   5.019  18.547  0.00  0.00    +0.000 C 
ATOM      6  O   UNL     1       7.652   5.101  17.116  0.00  0.00    +0.000 OA
ENDROOT
BRANCH   1  10
ATOM      7  C   UNL     1       8.786   6.057  12.502  0.00  0.00    +0.000 C 
ATOM      8  C   UNL     1       7.717   5.208  13.120  0.00  0.00    +0.000 A 
ATOM      9  N   UNL     1       7.584   5.254  14.453  0.00  0.00    +0.000 NA
ATOM     10  C   UNL     1       6.638   4.454  14.984  0.00  0.00    +0.000 A 
ATOM     11  C   UNL     1       5.849   3.630  14.205  0.00  0.00    +0.000 A 
ATOM     12  C   UNL     1       6.034   3.645  12.833  0.00  0.00    +0.000 A 
ATOM     13  N   UNL     1       6.980   4.447  12.303  0.00  0.00    +0.000 NA
BRANCH  12  14
ATOM     14  N   UNL     1       5.336   2.777  12.000  0.00  0.00    +0.000 N 
ATOM     15  C   UNL     1       4.152   3.218  11.270  0.00  0.00    +0.000 C 
ATOM     16  C   UNL     1       6.083   1.690  11.372  0.00  0.00    +0.000 C 
ENDBRANCH  12  14
ENDBRANCH   1  10
BRANCH   3  17
ATOM     17  C   UNL     1       4.682   3.734  18.867  0.00  0.00    +0.000 C 
BRANCH  17  18
ATOM     18  C   UNL     1       3.214   3.413  18.959  0.00  0.00    +0.000 A 
ATOM     19  S   UNL     1       2.530   2.265  17.865  0.00  0.00    +0.000 S 
ATOM     20  C   UNL     1       1.006   2.476  18.604  0.00  0.00    +0.000 A 
ATOM     21  N   UNL     1       0.966   3.316  19.613  0.00  0.00    +0.000 NA
ATOM     22  C   UNL     1       2.223   3.869  19.821  0.00  0.00    +0.000 A 
ATOM     23  C   UNL     1       2.354   4.863  20.918  0.00  0.00    +0.000 C 
ENDBRANCH  17  18
ENDBRANCH   3  17
TORSDOF 4
ENDMDL
MODEL 2
REMARK VINA RESULT:      -7.9      0.920      1.132
REMARK  Name = 
REMARK  8 active torsions:
REMARK  status: ('A' for Active; 'I' for Inactive)
REMARK    1  A    between atoms: C_1  and  C_2
REMARK    2  A    between atoms: C_4  and  C_5
REMARK    3  A    between atoms: N_7  and  C_8
REMARK    4  A    between atoms: C_8  and  C_9
REMARK    5  A    between atoms: C_13  and  C_14
REMARK    6  A    between atoms: C_19  and  N_20
REMARK    7  A    between atoms: N_20  and  C_21
REMARK    8  A    between atoms: N_20  and  C_22
REMARK                            x       y       z     vdW  Elec       q    Type
REMARK                         _______ _______ _______ _____ _____    ______ ____
ROOT
ATOM      1  C   UNL     1       6.426   4.387  16.461  0.00  0.00    +0.000 C 
ATOM      2  C   UNL     1       5.123   5.102  16.883  0.00  0.00    +0.000 C 
ATOM      3  N   UNL     1       4.850   5.001  18.344  0.00  0.00    +0.000 NA
ATOM      4  C   UNL     1       6.057   5.509  19.047  0.00  0.00    +0.000 C 
ATOM      5  C   UNL     1       7.398   4.921  18.547  0.00  0.00    +0.000 C 
ATOM      6  O   UNL     1       7.543   5.017  17.120  0.00  0.00    +0.000 OA
ENDROOT
BRANCH   1  10
ATOM      7  C   UNL     1       8.781   6.037  12.545  0.00  0.00    +0.000 C 
ATOM      8  C   UNL     1       7.705   5.171  13.128  0.00  0.00    +0.000 A 
ATOM      9  N   UNL     1       7.538   5.203  14.458  0.00  0.00    +0.000 NA
ATOM     10  C   UNL     1       6.586   4.389  14.956  0.00  0.00    +0.000 A 
ATOM     11  C   UNL     1       5.826   3.564  14.150  0.00  0.00    +0.000 A 
ATOM     12  C   UNL     1       6.046   3.595  12.784  0.00  0.00    +0.000 A 
ATOM     13  N   UNL     1       6.997   4.411  12.285  0.00  0.00    +0.000 NA
BRANCH  12  14
ATOM     14  N   UNL     1       5.379   2.728  11.925  0.00  0.00    +0.000 N 
ATOM     15  C   UNL     1       4.189   3.153  11.195  0.00  0.00    +0.000 C 
ATOM     16  C   UNL     1       6.160   1.676  11.279  0.00  0.00    +0.000 C 
ENDBRANCH  12  14
ENDBRANCH   1  10
BRANCH   3  17
ATOM     17  C   UNL     1       4.533   3.625  18.780  0.00  0.00    +0.000 C 
BRANCH  17  18
ATOM     18  C   UNL     1       3.182   3.459  19.424  0.00  0.00    +0.000 A 
ATOM     19  S   UNL     1       3.080   2.799  21.017  0.00  0.00    +0.000 S 
ATOM     20  C   UNL     1       1.382   2.965  20.972  0.00  0.00    +0.000 A 
ATOM     21  N   UNL     1       0.883   3.490  19.877  0.00  0.00    +0.000 NA
ATOM     22  C   UNL     1       1.903   3.769  18.976  0.00  0.00    +0.000 A 
ATOM     23  C   UNL     1       1.510   4.352  17.666  0.00  0.00    +0.000 C 
ENDBRANCH  17  18
ENDBRANCH   3  17
TORSDOF 4
ENDMDL
MODEL 3
REMARK VINA RESULT:      -7.4      1.024      1.559
REMARK  Name = 
REMARK  8 active torsions:
REMARK  status: ('A' for Active; 'I' for Inactive)
REMARK    1  A    between atoms: C_1  and  C_2
REMARK    2  A    between atoms: C_4  and  C_5
REMARK    3  A    between atoms: N_7  and  C_8
REMARK    4  A    between atoms: C_8  and  C_9
REMARK    5  A    between atoms: C_13  and  C_14
REMARK    6  A    between atoms: C_19  and  N_20
REMARK    7  A    between atoms: N_20  and  C_21
REMARK    8  A    between atoms: N_20  and  C_22
REMARK                            x       y       z     vdW  Elec       q    Type
REMARK                         _______ _______ _______ _____ _____    ______ ____
ROOT
ATOM      1  C   UNL     1       6.464   4.441  16.176  0.00  0.00    +0.000 C 
ATOM      2  C   UNL     1       5.373   5.447  16.606  0.00  0.00    +0.000 C 
ATOM      3  N   UNL     1       5.041   5.363  18.056  0.00  0.00    +0.000 NA
ATOM      4  C   UNL     1       6.318   5.522  18.802  0.00  0.00    +0.000 C 
ATOM      5  C   UNL     1       7.480   4.633  18.300  0.00  0.00    +0.000 C 
ATOM      6  O   UNL     1       7.685   4.743  16.882  0.00  0.00    +0.000 OA
ENDROOT
BRANCH   1  10
ATOM      7  C   UNL     1       8.880   6.175  12.334  0.00  0.00    +0.000 C 
ATOM      8  C   UNL     1       7.808   5.281  12.883  0.00  0.00    +0.000 A 
ATOM      9  N   UNL     1       7.608   5.298  14.208  0.00  0.00    +0.000 NA
ATOM     10  C   UNL     1       6.662   4.460  14.676  0.00  0.00    +0.000 A 
ATOM     11  C   UNL     1       5.940   3.625  13.844  0.00  0.00    +0.000 A 
ATOM     12  C   UNL     1       6.194   3.672  12.484  0.00  0.00    +0.000 A 
ATOM     13  N   UNL     1       7.140   4.513  12.016  0.00  0.00    +0.000 NA
BRANCH  12  14
ATOM     14  N   UNL     1       5.568   2.798  11.603  0.00  0.00    +0.000 N 
ATOM     15  C   UNL     1       6.015   1.416  11.462  0.00  0.00    +0.000 C 
ATOM     16  C   UNL     1       4.155   3.025  11.307  0.00  0.00    +0.000 C 
ENDBRANCH  12  14
ENDBRANCH   1  10
BRANCH   3  17
ATOM     17  C   UNL     1       4.375   4.097  18.426  0.00  0.00    +0.000 C 
BRANCH  17  18
ATOM     18  C   UNL     1       3.110   4.256  19.226  0.00  0.00    +0.000 A 
ATOM     19  S   UNL     1       2.713   5.804  19.881  0.00  0.00    +0.000 S 
ATOM     20  C   UNL     1       1.282   5.152  20.544  0.00  0.00    +0.000 A 
ATOM     21  N   UNL     1       1.062   3.880  20.302  0.00  0.00    +0.000 NA
ATOM     22  C   UNL     1       2.108   3.351  19.556  0.00  0.00    +0.000 A 
ATOM     23  C   UNL     1       2.031   1.907  19.209  0.00  0.00    +0.000 C 
ENDBRANCH  17  18
ENDBRANCH   3  17
TORSDOF 4
ENDMDL
MODEL 4
REMARK VINA RESULT:      -7.4      4.572      8.597
REMARK  Name = 
REMARK  8 active torsions:
REMARK  status: ('A' for Active; 'I' for Inactive)
REMARK    1  A    between atoms: C_1  and  C_2
REMARK    2  A    between atoms: C_4  and  C_5
REMARK    3  A    between atoms: N_7  and  C_8
REMARK    4  A    between atoms: C_8  and  C_9
REMARK    5  A    between atoms: C_13  and  C_14
REMARK    6  A    between atoms: C_19  and  N_20
REMARK    7  A    between atoms: N_20  and  C_21
REMARK    8  A    between atoms: N_20  and  C_22
REMARK                            x       y       z     vdW  Elec       q    Type
REMARK                         _______ _______ _______ _____ _____    ______ ____
ROOT
ATOM      1  C   UNL     1       2.360   6.847  19.912  0.00  0.00    +0.000 C 
ATOM      2  C   UNL     1       2.472   6.623  18.387  0.00  0.00    +0.000 C 
ATOM      3  N   UNL     1       3.334   5.463  18.030  0.00  0.00    +0.000 NA
ATOM      4  C   UNL     1       2.800   4.284  18.762  0.00  0.00    +0.000 C 
ATOM      5  C   UNL     1       2.535   4.517  20.268  0.00  0.00    +0.000 C 
ATOM      6  O   UNL     1       1.741   5.690  20.512  0.00  0.00    +0.000 OA
ENDROOT
BRANCH   1  10
ATOM      7  C   UNL     1      -0.075   9.535  23.144  0.00  0.00    +0.000 C 
ATOM      8  C   UNL     1       0.461   9.369  21.754  0.00  0.00    +0.000 A 
ATOM      9  N   UNL     1       1.099   8.225  21.470  0.00  0.00    +0.000 NA
ATOM     10  C   UNL     1       1.599   8.117  20.223  0.00  0.00    +0.000 A 
ATOM     11  C   UNL     1       1.470   9.126  19.288  0.00  0.00    +0.000 A 
ATOM     12  C   UNL     1       0.788  10.275  19.649  0.00  0.00    +0.000 A 
ATOM     13  N   UNL     1       0.285  10.381  20.897  0.00  0.00    +0.000 NA
BRANCH  12  14
ATOM     14  N   UNL     1       0.698  11.363  18.788  0.00  0.00    +0.000 N 
ATOM     15  C   UNL     1      -0.544  12.116  18.648  0.00  0.00    +0.000 C 
ATOM     16  C   UNL     1       1.917  12.122  18.522  0.00  0.00    +0.000 C 
ENDBRANCH  12  14
ENDBRANCH   1  10
BRANCH   3  17
ATOM     17  C   UNL     1       4.760   5.677  18.357  0.00  0.00    +0.000 C 
BRANCH  17  18
ATOM     18  C   UNL     1       5.712   5.464  17.211  0.00  0.00    +0.000 A 
ATOM     19  S   UNL     1       5.382   4.223  16.056  0.00  0.00    +0.000 S 
ATOM     20  C   UNL     1       6.797   4.648  15.202  0.00  0.00    +0.000 A 
ATOM     21  N   UNL     1       7.487   5.651  15.693  0.00  0.00    +0.000 NA
ATOM     22  C   UNL     1       6.883   6.122  16.852  0.00  0.00    +0.000 A 
ATOM     23  C   UNL     1       7.549   7.251  17.554  0.00  0.00    +0.000 C 
ENDBRANCH  17  18
ENDBRANCH   3  17
TORSDOF 4
ENDMDL
MODEL 5
REMARK VINA RESULT:      -7.4      1.110      1.406
REMARK  Name = 
REMARK  8 active torsions:
REMARK  status: ('A' for Active; 'I' for Inactive)
REMARK    1  A    between atoms: C_1  and  C_2
REMARK    2  A    between atoms: C_4  and  C_5
REMARK    3  A    between atoms: N_7  and  C_8
REMARK    4  A    between atoms: C_8  and  C_9
REMARK    5  A    between atoms: C_13  and  C_14
REMARK    6  A    between atoms: C_19  and  N_20
REMARK    7  A    between atoms: N_20  and  C_21
REMARK    8  A    between atoms: N_20  and  C_22
REMARK                            x       y       z     vdW  Elec       q    Type
REMARK                         _______ _______ _______ _____ _____    ______ ____
ROOT
ATOM      1  C   UNL     1       6.502   4.453  16.181  0.00  0.00    +0.000 C 
ATOM      2  C   UNL     1       5.362   5.403  16.613  0.00  0.00    +0.000 C 
ATOM      3  N   UNL     1       5.042   5.306  18.064  0.00  0.00    +0.000 NA
ATOM      4  C   UNL     1       6.312   5.532  18.804  0.00  0.00    +0.000 C 
ATOM      5  C   UNL     1       7.516   4.703  18.300  0.00  0.00    +0.000 C 
ATOM      6  O   UNL     1       7.709   4.819  16.881  0.00  0.00    +0.000 OA
ENDROOT
BRANCH   1  10
ATOM      7  C   UNL     1       8.923   6.174  12.336  0.00  0.00    +0.000 C 
ATOM      8  C   UNL     1       7.842   5.293  12.885  0.00  0.00    +0.000 A 
ATOM      9  N   UNL     1       7.648   5.305  14.212  0.00  0.00    +0.000 NA
ATOM     10  C   UNL     1       6.692   4.478  14.680  0.00  0.00    +0.000 A 
ATOM     11  C   UNL     1       5.954   3.659  13.847  0.00  0.00    +0.000 A 
ATOM     12  C   UNL     1       6.201   3.710  12.486  0.00  0.00    +0.000 A 
ATOM     13  N   UNL     1       7.157   4.540  12.018  0.00  0.00    +0.000 NA
BRANCH  12  14
ATOM     14  N   UNL     1       5.557   2.851  11.602  0.00  0.00    +0.000 N 
ATOM     15  C   UNL     1       5.988   1.466  11.445  0.00  0.00    +0.000 C 
ATOM     16  C   UNL     1       4.145   3.096  11.322  0.00  0.00    +0.000 C 
ENDBRANCH  12  14
ENDBRANCH   1  10
BRANCH   3  17
ATOM     17  C   UNL     1       4.444   4.008  18.441  0.00  0.00    +0.000 C 
BRANCH  17  18
ATOM     18  C   UNL     1       3.460   4.070  19.579  0.00  0.00    +0.000 A 
ATOM     19  S   UNL     1       3.206   2.667  20.554  0.00  0.00    +0.000 S 
ATOM     20  C   UNL     1       2.079   3.533  21.499  0.00  0.00    +0.000 A 
ATOM     21  N   UNL     1       1.888   4.788  21.162  0.00  0.00    +0.000 NA
ATOM     22  C   UNL     1       2.666   5.107  20.055  0.00  0.00    +0.000 A 
ATOM     23  C   UNL     1       2.556   6.491  19.525  0.00  0.00    +0.000 C 
ENDBRANCH  17  18
ENDBRANCH   3  17
TORSDOF 4
ENDMDL
MODEL 6
REMARK VINA RESULT:      -7.3      0.661      1.006
REMARK  Name = 
REMARK  8 active torsions:
REMARK  status: ('A' for Active; 'I' for Inactive)
REMARK    1  A    between atoms: C_1  and  C_2
REMARK    2  A    between atoms: C_4  and  C_5
REMARK    3  A    between atoms: N_7  and  C_8
REMARK    4  A    between atoms: C_8  and  C_9
REMARK    5  A    between atoms: C_13  and  C_14
REMARK    6  A    between atoms: C_19  and  N_20
REMARK    7  A    between atoms: N_20  and  C_21
REMARK    8  A    between atoms: N_20  and  C_22
REMARK                            x       y       z     vdW  Elec       q    Type
REMARK                         _______ _______ _______ _____ _____    ______ ____
ROOT
ATOM      1  C   UNL     1       6.493   4.408  16.281  0.00  0.00    +0.000 C 
ATOM      2  C   UNL     1       5.178   5.105  16.693  0.00  0.00    +0.000 C 
ATOM      3  N   UNL     1       4.872   4.964  18.143  0.00  0.00    +0.000 NA
ATOM      4  C   UNL     1       6.061   5.458  18.887  0.00  0.00    +0.000 C 
ATOM      5  C   UNL     1       7.416   4.891  18.401  0.00  0.00    +0.000 C 
ATOM      6  O   UNL     1       7.592   5.026  16.982  0.00  0.00    +0.000 OA
ENDROOT
BRANCH   1  10
ATOM      7  C   UNL     1       8.957   6.137  12.467  0.00  0.00    +0.000 C 
ATOM      8  C   UNL     1       7.857   5.270  13.001  0.00  0.00    +0.000 A 
ATOM      9  N   UNL     1       7.661   5.266  14.327  0.00  0.00    +0.000 NA
ATOM     10  C   UNL     1       6.687   4.451  14.781  0.00  0.00    +0.000 A 
ATOM     11  C   UNL     1       5.934   3.661  13.934  0.00  0.00    +0.000 A 
ATOM     12  C   UNL     1       6.185   3.727  12.574  0.00  0.00    +0.000 A 
ATOM     13  N   UNL     1       7.159   4.544  12.121  0.00  0.00    +0.000 NA
BRANCH  12  14
ATOM     14  N   UNL     1       5.526   2.895  11.676  0.00  0.00    +0.000 N 
ATOM     15  C   UNL     1       5.926   1.503  11.502  0.00  0.00    +0.000 C 
ATOM     16  C   UNL     1       4.120   3.176  11.395  0.00  0.00    +0.000 C 
ENDBRANCH  12  14
ENDBRANCH   1  10
BRANCH   3  17
ATOM     17  C   UNL     1       4.553   3.574  18.536  0.00  0.00    +0.000 C 
BRANCH  17  18
ATOM     18  C   UNL     1       3.100   3.317  18.830  0.00  0.00    +0.000 A 
ATOM     19  S   UNL     1       1.930   3.545  17.580  0.00  0.00    +0.000 S 
ATOM     20  C   UNL     1       0.693   3.069  18.655  0.00  0.00    +0.000 A 
ATOM     21  N   UNL     1       1.079   2.734  19.864  0.00  0.00    +0.000 NA
ATOM     22  C   UNL     1       2.456   2.881  19.983  0.00  0.00    +0.000 A 
ATOM     23  C   UNL     1       3.062   2.563  21.302  0.00  0.00    +0.000 C 
ENDBRANCH  17  18
ENDBRANCH   3  17
TORSDOF 4
ENDMDL
MODEL 7
REMARK VINA RESULT:      -7.3      4.041      8.326
REMARK  Name = 
REMARK  8 active torsions:
REMARK  status: ('A' for Active; 'I' for Inactive)
REMARK    1  A    between atoms: C_1  and  C_2
REMARK    2  A    between atoms: C_4  and  C_5
REMARK    3  A    between atoms: N_7  and  C_8
REMARK    4  A    between atoms: C_8  and  C_9
REMARK    5  A    between atoms: C_13  and  C_14
REMARK    6  A    between atoms: C_19  and  N_20
REMARK    7  A    between atoms: N_20  and  C_21
REMARK    8  A    between atoms: N_20  and  C_22
REMARK                            x       y       z     vdW  Elec       q    Type
REMARK                         _______ _______ _______ _____ _____    ______ ____
ROOT
ATOM      1  C   UNL     1       2.478   6.026  20.127  0.00  0.00    +0.000 C 
ATOM      2  C   UNL     1       2.646   5.453  18.702  0.00  0.00    +0.000 C 
ATOM      3  N   UNL     1       3.332   4.132  18.682  0.00  0.00    +0.000 NA
ATOM      4  C   UNL     1       2.572   3.235  19.592  0.00  0.00    +0.000 C 
ATOM      5  C   UNL     1       2.256   3.835  20.983  0.00  0.00    +0.000 C 
ATOM      6  O   UNL     1       1.646   5.133  20.897  0.00  0.00    +0.000 OA
ENDROOT
BRANCH   1  10
ATOM      7  C   UNL     1       1.786  10.150  17.655  0.00  0.00    +0.000 C 
ATOM      8  C   UNL     1       1.593   9.357  18.912  0.00  0.00    +0.000 A 
ATOM      9  N   UNL     1       2.131   8.131  18.959  0.00  0.00    +0.000 NA
ATOM     10  C   UNL     1       1.912   7.428  20.089  0.00  0.00    +0.000 A 
ATOM     11  C   UNL     1       1.173   7.936  21.139  0.00  0.00    +0.000 A 
ATOM     12  C   UNL     1       0.658   9.216  21.025  0.00  0.00    +0.000 A 
ATOM     13  N   UNL     1       0.880   9.919  19.895  0.00  0.00    +0.000 NA
BRANCH  12  14
ATOM     14  N   UNL     1      -0.167   9.753  22.006  0.00  0.00    +0.000 N 
ATOM     15  C   UNL     1       0.032   9.440  23.417  0.00  0.00    +0.000 C 
ATOM     16  C   UNL     1      -0.784  11.051  21.741  0.00  0.00    +0.000 C 
ENDBRANCH  12  14
ENDBRANCH   1  10
BRANCH   3  17
ATOM     17  C   UNL     1       4.751   4.208  19.091  0.00  0.00    +0.000 C 
BRANCH  17  18
ATOM     18  C   UNL     1       5.720   4.468  17.969  0.00  0.00    +0.000 A 
ATOM     19  S   UNL     1       5.323   3.949  16.370  0.00  0.00    +0.000 S 
ATOM     20  C   UNL     1       6.799   4.588  15.801  0.00  0.00    +0.000 A 
ATOM     21  N   UNL     1       7.557   5.175  16.698  0.00  0.00    +0.000 NA
ATOM     22  C   UNL     1       6.956   5.104  17.948  0.00  0.00    +0.000 A 
ATOM     23  C   UNL     1       7.694   5.705  19.091  0.00  0.00    +0.000 C 
ENDBRANCH  17  18
ENDBRANCH   3  17
TORSDOF 4
ENDMDL
MODEL 8
REMARK VINA RESULT:      -7.3      1.309      1.719
REMARK  Name = 
REMARK  8 active torsions:
REMARK  status: ('A' for Active; 'I' for Inactive)
REMARK    1  A    between atoms: C_1  and  C_2
REMARK    2  A    between atoms: C_4  and  C_5
REMARK    3  A    between atoms: N_7  and  C_8
REMARK    4  A    between atoms: C_8  and  C_9
REMARK    5  A    between atoms: C_13  and  C_14
REMARK    6  A    between atoms: C_19  and  N_20
REMARK    7  A    between atoms: N_20  and  C_21
REMARK    8  A    between atoms: N_20  and  C_22
REMARK                            x       y       z     vdW  Elec       q    Type
REMARK                         _______ _______ _______ _____ _____    ______ ____
ROOT
ATOM      1  C   UNL     1       5.961   4.261  16.262  0.00  0.00    +0.000 C 
ATOM      2  C   UNL     1       4.626   4.990  16.527  0.00  0.00    +0.000 C 
ATOM      3  N   UNL     1       4.148   4.840  17.930  0.00  0.00    +0.000 NA
ATOM      4  C   UNL     1       5.254   5.292  18.815  0.00  0.00    +0.000 C 
ATOM      5  C   UNL     1       6.641   4.692  18.483  0.00  0.00    +0.000 C 
ATOM      6  O   UNL     1       6.986   4.838  17.096  0.00  0.00    +0.000 OA
ENDROOT
BRANCH   1  10
ATOM      7  C   UNL     1       8.881   5.992  12.786  0.00  0.00    +0.000 C 
ATOM      8  C   UNL     1       7.714   5.136  13.176  0.00  0.00    +0.000 A 
ATOM      9  N   UNL     1       7.362   5.121  14.469  0.00  0.00    +0.000 NA
ATOM     10  C   UNL     1       6.331   4.316  14.796  0.00  0.00    +0.000 A 
ATOM     11  C   UNL     1       5.673   3.546  13.857  0.00  0.00    +0.000 A 
ATOM     12  C   UNL     1       6.084   3.622  12.537  0.00  0.00    +0.000 A 
ATOM     13  N   UNL     1       7.115   4.429  12.211  0.00  0.00    +0.000 NA
BRANCH  12  14
ATOM     14  N   UNL     1       5.524   2.809  11.558  0.00  0.00    +0.000 N 
ATOM     15  C   UNL     1       5.990   1.441  11.354  0.00  0.00    +0.000 C 
ATOM     16  C   UNL     1       4.133   3.052  11.185  0.00  0.00    +0.000 C 
ENDBRANCH  12  14
ENDBRANCH   1  10
BRANCH   3  17
ATOM     17  C   UNL     1       3.748   3.456  18.261  0.00  0.00    +0.000 C 
BRANCH  17  18
ATOM     18  C   UNL     1       3.164   3.277  19.637  0.00  0.00    +0.000 A 
ATOM     19  S   UNL     1       1.699   4.096  20.047  0.00  0.00    +0.000 S 
ATOM     20  C   UNL     1       1.749   3.395  21.603  0.00  0.00    +0.000 A 
ATOM     21  N   UNL     1       2.754   2.585  21.838  0.00  0.00    +0.000 NA
ATOM     22  C   UNL     1       3.581   2.516  20.723  0.00  0.00    +0.000 A 
ATOM     23  C   UNL     1       4.787   1.654  20.825  0.00  0.00    +0.000 C 
ENDBRANCH  17  18
ENDBRANCH   3  17
TORSDOF 4
ENDMDL
MODEL 9
REMARK VINA RESULT:      -7.1      1.363      1.533
REMARK  Name = 
REMARK  8 active torsions:
REMARK  status: ('A' for Active; 'I' for Inactive)
REMARK    1  A    between atoms: C_1  and  C_2
REMARK    2  A    between atoms: C_4  and  C_5
REMARK    3  A    between atoms: N_7  and  C_8
REMARK    4  A    between atoms: C_8  and  C_9
REMARK    5  A    between atoms: C_13  and  C_14
REMARK    6  A    between atoms: C_19  and  N_20
REMARK    7  A    between atoms: N_20  and  C_21
REMARK    8  A    between atoms: N_20  and  C_22
REMARK                            x       y       z     vdW  Elec       q    Type
REMARK                         _______ _______ _______ _____ _____    ______ ____
ROOT
ATOM      1  C   UNL     1       6.587   4.534  16.204  0.00  0.00    +0.000 C 
ATOM      2  C   UNL     1       5.708   5.717  16.666  0.00  0.00    +0.000 C 
ATOM      3  N   UNL     1       5.476   5.732  18.137  0.00  0.00    +0.000 NA
ATOM      4  C   UNL     1       6.813   5.700  18.787  0.00  0.00    +0.000 C 
ATOM      5  C   UNL     1       7.776   4.618  18.244  0.00  0.00    +0.000 C 
ATOM      6  O   UNL     1       7.890   4.651  16.812  0.00  0.00    +0.000 OA
ENDROOT
BRANCH   1  10
ATOM      7  C   UNL     1       8.604   6.178  12.101  0.00  0.00    +0.000 C 
ATOM      8  C   UNL     1       7.633   5.257  12.777  0.00  0.00    +0.000 A 
ATOM      9  N   UNL     1       7.529   5.340  14.111  0.00  0.00    +0.000 NA
ATOM     10  C   UNL     1       6.674   4.476  14.694  0.00  0.00    +0.000 A 
ATOM     11  C   UNL     1       5.948   3.554  13.966  0.00  0.00    +0.000 A 
ATOM     12  C   UNL     1       6.098   3.536  12.590  0.00  0.00    +0.000 A 
ATOM     13  N   UNL     1       6.953   4.401  12.007  0.00  0.00    +0.000 NA
BRANCH  12  14
ATOM     14  N   UNL     1       5.466   2.576  11.807  0.00  0.00    +0.000 N 
ATOM     15  C   UNL     1       4.158   2.829  11.211  0.00  0.00    +0.000 C 
ATOM     16  C   UNL     1       6.307   1.630  11.078  0.00  0.00    +0.000 C 
ENDBRANCH  12  14
ENDBRANCH   1  10
BRANCH   3  17
ATOM     17  C   UNL     1       4.643   4.603  18.603  0.00  0.00    +0.000 C 
BRANCH  17  18
ATOM     18  C   UNL     1       3.431   4.998  19.403  0.00  0.00    +0.000 A 
ATOM     19  S   UNL     1       2.732   6.560  19.165  0.00  0.00    +0.000 S 
ATOM     20  C   UNL     1       1.537   6.198  20.328  0.00  0.00    +0.000 A 
ATOM     21  N   UNL     1       1.600   5.002  20.867  0.00  0.00    +0.000 NA
ATOM     22  C   UNL     1       2.688   4.307  20.354  0.00  0.00    +0.000 A 
ATOM     23  C   UNL     1       2.922   2.934  20.875  0.00  0.00    +0.000 C 
ENDBRANCH  17  18
ENDBRANCH   3  17
TORSDOF 4
ENDMDL
