MODEL 1
REMARK VINA RESULT:      -9.0      0.000      0.000
REMARK  Name = 
REMARK  3 active torsions:
REMARK  status: ('A' for Active; 'I' for Inactive)
REMARK    1  A    between atoms: C_5  and  C_6
REMARK    2  A    between atoms: C_6  and  N_7
REMARK    3  A    between atoms: C_12  and  C_13
REMARK                            x       y       z     vdW  Elec       q    Type
REMARK                         _______ _______ _______ _____ _____    ______ ____
ROOT
ATOM      1  N   UNL     1       1.245   6.340  20.727  0.00  0.00    +0.000 N 
ATOM      2  C   UNL     1       2.125   5.268  20.487  0.00  0.00    +0.000 A 
ATOM      3  C   UNL     1       1.882   4.070  21.127  0.00  0.00    +0.000 A 
ATOM      4  C   UNL     1       2.731   3.031  20.830  0.00  0.00    +0.000 A 
ATOM      5  N   UNL     1       3.717   3.121  19.925  0.00  0.00    +0.000 NA
ATOM      6  C   UNL     1       3.860   4.313  19.318  0.00  0.00    +0.000 A 
ATOM      7  N   UNL     1       3.105   5.398  19.583  0.00  0.00    +0.000 NA
ATOM      8  H   UNL     1       0.423   6.183  20.149  0.00  0.00    +0.000 HD
ENDROOT
BRANCH   6   9
ATOM      9  C   UNL     1       4.885   4.436  18.262  0.00  0.00    +0.000 A 
ATOM     10  C   UNL     1       6.237   4.741  18.582  0.00  0.00    +0.000 A 
ATOM     11  C   UNL     1       7.224   4.862  17.596  0.00  0.00    +0.000 A 
ATOM     12  C   UNL     1       6.841   4.681  16.288  0.00  0.00    +0.000 A 
ATOM     13  C   UNL     1       5.548   4.379  15.951  0.00  0.00    +0.000 A 
ATOM     14  C   UNL     1       4.557   4.246  16.903  0.00  0.00    +0.000 A 
ATOM     15  O   UNL     1       5.377   4.239  14.608  0.00  0.00    +0.000 OA
ATOM     16  C   UNL     1       6.709   4.534  14.137  0.00  0.00    +0.000 C 
ATOM     17  O   UNL     1       7.655   4.771  15.203  0.00  0.00    +0.000 OA
ENDBRANCH   6   9
BRANCH   1  18
ATOM     18  C   UNL     1       1.834   7.647  20.457  0.00  0.00    +0.000 C 
BRANCH  18  23
ATOM     19 CL   UNL     1      -1.686  11.909  22.934  0.00  0.00    +0.000 Cl
ATOM     20  C   UNL     1      -0.694  10.713  22.178  0.00  0.00    +0.000 A 
ATOM     21  C   UNL     1      -0.041   9.793  23.004  0.00  0.00    +0.000 A 
ATOM     22  C   UNL     1       0.780   8.808  22.449  0.00  0.00    +0.000 A 
ATOM     23  C   UNL     1       0.961   8.727  21.062  0.00  0.00    +0.000 A 
ATOM     24  C   UNL     1       0.291   9.650  20.239  0.00  0.00    +0.000 A 
ATOM     25  C   UNL     1      -0.528  10.641  20.792  0.00  0.00    +0.000 A 
ATOM     26 CL   UNL     1      -1.304  11.740  19.708  0.00  0.00    +0.000 Cl
ENDBRANCH  18  23
ENDBRANCH   1  18
TORSDOF 3
ENDMDL
MODEL 2
REMARK VINA RESULT:      -8.8      0.571      1.422
REMARK  Name = 
REMARK  3 active torsions:
REMARK  status: ('A' for Active; 'I' for Inactive)
REMARK    1  A    between atoms: C_5  and  C_6
REMARK    2  A    between atoms: C_6  and  N_7
REMARK    3  A    between atoms: C_12  and  C_13
REMARK                            x       y       z     vdW  Elec       q    Type
REMARK                         _______ _______ _______ _____ _____    ______ ____
ROOT
ATOM      1  N   UNL     1       1.221   6.403  20.774  0.00  0.00    +0.000 N 
ATOM      2  C   UNL     1       1.968   5.269  20.406  0.00  0.00    +0.000 A 
ATOM      3  C   UNL     1       1.541   4.035  20.853  0.00  0.00    +0.000 A 
ATOM      4  C   UNL     1       2.265   2.945  20.432  0.00  0.00    +0.000 A 
ATOM      5  N   UNL     1       3.300   3.031  19.584  0.00  0.00    +0.000 NA
ATOM      6  C   UNL     1       3.626   4.268  19.166  0.00  0.00    +0.000 A 
ATOM      7  N   UNL     1       3.003   5.394  19.565  0.00  0.00    +0.000 NA
ATOM      8  H   UNL     1       0.417   6.442  20.152  0.00  0.00    +0.000 HD
ENDROOT
BRANCH   6   9
ATOM      9  C   UNL     1       4.712   4.402  18.175  0.00  0.00    +0.000 A 
ATOM     10  C   UNL     1       6.046   4.680  18.580  0.00  0.00    +0.000 A 
ATOM     11  C   UNL     1       7.091   4.811  17.657  0.00  0.00    +0.000 A 
ATOM     12  C   UNL     1       6.782   4.668  16.324  0.00  0.00    +0.000 A 
ATOM     13  C   UNL     1       5.508   4.392  15.905  0.00  0.00    +0.000 A 
ATOM     14  C   UNL     1       4.461   4.249  16.795  0.00  0.00    +0.000 A 
ATOM     15  O   UNL     1       5.414   4.287  14.551  0.00  0.00    +0.000 OA
ATOM     16  C   UNL     1       6.775   4.575  14.166  0.00  0.00    +0.000 C 
ATOM     17  O   UNL     1       7.659   4.773  15.291  0.00  0.00    +0.000 OA
ENDBRANCH   6   9
BRANCH   1  18
ATOM     18  C   UNL     1       1.985   7.645  20.721  0.00  0.00    +0.000 C 
BRANCH  18  23
ATOM     19 CL   UNL     1      -1.773  12.388  20.446  0.00  0.00    +0.000 Cl
ATOM     20  C   UNL     1      -0.712  11.030  20.577  0.00  0.00    +0.000 A 
ATOM     21  C   UNL     1      -0.039  10.617  19.424  0.00  0.00    +0.000 A 
ATOM     22  C   UNL     1       0.827   9.521  19.469  0.00  0.00    +0.000 A 
ATOM     23  C   UNL     1       1.032   8.821  20.665  0.00  0.00    +0.000 A 
ATOM     24  C   UNL     1       0.358   9.251  21.823  0.00  0.00    +0.000 A 
ATOM     25  C   UNL     1      -0.513  10.346  21.780  0.00  0.00    +0.000 A 
ATOM     26 CL   UNL     1      -1.307  10.800  23.246  0.00  0.00    +0.000 Cl
ENDBRANCH  18  23
ENDBRANCH   1  18
TORSDOF 3
ENDMDL
MODEL 3
REMARK VINA RESULT:      -8.7      5.080      8.430
REMARK  Name = 
REMARK  3 active torsions:
REMARK  status: ('A' for Active; 'I' for Inactive)
REMARK    1  A    between atoms: C_5  and  C_6
REMARK    2  A    between atoms: C_6  and  N_7
REMARK    3  A    between atoms: C_12  and  C_13
REMARK                            x       y       z     vdW  Elec       q    Type
REMARK                         _______ _______ _______ _____ _____    ______ ____
ROOT
ATOM      1  N   UNL     1       6.209   4.227  18.751  0.00  0.00    +0.000 N 
ATOM      2  C   UNL     1       4.837   4.370  19.026  0.00  0.00    +0.000 A 
ATOM      3  C   UNL     1       4.141   3.260  19.461  0.00  0.00    +0.000 A 
ATOM      4  C   UNL     1       2.815   3.448  19.769  0.00  0.00    +0.000 A 
ATOM      5  N   UNL     1       2.209   4.643  19.720  0.00  0.00    +0.000 NA
ATOM      6  C   UNL     1       2.971   5.680  19.325  0.00  0.00    +0.000 A 
ATOM      7  N   UNL     1       4.264   5.578  18.958  0.00  0.00    +0.000 NA
ATOM      8  H   UNL     1       6.695   4.257  19.645  0.00  0.00    +0.000 HD
ENDROOT
BRANCH   6   9
ATOM      9  C   UNL     1       2.365   7.026  19.327  0.00  0.00    +0.000 A 
ATOM     10  C   UNL     1       2.365   7.835  18.157  0.00  0.00    +0.000 A 
ATOM     11  C   UNL     1       1.796   9.114  18.138  0.00  0.00    +0.000 A 
ATOM     12  C   UNL     1       1.235   9.577  19.305  0.00  0.00    +0.000 A 
ATOM     13  C   UNL     1       1.214   8.818  20.445  0.00  0.00    +0.000 A 
ATOM     14  C   UNL     1       1.759   7.550  20.489  0.00  0.00    +0.000 A 
ATOM     15  O   UNL     1       0.613   9.456  21.486  0.00  0.00    +0.000 OA
ATOM     16  C   UNL     1       0.298  10.726  20.876  0.00  0.00    +0.000 C 
ATOM     17  O   UNL     1       0.650  10.792  19.477  0.00  0.00    +0.000 OA
ENDBRANCH   6   9
BRANCH   1  18
ATOM     18  C   UNL     1       6.729   5.241  17.839  0.00  0.00    +0.000 C 
BRANCH  18  23
ATOM     19 CL   UNL     1       5.901   3.338  12.149  0.00  0.00    +0.000 Cl
ATOM     20  C   UNL     1       6.177   3.913  13.754  0.00  0.00    +0.000 A 
ATOM     21  C   UNL     1       5.385   3.386  14.779  0.00  0.00    +0.000 A 
ATOM     22  C   UNL     1       5.559   3.819  16.097  0.00  0.00    +0.000 A 
ATOM     23  C   UNL     1       6.524   4.785  16.409  0.00  0.00    +0.000 A 
ATOM     24  C   UNL     1       7.323   5.301  15.373  0.00  0.00    +0.000 A 
ATOM     25  C   UNL     1       7.149   4.872  14.052  0.00  0.00    +0.000 A 
ATOM     26 CL   UNL     1       8.167   5.567  12.841  0.00  0.00    +0.000 Cl
ENDBRANCH  18  23
ENDBRANCH   1  18
TORSDOF 3
ENDMDL
MODEL 4
REMARK VINA RESULT:      -8.7      4.830      8.252
REMARK  Name = 
REMARK  3 active torsions:
REMARK  status: ('A' for Active; 'I' for Inactive)
REMARK    1  A    between atoms: C_5  and  C_6
REMARK    2  A    between atoms: C_6  and  N_7
REMARK    3  A    between atoms: C_12  and  C_13
REMARK                            x       y       z     vdW  Elec       q    Type
REMARK                         _______ _______ _______ _____ _____    ______ ____
ROOT
ATOM      1  N   UNL     1       6.092   4.051  18.761  0.00  0.00    +0.000 N 
ATOM      2  C   UNL     1       4.736   4.157  19.124  0.00  0.00    +0.000 A 
ATOM      3  C   UNL     1       4.076   3.010  19.515  0.00  0.00    +0.000 A 
ATOM      4  C   UNL     1       2.768   3.159  19.910  0.00  0.00    +0.000 A 
ATOM      5  N   UNL     1       2.151   4.347  19.983  0.00  0.00    +0.000 NA
ATOM      6  C   UNL     1       2.880   5.419  19.622  0.00  0.00    +0.000 A 
ATOM      7  N   UNL     1       4.150   5.360  19.176  0.00  0.00    +0.000 NA
ATOM      8  H   UNL     1       6.628   4.022  19.626  0.00  0.00    +0.000 HD
ENDROOT
BRANCH   6   9
ATOM      9  C   UNL     1       2.265   6.754  19.757  0.00  0.00    +0.000 A 
ATOM     10  C   UNL     1       1.587   7.135  20.948  0.00  0.00    +0.000 A 
ATOM     11  C   UNL     1       0.997   8.396  21.096  0.00  0.00    +0.000 A 
ATOM     12  C   UNL     1       1.088   9.268  20.036  0.00  0.00    +0.000 A 
ATOM     13  C   UNL     1       1.740   8.932  18.880  0.00  0.00    +0.000 A 
ATOM     14  C   UNL     1       2.338   7.699  18.711  0.00  0.00    +0.000 A 
ATOM     15  O   UNL     1       1.717   9.932  17.957  0.00  0.00    +0.000 OA
ATOM     16  C   UNL     1       0.933  10.922  18.655  0.00  0.00    +0.000 C 
ATOM     17  O   UNL     1       0.567  10.523  19.995  0.00  0.00    +0.000 OA
ENDBRANCH   6   9
BRANCH   1  18
ATOM     18  C   UNL     1       6.549   5.135  17.897  0.00  0.00    +0.000 C 
BRANCH  18  23
ATOM     19 CL   UNL     1       5.973   3.387  12.127  0.00  0.00    +0.000 Cl
ATOM     20  C   UNL     1       6.177   3.919  13.758  0.00  0.00    +0.000 A 
ATOM     21  C   UNL     1       5.340   3.367  14.732  0.00  0.00    +0.000 A 
ATOM     22  C   UNL     1       5.456   3.764  16.067  0.00  0.00    +0.000 A 
ATOM     23  C   UNL     1       6.408   4.718  16.448  0.00  0.00    +0.000 A 
ATOM     24  C   UNL     1       7.253   5.259  15.463  0.00  0.00    +0.000 A 
ATOM     25  C   UNL     1       7.137   4.867  14.124  0.00  0.00    +0.000 A 
ATOM     26 CL   UNL     1       8.209   5.591  12.979  0.00  0.00    +0.000 Cl
ENDBRANCH  18  23
ENDBRANCH   1  18
TORSDOF 3
ENDMDL
MODEL 5
REMARK VINA RESULT:      -8.6      0.968      1.044
REMARK  Name = 
REMARK  3 active torsions:
REMARK  status: ('A' for Active; 'I' for Inactive)
REMARK    1  A    between atoms: C_5  and  C_6
REMARK    2  A    between atoms: C_6  and  N_7
REMARK    3  A    between atoms: C_12  and  C_13
REMARK                            x       y       z     vdW  Elec       q    Type
REMARK                         _______ _______ _______ _____ _____    ______ ____
ROOT
ATOM      1  N   UNL     1       1.083   6.768  20.963  0.00  0.00    +0.000 N 
ATOM      2  C   UNL     1       1.922   5.735  20.505  0.00  0.00    +0.000 A 
ATOM      3  C   UNL     1       1.798   4.490  21.087  0.00  0.00    +0.000 A 
ATOM      4  C   UNL     1       2.597   3.493  20.580  0.00  0.00    +0.000 A 
ATOM      5  N   UNL     1       3.421   3.668  19.536  0.00  0.00    +0.000 NA
ATOM      6  C   UNL     1       3.450   4.903  19.002  0.00  0.00    +0.000 A 
ATOM      7  N   UNL     1       2.739   5.950  19.466  0.00  0.00    +0.000 NA
ATOM      8  H   UNL     1       0.178   6.635  20.516  0.00  0.00    +0.000 HD
ENDROOT
BRANCH   6   9
ATOM      9  C   UNL     1       4.287   5.122  17.805  0.00  0.00    +0.000 A 
ATOM     10  C   UNL     1       4.699   6.429  17.426  0.00  0.00    +0.000 A 
ATOM     11  C   UNL     1       5.492   6.658  16.295  0.00  0.00    +0.000 A 
ATOM     12  C   UNL     1       5.862   5.566  15.546  0.00  0.00    +0.000 A 
ATOM     13  C   UNL     1       5.486   4.295  15.891  0.00  0.00    +0.000 A 
ATOM     14  C   UNL     1       4.712   4.039  17.006  0.00  0.00    +0.000 A 
ATOM     15  O   UNL     1       5.955   3.357  15.023  0.00  0.00    +0.000 OA
ATOM     16  C   UNL     1       6.633   4.196  14.065  0.00  0.00    +0.000 C 
ATOM     17  O   UNL     1       6.616   5.597  14.415  0.00  0.00    +0.000 OA
ENDBRANCH   6   9
BRANCH   1  18
ATOM     18  C   UNL     1       1.607   8.104  20.697  0.00  0.00    +0.000 C 
BRANCH  18  23
ATOM     19 CL   UNL     1      -2.152  12.179  23.137  0.00  0.00    +0.000 Cl
ATOM     20  C   UNL     1      -1.087  11.040  22.393  0.00  0.00    +0.000 A 
ATOM     21  C   UNL     1      -0.528  10.047  23.203  0.00  0.00    +0.000 A 
ATOM     22  C   UNL     1       0.346   9.103  22.656  0.00  0.00    +0.000 A 
ATOM     23  C   UNL     1       0.676   9.138  21.296  0.00  0.00    +0.000 A 
ATOM     24  C   UNL     1       0.100  10.135  20.487  0.00  0.00    +0.000 A 
ATOM     25  C   UNL     1      -0.773  11.084  21.032  0.00  0.00    +0.000 A 
ATOM     26 CL   UNL     1      -1.425  12.279  19.968  0.00  0.00    +0.000 Cl
ENDBRANCH  18  23
ENDBRANCH   1  18
TORSDOF 3
ENDMDL
MODEL 6
REMARK VINA RESULT:      -8.6      3.982      7.058
REMARK  Name = 
REMARK  3 active torsions:
REMARK  status: ('A' for Active; 'I' for Inactive)
REMARK    1  A    between atoms: C_5  and  C_6
REMARK    2  A    between atoms: C_6  and  N_7
REMARK    3  A    between atoms: C_12  and  C_13
REMARK                            x       y       z     vdW  Elec       q    Type
REMARK                         _______ _______ _______ _____ _____    ______ ____
ROOT
ATOM      1  N   UNL     1       4.276   2.626  18.631  0.00  0.00    +0.000 N 
ATOM      2  C   UNL     1       3.329   3.250  19.464  0.00  0.00    +0.000 A 
ATOM      3  C   UNL     1       2.821   2.530  20.526  0.00  0.00    +0.000 A 
ATOM      4  C   UNL     1       1.938   3.187  21.347  0.00  0.00    +0.000 A 
ATOM      5  N   UNL     1       1.609   4.479  21.194  0.00  0.00    +0.000 NA
ATOM      6  C   UNL     1       2.181   5.118  20.157  0.00  0.00    +0.000 A 
ATOM      7  N   UNL     1       3.019   4.539  19.274  0.00  0.00    +0.000 NA
ATOM      8  H   UNL     1       5.172   2.677  19.112  0.00  0.00    +0.000 HD
ENDROOT
BRANCH   6   9
ATOM      9  C   UNL     1       1.905   6.559  19.992  0.00  0.00    +0.000 A 
ATOM     10  C   UNL     1       1.276   7.310  21.023  0.00  0.00    +0.000 A 
ATOM     11  C   UNL     1       1.005   8.676  20.887  0.00  0.00    +0.000 A 
ATOM     12  C   UNL     1       1.366   9.281  19.706  0.00  0.00    +0.000 A 
ATOM     13  C   UNL     1       1.980   8.586  18.699  0.00  0.00    +0.000 A 
ATOM     14  C   UNL     1       2.266   7.239  18.810  0.00  0.00    +0.000 A 
ATOM     15  O   UNL     1       2.255   9.365  17.617  0.00  0.00    +0.000 OA
ATOM     16  C   UNL     1       1.699  10.625  18.048  0.00  0.00    +0.000 C 
ATOM     17  O   UNL     1       1.173  10.590  19.393  0.00  0.00    +0.000 OA
ENDBRANCH   6   9
BRANCH   1  18
ATOM     18  C   UNL     1       4.361   3.218  17.300  0.00  0.00    +0.000 C 
BRANCH  18  23
ATOM     19 CL   UNL     1       7.726   8.252  17.460  0.00  0.00    +0.000 Cl
ATOM     20  C   UNL     1       6.796   6.796  17.454  0.00  0.00    +0.000 A 
ATOM     21  C   UNL     1       5.744   6.699  16.539  0.00  0.00    +0.000 A 
ATOM     22  C   UNL     1       4.954   5.547  16.493  0.00  0.00    +0.000 A 
ATOM     23  C   UNL     1       5.203   4.476  17.361  0.00  0.00    +0.000 A 
ATOM     24  C   UNL     1       6.271   4.578  18.271  0.00  0.00    +0.000 A 
ATOM     25  C   UNL     1       7.061   5.732  18.322  0.00  0.00    +0.000 A 
ATOM     26 CL   UNL     1       8.345   5.777  19.477  0.00  0.00    +0.000 Cl
ENDBRANCH  18  23
ENDBRANCH   1  18
TORSDOF 3
ENDMDL
MODEL 7
REMARK VINA RESULT:      -8.6      1.436      2.245
REMARK  Name = 
REMARK  3 active torsions:
REMARK  status: ('A' for Active; 'I' for Inactive)
REMARK    1  A    between atoms: C_5  and  C_6
REMARK    2  A    between atoms: C_6  and  N_7
REMARK    3  A    between atoms: C_12  and  C_13
REMARK                            x       y       z     vdW  Elec       q    Type
REMARK                         _______ _______ _______ _____ _____    ______ ____
ROOT
ATOM      1  N   UNL     1       1.429   4.987  20.305  0.00  0.00    +0.000 N 
ATOM      2  C   UNL     1       2.100   4.089  19.454  0.00  0.00    +0.000 A 
ATOM      3  C   UNL     1       1.569   2.826  19.292  0.00  0.00    +0.000 A 
ATOM      4  C   UNL     1       2.222   1.993  18.415  0.00  0.00    +0.000 A 
ATOM      5  N   UNL     1       3.285   2.373  17.690  0.00  0.00    +0.000 NA
ATOM      6  C   UNL     1       3.714   3.634  17.880  0.00  0.00    +0.000 A 
ATOM      7  N   UNL     1       3.165   4.501  18.754  0.00  0.00    +0.000 NA
ATOM      8  H   UNL     1       0.648   5.369  19.776  0.00  0.00    +0.000 HD
ENDROOT
BRANCH   6   9
ATOM      9  C   UNL     1       4.835   4.118  17.050  0.00  0.00    +0.000 A 
ATOM     10  C   UNL     1       5.871   4.916  17.608  0.00  0.00    +0.000 A 
ATOM     11  C   UNL     1       6.943   5.385  16.839  0.00  0.00    +0.000 A 
ATOM     12  C   UNL     1       6.962   5.052  15.505  0.00  0.00    +0.000 A 
ATOM     13  C   UNL     1       5.981   4.278  14.942  0.00  0.00    +0.000 A 
ATOM     14  C   UNL     1       4.918   3.795  15.679  0.00  0.00    +0.000 A 
ATOM     15  O   UNL     1       6.185   4.062  13.614  0.00  0.00    +0.000 OA
ATOM     16  C   UNL     1       7.387   4.831  13.399  0.00  0.00    +0.000 C 
ATOM     17  O   UNL     1       7.911   5.425  14.607  0.00  0.00    +0.000 OA
ENDBRANCH   6   9
BRANCH   1  18
ATOM     18  C   UNL     1       2.285   6.052  20.819  0.00  0.00    +0.000 C 
BRANCH  18  23
ATOM     19 CL   UNL     1       0.337  11.413  18.784  0.00  0.00    +0.000 Cl
ATOM     20  C   UNL     1       0.868   9.894  19.412  0.00  0.00    +0.000 A 
ATOM     21  C   UNL     1       1.634   9.076  18.575  0.00  0.00    +0.000 A 
ATOM     22  C   UNL     1       2.086   7.834  19.027  0.00  0.00    +0.000 A 
ATOM     23  C   UNL     1       1.779   7.389  20.319  0.00  0.00    +0.000 A 
ATOM     24  C   UNL     1       1.018   8.224  21.158  0.00  0.00    +0.000 A 
ATOM     25  C   UNL     1       0.560   9.467  20.706  0.00  0.00    +0.000 A 
ATOM     26 CL   UNL     1      -0.378  10.423  21.799  0.00  0.00    +0.000 Cl
ENDBRANCH  18  23
ENDBRANCH   1  18
TORSDOF 3
ENDMDL
MODEL 8
REMARK VINA RESULT:      -8.5      4.264      7.350
REMARK  Name = 
REMARK  3 active torsions:
REMARK  status: ('A' for Active; 'I' for Inactive)
REMARK    1  A    between atoms: C_5  and  C_6
REMARK    2  A    between atoms: C_6  and  N_7
REMARK    3  A    between atoms: C_12  and  C_13
REMARK                            x       y       z     vdW  Elec       q    Type
REMARK                         _______ _______ _______ _____ _____    ______ ____
ROOT
ATOM      1  N   UNL     1       4.237   2.697  18.461  0.00  0.00    +0.000 N 
ATOM      2  C   UNL     1       3.268   3.337  19.256  0.00  0.00    +0.000 A 
ATOM      3  C   UNL     1       2.695   2.620  20.286  0.00  0.00    +0.000 A 
ATOM      4  C   UNL     1       1.790   3.292  21.073  0.00  0.00    +0.000 A 
ATOM      5  N   UNL     1       1.500   4.592  20.917  0.00  0.00    +0.000 NA
ATOM      6  C   UNL     1       2.133   5.226  19.913  0.00  0.00    +0.000 A 
ATOM      7  N   UNL     1       2.997   4.635  19.064  0.00  0.00    +0.000 NA
ATOM      8  H   UNL     1       5.111   2.723  18.982  0.00  0.00    +0.000 HD
ENDROOT
BRANCH   6   9
ATOM      9  C   UNL     1       1.900   6.675  19.751  0.00  0.00    +0.000 A 
ATOM     10  C   UNL     1       2.213   7.338  18.532  0.00  0.00    +0.000 A 
ATOM     11  C   UNL     1       1.999   8.711  18.358  0.00  0.00    +0.000 A 
ATOM     12  C   UNL     1       1.475   9.412  19.418  0.00  0.00    +0.000 A 
ATOM     13  C   UNL     1       1.156   8.799  20.600  0.00  0.00    +0.000 A 
ATOM     14  C   UNL     1       1.349   7.446  20.797  0.00  0.00    +0.000 A 
ATOM     15  O   UNL     1       0.650   9.666  21.519  0.00  0.00    +0.000 OA
ATOM     16  C   UNL     1       0.731  10.908  20.787  0.00  0.00    +0.000 C 
ATOM     17  O   UNL     1       1.212  10.746  19.435  0.00  0.00    +0.000 OA
ENDBRANCH   6   9
BRANCH   1  18
ATOM     18  C   UNL     1       4.397   3.299  17.141  0.00  0.00    +0.000 C 
BRANCH  18  23
ATOM     19 CL   UNL     1       7.779   8.309  17.520  0.00  0.00    +0.000 Cl
ATOM     20  C   UNL     1       6.844   6.858  17.451  0.00  0.00    +0.000 A 
ATOM     21  C   UNL     1       5.805   6.797  16.518  0.00  0.00    +0.000 A 
ATOM     22  C   UNL     1       5.012   5.651  16.422  0.00  0.00    +0.000 A 
ATOM     23  C   UNL     1       5.243   4.550  17.257  0.00  0.00    +0.000 A 
ATOM     24  C   UNL     1       6.297   4.617  18.185  0.00  0.00    +0.000 A 
ATOM     25  C   UNL     1       7.091   5.765  18.287  0.00  0.00    +0.000 A 
ATOM     26 CL   UNL     1       8.358   5.765  19.462  0.00  0.00    +0.000 Cl
ENDBRANCH  18  23
ENDBRANCH   1  18
TORSDOF 3
ENDMDL
MODEL 9
REMARK VINA RESULT:      -8.3      1.155      1.822
REMARK  Name = 
REMARK  3 active torsions:
REMARK  status: ('A' for Active; 'I' for Inactive)
REMARK    1  A    between atoms: C_5  and  C_6
REMARK    2  A    between atoms: C_6  and  N_7
REMARK    3  A    between atoms: C_12  and  C_13
REMARK                            x       y       z     vdW  Elec       q    Type
REMARK                         _______ _______ _______ _____ _____    ______ ____
ROOT
ATOM      1  N   UNL     1       1.049   6.858  20.958  0.00  0.00    +0.000 N 
ATOM      2  C   UNL     1       1.739   5.775  20.382  0.00  0.00    +0.000 A 
ATOM      3  C   UNL     1       1.408   4.500  20.795  0.00  0.00    +0.000 A 
ATOM      4  C   UNL     1       2.065   3.465  20.175  0.00  0.00    +0.000 A 
ATOM      5  N   UNL     1       2.943   3.641  19.177  0.00  0.00    +0.000 NA
ATOM      6  C   UNL     1       3.178   4.914  18.809  0.00  0.00    +0.000 A 
ATOM      7  N   UNL     1       2.616   5.991  19.394  0.00  0.00    +0.000 NA
ATOM      8  H   UNL     1       0.152   6.924  20.483  0.00  0.00    +0.000 HD
ENDROOT
BRANCH   6   9
ATOM      9  C   UNL     1       4.081   5.151  17.666  0.00  0.00    +0.000 A 
ATOM     10  C   UNL     1       4.483   6.467  17.307  0.00  0.00    +0.000 A 
ATOM     11  C   UNL     1       5.338   6.714  16.226  0.00  0.00    +0.000 A 
ATOM     12  C   UNL     1       5.782   5.629  15.506  0.00  0.00    +0.000 A 
ATOM     13  C   UNL     1       5.418   4.350  15.834  0.00  0.00    +0.000 A 
ATOM     14  C   UNL     1       4.583   4.078  16.899  0.00  0.00    +0.000 A 
ATOM     15  O   UNL     1       5.964   3.422  15.001  0.00  0.00    +0.000 OA
ATOM     16  C   UNL     1       6.678   4.276  14.082  0.00  0.00    +0.000 C 
ATOM     17  O   UNL     1       6.604   5.677  14.425  0.00  0.00    +0.000 OA
ENDBRANCH   6   9
BRANCH   1  18
ATOM     18  C   UNL     1       1.778   8.120  20.878  0.00  0.00    +0.000 C 
BRANCH  18  23
ATOM     19 CL   UNL     1      -2.111  12.718  20.222  0.00  0.00    +0.000 Cl
ATOM     20  C   UNL     1      -1.008  11.409  20.463  0.00  0.00    +0.000 A 
ATOM     21  C   UNL     1      -0.420  10.838  19.331  0.00  0.00    +0.000 A 
ATOM     22  C   UNL     1       0.475   9.772  19.464  0.00  0.00    +0.000 A 
ATOM     23  C   UNL     1       0.793   9.262  20.729  0.00  0.00    +0.000 A 
ATOM     24  C   UNL     1       0.204   9.850  21.863  0.00  0.00    +0.000 A 
ATOM     25  C   UNL     1      -0.695  10.915  21.732  0.00  0.00    +0.000 A 
ATOM     26 CL   UNL     1      -1.379  11.571  23.177  0.00  0.00    +0.000 Cl
ENDBRANCH  18  23
ENDBRANCH   1  18
TORSDOF 3
ENDMDL
