MODEL 1
REMARK VINA RESULT:      -6.9      0.000      0.000
REMARK  Name = 
REMARK  2 active torsions:
REMARK  status: ('A' for Active; 'I' for Inactive)
REMARK    1  A    between atoms: C_1  and  N_2
REMARK    2  A    between atoms: N_11  and  C_12
REMARK                            x       y       z     vdW  Elec       q    Type
REMARK                         _______ _______ _______ _____ _____    ______ ____
ROOT
ATOM      1  C   UNL     1       8.421   5.146  13.341  0.00  0.00    +0.000 C 
ATOM      2  N   UNL     1       7.169   4.880  14.005  0.00  0.00    +0.000 N 
ATOM      3  N   UNL     1       6.303   3.971  13.499  0.00  0.00    +0.000 NA
ATOM      4  C   UNL     1       5.330   3.935  14.418  0.00  0.00    +0.000 A 
ATOM      5  C   UNL     1       5.571   4.795  15.508  0.00  0.00    +0.000 A 
ATOM      6  C   UNL     1       4.961   5.129  16.728  0.00  0.00    +0.000 A 
ATOM      7  N   UNL     1       3.790   4.467  17.201  0.00  0.00    +0.000 N 
ATOM      8  C   UNL     1       3.020   5.385  18.057  0.00  0.00    +0.000 C 
ATOM      9  C   UNL     1       1.536   5.046  18.092  0.00  0.00    +0.000 C 
ATOM     10  C   UNL     1       1.115   3.619  18.443  0.00  0.00    +0.000 C 
ATOM     11  N   UNL     1       2.039   2.742  19.149  0.00  0.00    +0.000 NA
ATOM     12  C   UNL     1       3.133   2.268  18.294  0.00  0.00    +0.000 C 
ATOM     13  C   UNL     1       4.258   3.250  17.917  0.00  0.00    +0.000 C 
ATOM     14  N   UNL     1       5.570   6.085  17.484  0.00  0.00    +0.000 NA
ATOM     15  C   UNL     1       6.714   6.644  17.041  0.00  0.00    +0.000 A 
ATOM     16  N   UNL     1       7.393   6.364  15.916  0.00  0.00    +0.000 NA
ATOM     17  C   UNL     1       6.760   5.427  15.191  0.00  0.00    +0.000 A 
ENDROOT
BRANCH  11  18
ATOM     18  C   UNL     1       2.408   3.140  20.509  0.00  0.00    +0.000 C 
ATOM     19  C   UNL     1       1.608   2.609  21.670  0.00  0.00    +0.000 C 
ATOM     20  C   UNL     1       3.005   2.120  21.441  0.00  0.00    +0.000 C 
ENDBRANCH  11  18
TORSDOF 1
ENDMDL
MODEL 2
REMARK VINA RESULT:      -6.3      3.728      5.621
REMARK  Name = 
REMARK  2 active torsions:
REMARK  status: ('A' for Active; 'I' for Inactive)
REMARK    1  A    between atoms: C_1  and  N_2
REMARK    2  A    between atoms: N_11  and  C_12
REMARK                            x       y       z     vdW  Elec       q    Type
REMARK                         _______ _______ _______ _____ _____    ______ ____
ROOT
ATOM      1  C   UNL     1       6.121   3.981  15.731  0.00  0.00    +0.000 C 
ATOM      2  N   UNL     1       5.518   4.991  16.564  0.00  0.00    +0.000 N 
ATOM      3  N   UNL     1       6.155   6.165  16.788  0.00  0.00    +0.000 NA
ATOM      4  C   UNL     1       5.265   6.861  17.508  0.00  0.00    +0.000 A 
ATOM      5  C   UNL     1       4.067   6.153  17.733  0.00  0.00    +0.000 A 
ATOM      6  C   UNL     1       2.824   6.375  18.347  0.00  0.00    +0.000 A 
ATOM      7  N   UNL     1       2.463   7.639  18.900  0.00  0.00    +0.000 N 
ATOM      8  C   UNL     1       1.505   7.436  20.001  0.00  0.00    +0.000 C 
ATOM      9  C   UNL     1       1.541   8.566  21.021  0.00  0.00    +0.000 C 
ATOM     10  C   UNL     1       1.388  10.006  20.531  0.00  0.00    +0.000 C 
ATOM     11  N   UNL     1       0.789  10.271  19.231  0.00  0.00    +0.000 NA
ATOM     12  C   UNL     1       1.680   9.928  18.118  0.00  0.00    +0.000 C 
ATOM     13  C   UNL     1       1.906   8.442  17.779  0.00  0.00    +0.000 C 
ATOM     14  N   UNL     1       1.938   5.340  18.345  0.00  0.00    +0.000 NA
ATOM     15  C   UNL     1       2.284   4.179  17.753  0.00  0.00    +0.000 A 
ATOM     16  N   UNL     1       3.425   3.885  17.108  0.00  0.00    +0.000 NA
ATOM     17  C   UNL     1       4.278   4.922  17.138  0.00  0.00    +0.000 A 
ENDROOT
BRANCH  11  18
ATOM     18  C   UNL     1      -0.618   9.898  19.071  0.00  0.00    +0.000 C 
ATOM     19  C   UNL     1      -1.656  10.983  18.954  0.00  0.00    +0.000 C 
ATOM     20  C   UNL     1      -1.305  10.153  17.757  0.00  0.00    +0.000 C 
ENDBRANCH  11  18
TORSDOF 1
ENDMDL
MODEL 3
REMARK VINA RESULT:      -6.2      4.424      6.973
REMARK  Name = 
REMARK  2 active torsions:
REMARK  status: ('A' for Active; 'I' for Inactive)
REMARK    1  A    between atoms: C_1  and  N_2
REMARK    2  A    between atoms: N_11  and  C_12
REMARK                            x       y       z     vdW  Elec       q    Type
REMARK                         _______ _______ _______ _____ _____    ______ ____
ROOT
ATOM      1  C   UNL     1      -0.672  11.443  21.606  0.00  0.00    +0.000 C 
ATOM      2  N   UNL     1       0.275  10.370  21.435  0.00  0.00    +0.000 N 
ATOM      3  N   UNL     1       0.824   9.761  22.512  0.00  0.00    +0.000 NA
ATOM      4  C   UNL     1       1.558   8.782  21.967  0.00  0.00    +0.000 A 
ATOM      5  C   UNL     1       1.472   8.750  20.560  0.00  0.00    +0.000 A 
ATOM      6  C   UNL     1       1.957   7.963  19.504  0.00  0.00    +0.000 A 
ATOM      7  N   UNL     1       2.718   6.777  19.724  0.00  0.00    +0.000 N 
ATOM      8  C   UNL     1       3.620   6.554  18.581  0.00  0.00    +0.000 C 
ATOM      9  C   UNL     1       4.855   5.749  18.960  0.00  0.00    +0.000 C 
ATOM     10  C   UNL     1       4.670   4.410  19.675  0.00  0.00    +0.000 C 
ATOM     11  N   UNL     1       3.392   3.716  19.600  0.00  0.00    +0.000 NA
ATOM     12  C   UNL     1       2.353   4.357  20.413  0.00  0.00    +0.000 C 
ATOM     13  C   UNL     1       1.735   5.679  19.919  0.00  0.00    +0.000 C 
ATOM     14  N   UNL     1       1.621   8.346  18.241  0.00  0.00    +0.000 NA
ATOM     15  C   UNL     1       0.843   9.434  18.068  0.00  0.00    +0.000 A 
ATOM     16  N   UNL     1       0.299  10.222  19.010  0.00  0.00    +0.000 NA
ATOM     17  C   UNL     1       0.659   9.822  20.240  0.00  0.00    +0.000 A 
ENDROOT
BRANCH  11  18
ATOM     18  C   UNL     1       2.979   3.249  18.275  0.00  0.00    +0.000 C 
ATOM     19  C   UNL     1       3.165   1.797  17.919  0.00  0.00    +0.000 C 
ATOM     20  C   UNL     1       1.788   2.338  18.151  0.00  0.00    +0.000 C 
ENDBRANCH  11  18
TORSDOF 1
ENDMDL
MODEL 4
REMARK VINA RESULT:      -6.1      1.915      6.617
REMARK  Name = 
REMARK  2 active torsions:
REMARK  status: ('A' for Active; 'I' for Inactive)
REMARK    1  A    between atoms: C_1  and  N_2
REMARK    2  A    between atoms: N_11  and  C_12
REMARK                            x       y       z     vdW  Elec       q    Type
REMARK                         _______ _______ _______ _____ _____    ______ ____
ROOT
ATOM      1  C   UNL     1       0.885   2.313  22.293  0.00  0.00    +0.000 C 
ATOM      2  N   UNL     1       1.462   2.884  21.102  0.00  0.00    +0.000 N 
ATOM      3  N   UNL     1       0.730   3.702  20.309  0.00  0.00    +0.000 NA
ATOM      4  C   UNL     1       1.613   4.097  19.383  0.00  0.00    +0.000 A 
ATOM      5  C   UNL     1       2.898   3.554  19.583  0.00  0.00    +0.000 A 
ATOM      6  C   UNL     1       4.170   3.641  18.994  0.00  0.00    +0.000 A 
ATOM      7  N   UNL     1       4.450   4.529  17.914  0.00  0.00    +0.000 N 
ATOM      8  C   UNL     1       5.540   3.973  17.093  0.00  0.00    +0.000 C 
ATOM      9  C   UNL     1       5.495   4.464  15.653  0.00  0.00    +0.000 C 
ATOM     10  C   UNL     1       5.434   5.969  15.389  0.00  0.00    +0.000 C 
ATOM     11  N   UNL     1       5.853   6.905  16.422  0.00  0.00    +0.000 NA
ATOM     12  C   UNL     1       4.887   7.003  17.521  0.00  0.00    +0.000 C 
ATOM     13  C   UNL     1       4.789   5.841  18.528  0.00  0.00    +0.000 C 
ATOM     14  N   UNL     1       5.157   2.876  19.537  0.00  0.00    +0.000 NA
ATOM     15  C   UNL     1       4.877   2.097  20.601  0.00  0.00    +0.000 A 
ATOM     16  N   UNL     1       3.711   1.978  21.257  0.00  0.00    +0.000 NA
ATOM     17  C   UNL     1       2.759   2.737  20.690  0.00  0.00    +0.000 A 
ENDROOT
BRANCH  11  18
ATOM     18  C   UNL     1       7.266   6.866  16.806  0.00  0.00    +0.000 C 
ATOM     19  C   UNL     1       7.861   8.044  17.532  0.00  0.00    +0.000 C 
ATOM     20  C   UNL     1       7.634   6.755  18.260  0.00  0.00    +0.000 C 
ENDBRANCH  11  18
TORSDOF 1
ENDMDL
MODEL 5
REMARK VINA RESULT:      -6.1      0.952      1.045
REMARK  Name = 
REMARK  2 active torsions:
REMARK  status: ('A' for Active; 'I' for Inactive)
REMARK    1  A    between atoms: C_1  and  N_2
REMARK    2  A    between atoms: N_11  and  C_12
REMARK                            x       y       z     vdW  Elec       q    Type
REMARK                         _______ _______ _______ _____ _____    ______ ____
ROOT
ATOM      1  C   UNL     1       7.718   4.044  12.042  0.00  0.00    +0.000 C 
ATOM      2  N   UNL     1       6.605   4.116  12.956  0.00  0.00    +0.000 N 
ATOM      3  N   UNL     1       5.414   3.560  12.631  0.00  0.00    +0.000 NA
ATOM      4  C   UNL     1       4.682   3.742  13.738  0.00  0.00    +0.000 A 
ATOM      5  C   UNL     1       5.394   4.393  14.766  0.00  0.00    +0.000 A 
ATOM      6  C   UNL     1       5.176   4.791  16.095  0.00  0.00    +0.000 A 
ATOM      7  N   UNL     1       3.974   4.478  16.796  0.00  0.00    +0.000 N 
ATOM      8  C   UNL     1       3.719   5.511  17.815  0.00  0.00    +0.000 C 
ATOM      9  C   UNL     1       2.242   5.636  18.162  0.00  0.00    +0.000 C 
ATOM     10  C   UNL     1       1.472   4.380  18.570  0.00  0.00    +0.000 C 
ATOM     11  N   UNL     1       2.193   3.207  19.044  0.00  0.00    +0.000 NA
ATOM     12  C   UNL     1       2.890   2.498  17.965  0.00  0.00    +0.000 C 
ATOM     13  C   UNL     1       4.168   3.121  17.372  0.00  0.00    +0.000 C 
ATOM     14  N   UNL     1       6.192   5.449  16.719  0.00  0.00    +0.000 NA
ATOM     15  C   UNL     1       7.342   5.670  16.050  0.00  0.00    +0.000 A 
ATOM     16  N   UNL     1       7.660   5.294  14.800  0.00  0.00    +0.000 NA
ATOM     17  C   UNL     1       6.633   4.659  14.212  0.00  0.00    +0.000 A 
ENDROOT
BRANCH  11  18
ATOM     18  C   UNL     1       2.932   3.357  20.300  0.00  0.00    +0.000 C 
ATOM     19  C   UNL     1       2.384   2.724  21.552  0.00  0.00    +0.000 C 
ATOM     20  C   UNL     1       3.611   2.159  20.905  0.00  0.00    +0.000 C 
ENDBRANCH  11  18
TORSDOF 1
ENDMDL
MODEL 6
REMARK VINA RESULT:      -5.7      4.958      7.667
REMARK  Name = 
REMARK  2 active torsions:
REMARK  status: ('A' for Active; 'I' for Inactive)
REMARK    1  A    between atoms: C_1  and  N_2
REMARK    2  A    between atoms: N_11  and  C_12
REMARK                            x       y       z     vdW  Elec       q    Type
REMARK                         _______ _______ _______ _____ _____    ______ ____
ROOT
ATOM      1  C   UNL     1      -1.124  11.221  22.968  0.00  0.00    +0.000 C 
ATOM      2  N   UNL     1      -0.094  10.392  22.394  0.00  0.00    +0.000 N 
ATOM      3  N   UNL     1       0.845   9.819  23.183  0.00  0.00    +0.000 NA
ATOM      4  C   UNL     1       1.549   9.070  22.323  0.00  0.00    +0.000 A 
ATOM      5  C   UNL     1       1.063   9.148  21.002  0.00  0.00    +0.000 A 
ATOM      6  C   UNL     1       1.350   8.579  19.751  0.00  0.00    +0.000 A 
ATOM      7  N   UNL     1       2.340   7.567  19.583  0.00  0.00    +0.000 N 
ATOM      8  C   UNL     1       2.893   7.644  18.220  0.00  0.00    +0.000 C 
ATOM      9  C   UNL     1       4.307   7.087  18.131  0.00  0.00    +0.000 C 
ATOM     10  C   UNL     1       4.579   5.680  18.665  0.00  0.00    +0.000 C 
ATOM     11  N   UNL     1       3.479   4.742  18.835  0.00  0.00    +0.000 NA
ATOM     12  C   UNL     1       2.627   5.072  19.982  0.00  0.00    +0.000 C 
ATOM     13  C   UNL     1       1.667   6.273  19.871  0.00  0.00    +0.000 C 
ATOM     14  N   UNL     1       0.597   8.996  18.695  0.00  0.00    +0.000 NA
ATOM     15  C   UNL     1      -0.377   9.905  18.898  0.00  0.00    +0.000 A 
ATOM     16  N   UNL     1      -0.753  10.472  20.057  0.00  0.00    +0.000 NA
ATOM     17  C   UNL     1       0.015  10.048  21.073  0.00  0.00    +0.000 A 
ENDROOT
BRANCH  11  18
ATOM     18  C   UNL     1       2.786   4.319  17.616  0.00  0.00    +0.000 C 
ATOM     19  C   UNL     1       2.675   2.848  17.309  0.00  0.00    +0.000 C 
ATOM     20  C   UNL     1       1.459   3.619  17.725  0.00  0.00    +0.000 C 
ENDBRANCH  11  18
TORSDOF 1
ENDMDL
MODEL 7
REMARK VINA RESULT:      -5.5      3.930      6.687
REMARK  Name = 
REMARK  2 active torsions:
REMARK  status: ('A' for Active; 'I' for Inactive)
REMARK    1  A    between atoms: C_1  and  N_2
REMARK    2  A    between atoms: N_11  and  C_12
REMARK                            x       y       z     vdW  Elec       q    Type
REMARK                         _______ _______ _______ _____ _____    ______ ____
ROOT
ATOM      1  C   UNL     1      -0.239  11.458  19.912  0.00  0.00    +0.000 C 
ATOM      2  N   UNL     1       0.383  10.354  19.226  0.00  0.00    +0.000 N 
ATOM      3  N   UNL     1       0.509  10.367  17.878  0.00  0.00    +0.000 NA
ATOM      4  C   UNL     1       1.202   9.249  17.626  0.00  0.00    +0.000 A 
ATOM      5  C   UNL     1       1.531   8.532  18.794  0.00  0.00    +0.000 A 
ATOM      6  C   UNL     1       2.247   7.376  19.141  0.00  0.00    +0.000 A 
ATOM      7  N   UNL     1       2.970   6.610  18.179  0.00  0.00    +0.000 N 
ATOM      8  C   UNL     1       3.031   5.205  18.616  0.00  0.00    +0.000 C 
ATOM      9  C   UNL     1       3.195   4.237  17.453  0.00  0.00    +0.000 C 
ATOM     10  C   UNL     1       4.335   4.465  16.460  0.00  0.00    +0.000 C 
ATOM     11  N   UNL     1       5.478   5.283  16.842  0.00  0.00    +0.000 NA
ATOM     12  C   UNL     1       5.159   6.714  16.889  0.00  0.00    +0.000 C 
ATOM     13  C   UNL     1       4.309   7.246  18.059  0.00  0.00    +0.000 C 
ATOM     14  N   UNL     1       2.275   7.036  20.460  0.00  0.00    +0.000 NA
ATOM     15  C   UNL     1       1.638   7.819  21.354  0.00  0.00    +0.000 A 
ATOM     16  N   UNL     1       0.966   8.959  21.128  0.00  0.00    +0.000 NA
ATOM     17  C   UNL     1       0.950   9.258  19.818  0.00  0.00    +0.000 A 
ENDROOT
BRANCH  11  18
ATOM     18  C   UNL     1       6.313   4.771  17.931  0.00  0.00    +0.000 C 
ATOM     19  C   UNL     1       7.765   4.475  17.664  0.00  0.00    +0.000 C 
ATOM     20  C   UNL     1       7.387   5.649  18.514  0.00  0.00    +0.000 C 
ENDBRANCH  11  18
TORSDOF 1
ENDMDL
MODEL 8
REMARK VINA RESULT:      -5.5      4.094      6.695
REMARK  Name = 
REMARK  2 active torsions:
REMARK  status: ('A' for Active; 'I' for Inactive)
REMARK    1  A    between atoms: C_1  and  N_2
REMARK    2  A    between atoms: N_11  and  C_12
REMARK                            x       y       z     vdW  Elec       q    Type
REMARK                         _______ _______ _______ _____ _____    ______ ____
ROOT
ATOM      1  C   UNL     1       4.802   2.324  19.123  0.00  0.00    +0.000 C 
ATOM      2  N   UNL     1       4.409   3.684  19.393  0.00  0.00    +0.000 N 
ATOM      3  N   UNL     1       5.264   4.706  19.151  0.00  0.00    +0.000 NA
ATOM      4  C   UNL     1       4.527   5.790  19.428  0.00  0.00    +0.000 A 
ATOM      5  C   UNL     1       3.213   5.474  19.828  0.00  0.00    +0.000 A 
ATOM      6  C   UNL     1       2.038   6.156  20.180  0.00  0.00    +0.000 A 
ATOM      7  N   UNL     1       1.932   7.576  20.111  0.00  0.00    +0.000 N 
ATOM      8  C   UNL     1       0.952   8.043  21.107  0.00  0.00    +0.000 C 
ATOM      9  C   UNL     1       1.208   9.477  21.550  0.00  0.00    +0.000 C 
ATOM     10  C   UNL     1       1.342  10.565  20.484  0.00  0.00    +0.000 C 
ATOM     11  N   UNL     1       0.809  10.342  19.148  0.00  0.00    +0.000 NA
ATOM     12  C   UNL     1       1.616   9.399  18.367  0.00  0.00    +0.000 C 
ATOM     13  C   UNL     1       1.545   7.899  18.711  0.00  0.00    +0.000 C 
ATOM     14  N   UNL     1       0.966   5.397  20.541  0.00  0.00    +0.000 NA
ATOM     15  C   UNL     1       1.077   4.053  20.531  0.00  0.00    +0.000 A 
ATOM     16  N   UNL     1       2.138   3.312  20.172  0.00  0.00    +0.000 NA
ATOM     17  C   UNL     1       3.178   4.091  19.832  0.00  0.00    +0.000 A 
ENDROOT
BRANCH  11  18
ATOM     18  C   UNL     1      -0.644  10.192  19.041  0.00  0.00    +0.000 C 
ATOM     19  C   UNL     1      -1.466  11.350  18.540  0.00  0.00    +0.000 C 
ATOM     20  C   UNL     1      -1.283  10.137  17.680  0.00  0.00    +0.000 C 
ENDBRANCH  11  18
TORSDOF 1
ENDMDL
MODEL 9
REMARK VINA RESULT:      -5.5      2.716      6.584
REMARK  Name = 
REMARK  2 active torsions:
REMARK  status: ('A' for Active; 'I' for Inactive)
REMARK    1  A    between atoms: C_1  and  N_2
REMARK    2  A    between atoms: N_11  and  C_12
REMARK                            x       y       z     vdW  Elec       q    Type
REMARK                         _______ _______ _______ _____ _____    ______ ____
ROOT
ATOM      1  C   UNL     1      -0.069   7.844  21.202  0.00  0.00    +0.000 C 
ATOM      2  N   UNL     1       1.133   7.271  20.648  0.00  0.00    +0.000 N 
ATOM      3  N   UNL     1       1.647   6.128  21.161  0.00  0.00    +0.000 NA
ATOM      4  C   UNL     1       2.677   5.866  20.346  0.00  0.00    +0.000 A 
ATOM      5  C   UNL     1       2.817   6.816  19.315  0.00  0.00    +0.000 A 
ATOM      6  C   UNL     1       3.639   7.028  18.197  0.00  0.00    +0.000 A 
ATOM      7  N   UNL     1       4.631   6.087  17.792  0.00  0.00    +0.000 N 
ATOM      8  C   UNL     1       5.723   6.794  17.099  0.00  0.00    +0.000 C 
ATOM      9  C   UNL     1       7.048   6.050  17.188  0.00  0.00    +0.000 C 
ATOM     10  C   UNL     1       7.100   4.583  16.761  0.00  0.00    +0.000 C 
ATOM     11  N   UNL     1       6.064   4.042  15.893  0.00  0.00    +0.000 NA
ATOM     12  C   UNL     1       4.786   3.853  16.587  0.00  0.00    +0.000 C 
ATOM     13  C   UNL     1       3.937   5.093  16.930  0.00  0.00    +0.000 C 
ATOM     14  N   UNL     1       3.413   8.156  17.467  0.00  0.00    +0.000 NA
ATOM     15  C   UNL     1       2.422   8.992  17.836  0.00  0.00    +0.000 A 
ATOM     16  N   UNL     1       1.561   8.856  18.858  0.00  0.00    +0.000 NA
ATOM     17  C   UNL     1       1.819   7.741  19.561  0.00  0.00    +0.000 A 
ENDROOT
BRANCH  11  18
ATOM     18  C   UNL     1       5.987   4.600  14.540  0.00  0.00    +0.000 C 
ATOM     19  C   UNL     1       6.662   3.872  13.408  0.00  0.00    +0.000 C 
ATOM     20  C   UNL     1       5.167   3.894  13.495  0.00  0.00    +0.000 C 
ENDBRANCH  11  18
TORSDOF 1
ENDMDL
