MODEL 1
REMARK VINA RESULT:      -6.6      0.000      0.000
REMARK  Name = 
REMARK  7 active torsions:
REMARK  status: ('A' for Active; 'I' for Inactive)
REMARK    1  A    between atoms: C_1  and  O_2
REMARK    2  A    between atoms: O_2  and  C_3
REMARK    3  A    between atoms: C_5  and  C_6
REMARK    4  A    between atoms: C_12  and  C_13
REMARK    5  A    between atoms: C_13  and  O_15
REMARK    6  A    between atoms: N_17  and  C_18
REMARK    7  A    between atoms: C_28  and  O_29
REMARK                            x       y       z     vdW  Elec       q    Type
REMARK                         _______ _______ _______ _____ _____    ______ ____
ROOT
ATOM      1  C   UNL     1      -1.924  11.922  18.477  0.00  0.00    +0.000 C 
ATOM      2  C   UNL     1      -2.029  10.953  17.284  0.00  0.00    +0.000 C 
ATOM      3  C   UNL     1      -3.310  11.068  16.475  0.00  0.00    +0.000 C 
ATOM      4  O   UNL     1      -3.327  10.856  15.264  0.00  0.00    +0.000 OA
ATOM      5  N   UNL     1      -4.469  11.276  17.183  0.00  0.00    +0.000 N 
ATOM      6  C   UNL     1      -4.459  11.769  18.467  0.00  0.00    +0.000 A 
ATOM      7  C   UNL     1      -5.522  11.943  19.382  0.00  0.00    +0.000 A 
ATOM      8  C   UNL     1      -4.952  12.544  20.494  0.00  0.00    +0.000 A 
ATOM      9  N   UNL     1      -3.604  12.768  20.268  0.00  0.00    +0.000 N 
ATOM     10  C   UNL     1      -3.286  12.162  19.064  0.00  0.00    +0.000 A 
ATOM     11  H   UNL     1      -5.354  11.179  16.694  0.00  0.00    +0.000 HD
ENDROOT
BRANCH   9  12
ATOM     12  C   UNL     1      -2.729  13.449  21.147  0.00  0.00    +0.000 A 
ATOM     13  C   UNL     1      -2.230  14.714  20.805  0.00  0.00    +0.000 A 
ATOM     14  C   UNL     1      -1.259  15.318  21.606  0.00  0.00    +0.000 A 
ATOM     15  C   UNL     1      -0.795  14.671  22.749  0.00  0.00    +0.000 A 
ATOM     16  C   UNL     1      -1.333  13.437  23.119  0.00  0.00    +0.000 A 
ATOM     17  C   UNL     1      -2.307  12.839  22.325  0.00  0.00    +0.000 A 
ATOM     18  F   UNL     1      -2.759  11.628  22.688  0.00  0.00    +0.000 F 
ENDBRANCH   9  12
BRANCH   1  21
ATOM     19  C   UNL     1       1.082  11.601  20.893  0.00  0.00    +0.000 A 
ATOM     20  C   UNL     1       0.179  12.109  19.947  0.00  0.00    +0.000 A 
ATOM     21  C   UNL     1      -0.891  11.343  19.446  0.00  0.00    +0.000 A 
ATOM     22  C   UNL     1      -1.041  10.034  19.918  0.00  0.00    +0.000 A 
ATOM     23  C   UNL     1      -0.174   9.528  20.890  0.00  0.00    +0.000 A 
ATOM     24  C   UNL     1       0.869  10.314  21.390  0.00  0.00    +0.000 A 
BRANCH  19  26
ATOM     25  C   UNL     1       2.133  13.715  20.497  0.00  0.00    +0.000 C 
ATOM     26  O   UNL     1       2.072  12.490  21.213  0.00  0.00    +0.000 OA
ENDBRANCH  19  26
BRANCH  24  27
ATOM     27  O   UNL     1       1.647   9.795  22.388  0.00  0.00    +0.000 OA
ATOM     28  H   UNL     1       2.440  10.347  22.490  0.00  0.00    +0.000 HD
ENDBRANCH  24  27
ENDBRANCH   1  21
BRANCH   7  29
ATOM     29  C   UNL     1      -6.918  11.575  19.205  0.00  0.00    +0.000 C 
ATOM     30  O   UNL     1      -7.845  12.294  19.552  0.00  0.00    +0.000 OA
BRANCH  29  31
ATOM     31  O   UNL     1      -7.122  10.386  18.581  0.00  0.00    +0.000 OA
ATOM     32  H   UNL     1      -6.710  10.353  17.699  0.00  0.00    +0.000 HD
ENDBRANCH  29  31
ENDBRANCH   7  29
TORSDOF 6
ENDMDL
MODEL 2
REMARK VINA RESULT:      -6.3     10.402     13.175
REMARK  Name = 
REMARK  7 active torsions:
REMARK  status: ('A' for Active; 'I' for Inactive)
REMARK    1  A    between atoms: C_1  and  O_2
REMARK    2  A    between atoms: O_2  and  C_3
REMARK    3  A    between atoms: C_5  and  C_6
REMARK    4  A    between atoms: C_12  and  C_13
REMARK    5  A    between atoms: C_13  and  O_15
REMARK    6  A    between atoms: N_17  and  C_18
REMARK    7  A    between atoms: C_28  and  O_29
REMARK                            x       y       z     vdW  Elec       q    Type
REMARK                         _______ _______ _______ _____ _____    ______ ____
ROOT
ATOM      1  C   UNL     1      10.341  15.086  21.893  0.00  0.00    +0.000 C 
ATOM      2  C   UNL     1       9.951  16.229  22.851  0.00  0.00    +0.000 C 
ATOM      3  C   UNL     1       9.429  15.781  24.205  0.00  0.00    +0.000 C 
ATOM      4  O   UNL     1       9.627  16.444  25.222  0.00  0.00    +0.000 OA
ATOM      5  N   UNL     1       8.604  14.683  24.215  0.00  0.00    +0.000 N 
ATOM      6  C   UNL     1       8.574  13.785  23.172  0.00  0.00    +0.000 A 
ATOM      7  C   UNL     1       7.727  12.676  22.953  0.00  0.00    +0.000 A 
ATOM      8  C   UNL     1       8.191  12.088  21.785  0.00  0.00    +0.000 A 
ATOM      9  N   UNL     1       9.297  12.778  21.319  0.00  0.00    +0.000 N 
ATOM     10  C   UNL     1       9.441  13.904  22.114  0.00  0.00    +0.000 A 
ATOM     11  H   UNL     1       8.099  14.469  25.071  0.00  0.00    +0.000 HD
ENDROOT
BRANCH   9  12
ATOM     12  C   UNL     1      10.086  12.404  20.205  0.00  0.00    +0.000 A 
ATOM     13  C   UNL     1      11.375  11.886  20.395  0.00  0.00    +0.000 A 
ATOM     14  C   UNL     1      12.200  11.654  19.294  0.00  0.00    +0.000 A 
ATOM     15  C   UNL     1      11.739  11.923  18.006  0.00  0.00    +0.000 A 
ATOM     16  C   UNL     1      10.436  12.385  17.814  0.00  0.00    +0.000 A 
ATOM     17  C   UNL     1       9.611  12.610  18.913  0.00  0.00    +0.000 A 
ATOM     18  F   UNL     1       8.384  13.105  18.688  0.00  0.00    +0.000 F 
ENDBRANCH   9  12
BRANCH   1  21
ATOM     19  C   UNL     1       9.190  16.828  18.635  0.00  0.00    +0.000 A 
ATOM     20  C   UNL     1       9.180  16.237  19.907  0.00  0.00    +0.000 A 
ATOM     21  C   UNL     1      10.331  15.657  20.474  0.00  0.00    +0.000 A 
ATOM     22  C   UNL     1      11.514  15.679  19.727  0.00  0.00    +0.000 A 
ATOM     23  C   UNL     1      11.550  16.300  18.476  0.00  0.00    +0.000 A 
ATOM     24  C   UNL     1      10.400  16.889  17.942  0.00  0.00    +0.000 A 
BRANCH  19  26
ATOM     25  C   UNL     1       6.865  17.096  19.138  0.00  0.00    +0.000 C 
ATOM     26  O   UNL     1       7.960  17.292  18.254  0.00  0.00    +0.000 OA
ENDBRANCH  19  26
BRANCH  24  27
ATOM     27  O   UNL     1      10.506  17.542  16.745  0.00  0.00    +0.000 OA
ATOM     28  H   UNL     1       9.743  17.311  16.190  0.00  0.00    +0.000 HD
ENDBRANCH  24  27
ENDBRANCH   1  21
BRANCH   7  29
ATOM     29  C   UNL     1       6.608  12.234  23.770  0.00  0.00    +0.000 C 
ATOM     30  O   UNL     1       6.568  11.136  24.308  0.00  0.00    +0.000 OA
BRANCH  29  31
ATOM     31  O   UNL     1       5.620  13.152  23.932  0.00  0.00    +0.000 OA
ATOM     32  H   UNL     1       5.815  13.992  23.479  0.00  0.00    +0.000 HD
ENDBRANCH  29  31
ENDBRANCH   7  29
TORSDOF 6
ENDMDL
MODEL 3
REMARK VINA RESULT:      -6.2      1.876      2.423
REMARK  Name = 
REMARK  7 active torsions:
REMARK  status: ('A' for Active; 'I' for Inactive)
REMARK    1  A    between atoms: C_1  and  O_2
REMARK    2  A    between atoms: O_2  and  C_3
REMARK    3  A    between atoms: C_5  and  C_6
REMARK    4  A    between atoms: C_12  and  C_13
REMARK    5  A    between atoms: C_13  and  O_15
REMARK    6  A    between atoms: N_17  and  C_18
REMARK    7  A    between atoms: C_28  and  O_29
REMARK                            x       y       z     vdW  Elec       q    Type
REMARK                         _______ _______ _______ _____ _____    ______ ____
ROOT
ATOM      1  C   UNL     1      -1.472  10.903  17.795  0.00  0.00    +0.000 C 
ATOM      2  C   UNL     1      -1.930   9.851  16.766  0.00  0.00    +0.000 C 
ATOM      3  C   UNL     1      -3.212  10.194  16.026  0.00  0.00    +0.000 C 
ATOM      4  O   UNL     1      -3.397   9.840  14.863  0.00  0.00    +0.000 OA
ATOM      5  N   UNL     1      -4.208  10.787  16.762  0.00  0.00    +0.000 N 
ATOM      6  C   UNL     1      -3.953  11.421  17.957  0.00  0.00    +0.000 A 
ATOM      7  C   UNL     1      -4.846  11.983  18.897  0.00  0.00    +0.000 A 
ATOM      8  C   UNL     1      -4.040  12.551  19.872  0.00  0.00    +0.000 A 
ATOM      9  N   UNL     1      -2.707  12.382  19.537  0.00  0.00    +0.000 N 
ATOM     10  C   UNL     1      -2.668  11.565  18.419  0.00  0.00    +0.000 A 
ATOM     11  H   UNL     1      -5.132  10.864  16.346  0.00  0.00    +0.000 HD
ENDROOT
BRANCH   9  12
ATOM     12  C   UNL     1      -1.609  12.916  20.252  0.00  0.00    +0.000 A 
ATOM     13  C   UNL     1      -1.498  12.706  21.634  0.00  0.00    +0.000 A 
ATOM     14  C   UNL     1      -0.494  13.352  22.357  0.00  0.00    +0.000 A 
ATOM     15  C   UNL     1       0.405  14.194  21.704  0.00  0.00    +0.000 A 
ATOM     16  C   UNL     1       0.329  14.358  20.321  0.00  0.00    +0.000 A 
ATOM     17  C   UNL     1      -0.668  13.708  19.599  0.00  0.00    +0.000 A 
ATOM     18  F   UNL     1      -0.739  13.935  18.278  0.00  0.00    +0.000 F 
ENDBRANCH   9  12
BRANCH   1  21
ATOM     19  C   UNL     1      -0.108   9.094  20.932  0.00  0.00    +0.000 A 
ATOM     20  C   UNL     1      -0.947   9.805  20.061  0.00  0.00    +0.000 A 
ATOM     21  C   UNL     1      -0.530  10.201  18.776  0.00  0.00    +0.000 A 
ATOM     22  C   UNL     1       0.768   9.867  18.374  0.00  0.00    +0.000 A 
ATOM     23  C   UNL     1       1.601   9.125  19.213  0.00  0.00    +0.000 A 
ATOM     24  C   UNL     1       1.159   8.723  20.478  0.00  0.00    +0.000 A 
BRANCH  19  26
ATOM     25  C   UNL     1      -0.280   9.629  23.259  0.00  0.00    +0.000 C 
ATOM     26  O   UNL     1      -0.689   8.847  22.146  0.00  0.00    +0.000 OA
ENDBRANCH  19  26
BRANCH  24  27
ATOM     27  O   UNL     1       1.988   7.941  21.234  0.00  0.00    +0.000 OA
ATOM     28  H   UNL     1       1.808   8.106  22.174  0.00  0.00    +0.000 HD
ENDBRANCH  24  27
ENDBRANCH   1  21
BRANCH   7  29
ATOM     29  C   UNL     1      -6.300  11.975  18.859  0.00  0.00    +0.000 C 
ATOM     30  O   UNL     1      -6.993  12.162  19.848  0.00  0.00    +0.000 OA
BRANCH  29  31
ATOM     31  O   UNL     1      -6.839  11.789  17.626  0.00  0.00    +0.000 OA
ATOM     32  H   UNL     1      -6.257  11.273  17.039  0.00  0.00    +0.000 HD
ENDBRANCH  29  31
ENDBRANCH   7  29
TORSDOF 6
ENDMDL
MODEL 4
REMARK VINA RESULT:      -6.2      1.510      1.979
REMARK  Name = 
REMARK  7 active torsions:
REMARK  status: ('A' for Active; 'I' for Inactive)
REMARK    1  A    between atoms: C_1  and  O_2
REMARK    2  A    between atoms: O_2  and  C_3
REMARK    3  A    between atoms: C_5  and  C_6
REMARK    4  A    between atoms: C_12  and  C_13
REMARK    5  A    between atoms: C_13  and  O_15
REMARK    6  A    between atoms: N_17  and  C_18
REMARK    7  A    between atoms: C_28  and  O_29
REMARK                            x       y       z     vdW  Elec       q    Type
REMARK                         _______ _______ _______ _____ _____    ______ ____
ROOT
ATOM      1  C   UNL     1      -1.644  11.013  17.807  0.00  0.00    +0.000 C 
ATOM      2  C   UNL     1      -2.086   9.958  16.774  0.00  0.00    +0.000 C 
ATOM      3  C   UNL     1      -3.391  10.266  16.061  0.00  0.00    +0.000 C 
ATOM      4  O   UNL     1      -3.585   9.919  14.898  0.00  0.00    +0.000 OA
ATOM      5  N   UNL     1      -4.393  10.817  16.822  0.00  0.00    +0.000 N 
ATOM      6  C   UNL     1      -4.138  11.445  18.019  0.00  0.00    +0.000 A 
ATOM      7  C   UNL     1      -5.032  11.966  18.981  0.00  0.00    +0.000 A 
ATOM      8  C   UNL     1      -4.227  12.550  19.948  0.00  0.00    +0.000 A 
ATOM      9  N   UNL     1      -2.896  12.430  19.587  0.00  0.00    +0.000 N 
ATOM     10  C   UNL     1      -2.850  11.628  18.459  0.00  0.00    +0.000 A 
ATOM     11  H   UNL     1      -5.327  10.867  16.423  0.00  0.00    +0.000 HD
ENDROOT
BRANCH   9  12
ATOM     12  C   UNL     1      -1.804  12.993  20.289  0.00  0.00    +0.000 A 
ATOM     13  C   UNL     1      -0.882  13.810  19.620  0.00  0.00    +0.000 A 
ATOM     14  C   UNL     1       0.269  14.245  20.281  0.00  0.00    +0.000 A 
ATOM     15  C   UNL     1       0.494  13.879  21.607  0.00  0.00    +0.000 A 
ATOM     16  C   UNL     1      -0.452  13.112  22.289  0.00  0.00    +0.000 A 
ATOM     17  C   UNL     1      -1.602  12.685  21.632  0.00  0.00    +0.000 A 
ATOM     18  F   UNL     1      -2.460  11.905  22.308  0.00  0.00    +0.000 F 
ENDBRANCH   9  12
BRANCH   1  21
ATOM     19  C   UNL     1      -0.171   9.188  20.885  0.00  0.00    +0.000 A 
ATOM     20  C   UNL     1      -1.050   9.880  20.039  0.00  0.00    +0.000 A 
ATOM     21  C   UNL     1      -0.662  10.333  18.763  0.00  0.00    +0.000 A 
ATOM     22  C   UNL     1       0.648  10.076  18.344  0.00  0.00    +0.000 A 
ATOM     23  C   UNL     1       1.523   9.353  19.159  0.00  0.00    +0.000 A 
ATOM     24  C   UNL     1       1.110   8.894  20.414  0.00  0.00    +0.000 A 
BRANCH  19  26
ATOM     25  C   UNL     1      -0.261   9.562  23.248  0.00  0.00    +0.000 C 
ATOM     26  O   UNL     1      -0.730   8.878  22.095  0.00  0.00    +0.000 OA
ENDBRANCH  19  26
BRANCH  24  27
ATOM     27  O   UNL     1       1.983   8.134  21.143  0.00  0.00    +0.000 OA
ATOM     28  H   UNL     1       2.063   7.260  20.728  0.00  0.00    +0.000 HD
ENDBRANCH  24  27
ENDBRANCH   1  21
BRANCH   7  29
ATOM     29  C   UNL     1      -6.485  11.911  18.968  0.00  0.00    +0.000 C 
ATOM     30  O   UNL     1      -7.190  12.838  19.340  0.00  0.00    +0.000 OA
BRANCH  29  31
ATOM     31  O   UNL     1      -7.009  10.762  18.467  0.00  0.00    +0.000 OA
ATOM     32  H   UNL     1      -7.824  10.492  18.928  0.00  0.00    +0.000 HD
ENDBRANCH  29  31
ENDBRANCH   7  29
TORSDOF 6
ENDMDL
MODEL 5
REMARK VINA RESULT:      -6.1      2.486      3.709
REMARK  Name = 
REMARK  7 active torsions:
REMARK  status: ('A' for Active; 'I' for Inactive)
REMARK    1  A    between atoms: C_1  and  O_2
REMARK    2  A    between atoms: O_2  and  C_3
REMARK    3  A    between atoms: C_5  and  C_6
REMARK    4  A    between atoms: C_12  and  C_13
REMARK    5  A    between atoms: C_13  and  O_15
REMARK    6  A    between atoms: N_17  and  C_18
REMARK    7  A    between atoms: C_28  and  O_29
REMARK                            x       y       z     vdW  Elec       q    Type
REMARK                         _______ _______ _______ _____ _____    ______ ____
ROOT
ATOM      1  C   UNL     1      -3.607  13.479  20.501  0.00  0.00    +0.000 C 
ATOM      2  C   UNL     1      -4.059  12.228  19.723  0.00  0.00    +0.000 C 
ATOM      3  C   UNL     1      -5.548  11.935  19.789  0.00  0.00    +0.000 C 
ATOM      4  O   UNL     1      -6.143  11.415  18.847  0.00  0.00    +0.000 OA
ATOM      5  N   UNL     1      -6.165  12.144  20.998  0.00  0.00    +0.000 N 
ATOM      6  C   UNL     1      -5.613  12.951  21.967  0.00  0.00    +0.000 A 
ATOM      7  C   UNL     1      -6.034  13.196  23.293  0.00  0.00    +0.000 A 
ATOM      8  C   UNL     1      -5.151  14.145  23.787  0.00  0.00    +0.000 A 
ATOM      9  N   UNL     1      -4.245  14.501  22.802  0.00  0.00    +0.000 N 
ATOM     10  C   UNL     1      -4.460  13.657  21.725  0.00  0.00    +0.000 A 
ATOM     11  H   UNL     1      -7.110  11.792  21.124  0.00  0.00    +0.000 HD
ENDROOT
BRANCH   9  12
ATOM     12  C   UNL     1      -3.261  15.511  22.922  0.00  0.00    +0.000 A 
ATOM     13  C   UNL     1      -3.427  16.739  22.265  0.00  0.00    +0.000 A 
ATOM     14  C   UNL     1      -2.392  17.675  22.269  0.00  0.00    +0.000 A 
ATOM     15  C   UNL     1      -1.200  17.395  22.935  0.00  0.00    +0.000 A 
ATOM     16  C   UNL     1      -1.056  16.197  23.636  0.00  0.00    +0.000 A 
ATOM     17  C   UNL     1      -2.092  15.267  23.638  0.00  0.00    +0.000 A 
ATOM     18  F   UNL     1      -1.893  14.105  24.279  0.00  0.00    +0.000 F 
ENDBRANCH   9  12
BRANCH   1  21
ATOM     19  C   UNL     1      -0.195  12.065  21.653  0.00  0.00    +0.000 A 
ATOM     20  C   UNL     1      -1.575  12.238  21.474  0.00  0.00    +0.000 A 
ATOM     21  C   UNL     1      -2.108  13.333  20.768  0.00  0.00    +0.000 A 
ATOM     22  C   UNL     1      -1.215  14.270  20.236  0.00  0.00    +0.000 A 
ATOM     23  C   UNL     1       0.164  14.091  20.370  0.00  0.00    +0.000 A 
ATOM     24  C   UNL     1       0.672  12.983  21.058  0.00  0.00    +0.000 A 
BRANCH  19  26
ATOM     25  C   UNL     1      -0.929  10.356  23.159  0.00  0.00    +0.000 C 
ATOM     26  O   UNL     1       0.110  10.963  22.405  0.00  0.00    +0.000 OA
ENDBRANCH  19  26
BRANCH  24  27
ATOM     27  O   UNL     1       2.029  12.819  21.103  0.00  0.00    +0.000 OA
ATOM     28  H   UNL     1       2.305  12.263  20.355  0.00  0.00    +0.000 HD
ENDBRANCH  24  27
ENDBRANCH   1  21
BRANCH   7  29
ATOM     29  C   UNL     1      -7.152  12.591  23.999  0.00  0.00    +0.000 C 
ATOM     30  O   UNL     1      -7.457  11.413  23.879  0.00  0.00    +0.000 OA
BRANCH  29  31
ATOM     31  O   UNL     1      -7.813  13.424  24.844  0.00  0.00    +0.000 OA
ATOM     32  H   UNL     1      -8.472  13.975  24.385  0.00  0.00    +0.000 HD
ENDBRANCH  29  31
ENDBRANCH   7  29
TORSDOF 6
ENDMDL
MODEL 6
REMARK VINA RESULT:      -6.1      0.901      1.267
REMARK  Name = 
REMARK  7 active torsions:
REMARK  status: ('A' for Active; 'I' for Inactive)
REMARK    1  A    between atoms: C_1  and  O_2
REMARK    2  A    between atoms: O_2  and  C_3
REMARK    3  A    between atoms: C_5  and  C_6
REMARK    4  A    between atoms: C_12  and  C_13
REMARK    5  A    between atoms: C_13  and  O_15
REMARK    6  A    between atoms: N_17  and  C_18
REMARK    7  A    between atoms: C_28  and  O_29
REMARK                            x       y       z     vdW  Elec       q    Type
REMARK                         _______ _______ _______ _____ _____    ______ ____
ROOT
ATOM      1  C   UNL     1      -2.004  12.013  18.561  0.00  0.00    +0.000 C 
ATOM      2  C   UNL     1      -2.096  11.117  17.311  0.00  0.00    +0.000 C 
ATOM      3  C   UNL     1      -3.391  11.241  16.527  0.00  0.00    +0.000 C 
ATOM      4  O   UNL     1      -3.419  11.103  15.306  0.00  0.00    +0.000 OA
ATOM      5  N   UNL     1      -4.546  11.367  17.261  0.00  0.00    +0.000 N 
ATOM      6  C   UNL     1      -4.533  11.780  18.573  0.00  0.00    +0.000 A 
ATOM      7  C   UNL     1      -5.587  11.863  19.510  0.00  0.00    +0.000 A 
ATOM      8  C   UNL     1      -5.020  12.412  20.651  0.00  0.00    +0.000 A 
ATOM      9  N   UNL     1      -3.684  12.692  20.422  0.00  0.00    +0.000 N 
ATOM     10  C   UNL     1      -3.364  12.173  19.179  0.00  0.00    +0.000 A 
ATOM     11  H   UNL     1      -5.435  11.272  16.778  0.00  0.00    +0.000 HD
ENDROOT
BRANCH   9  12
ATOM     12  C   UNL     1      -2.817  13.345  21.331  0.00  0.00    +0.000 A 
ATOM     13  C   UNL     1      -2.311  12.655  22.442  0.00  0.00    +0.000 A 
ATOM     14  C   UNL     1      -1.575  13.341  23.410  0.00  0.00    +0.000 A 
ATOM     15  C   UNL     1      -1.333  14.706  23.265  0.00  0.00    +0.000 A 
ATOM     16  C   UNL     1      -1.789  15.380  22.132  0.00  0.00    +0.000 A 
ATOM     17  C   UNL     1      -2.516  14.694  21.163  0.00  0.00    +0.000 A 
ATOM     18  F   UNL     1      -2.983  15.391  20.115  0.00  0.00    +0.000 F 
ENDBRANCH   9  12
BRANCH   1  21
ATOM     19  C   UNL     1       1.051  11.637  20.907  0.00  0.00    +0.000 A 
ATOM     20  C   UNL     1       0.119  12.173  20.006  0.00  0.00    +0.000 A 
ATOM     21  C   UNL     1      -0.940  11.408  19.479  0.00  0.00    +0.000 A 
ATOM     22  C   UNL     1      -1.048  10.071  19.880  0.00  0.00    +0.000 A 
ATOM     23  C   UNL     1      -0.152   9.535  20.807  0.00  0.00    +0.000 A 
ATOM     24  C   UNL     1       0.880  10.319  21.334  0.00  0.00    +0.000 A 
BRANCH  19  26
ATOM     25  C   UNL     1       1.731  13.919  21.157  0.00  0.00    +0.000 C 
ATOM     26  O   UNL     1       2.023  12.533  21.261  0.00  0.00    +0.000 OA
ENDBRANCH  19  26
BRANCH  24  27
ATOM     27  O   UNL     1       1.687   9.767  22.289  0.00  0.00    +0.000 OA
ATOM     28  H   UNL     1       1.230   9.010  22.691  0.00  0.00    +0.000 HD
ENDBRANCH  24  27
ENDBRANCH   1  21
BRANCH   7  29
ATOM     29  C   UNL     1      -6.974  11.463  19.328  0.00  0.00    +0.000 C 
ATOM     30  O   UNL     1      -7.917  12.116  19.751  0.00  0.00    +0.000 OA
BRANCH  29  31
ATOM     31  O   UNL     1      -7.151  10.324  18.608  0.00  0.00    +0.000 OA
ATOM     32  H   UNL     1      -6.699  10.355  17.746  0.00  0.00    +0.000 HD
ENDBRANCH  29  31
ENDBRANCH   7  29
TORSDOF 6
ENDMDL
MODEL 7
REMARK VINA RESULT:      -6.0      8.370     11.384
REMARK  Name = 
REMARK  7 active torsions:
REMARK  status: ('A' for Active; 'I' for Inactive)
REMARK    1  A    between atoms: C_1  and  O_2
REMARK    2  A    between atoms: O_2  and  C_3
REMARK    3  A    between atoms: C_5  and  C_6
REMARK    4  A    between atoms: C_12  and  C_13
REMARK    5  A    between atoms: C_13  and  O_15
REMARK    6  A    between atoms: N_17  and  C_18
REMARK    7  A    between atoms: C_28  and  O_29
REMARK                            x       y       z     vdW  Elec       q    Type
REMARK                         _______ _______ _______ _____ _____    ______ ____
ROOT
ATOM      1  C   UNL     1       7.526  15.348  18.515  0.00  0.00    +0.000 C 
ATOM      2  C   UNL     1       6.411  14.783  17.614  0.00  0.00    +0.000 C 
ATOM      3  C   UNL     1       4.998  15.011  18.123  0.00  0.00    +0.000 C 
ATOM      4  O   UNL     1       4.056  15.177  17.351  0.00  0.00    +0.000 OA
ATOM      5  N   UNL     1       4.802  14.876  19.476  0.00  0.00    +0.000 N 
ATOM      6  C   UNL     1       5.842  14.953  20.374  0.00  0.00    +0.000 A 
ATOM      7  C   UNL     1       5.855  14.733  21.770  0.00  0.00    +0.000 A 
ATOM      8  C   UNL     1       7.151  15.021  22.172  0.00  0.00    +0.000 A 
ATOM      9  N   UNL     1       7.900  15.436  21.084  0.00  0.00    +0.000 N 
ATOM     10  C   UNL     1       7.113  15.261  19.957  0.00  0.00    +0.000 A 
ATOM     11  H   UNL     1       3.847  14.844  19.822  0.00  0.00    +0.000 HD
ENDROOT
BRANCH   9  12
ATOM     12  C   UNL     1       9.235  15.901  21.139  0.00  0.00    +0.000 A 
ATOM     13  C   UNL     1       9.509  17.272  21.036  0.00  0.00    +0.000 A 
ATOM     14  C   UNL     1      10.831  17.713  20.947  0.00  0.00    +0.000 A 
ATOM     15  C   UNL     1      11.877  16.792  20.974  0.00  0.00    +0.000 A 
ATOM     16  C   UNL     1      11.606  15.432  21.132  0.00  0.00    +0.000 A 
ATOM     17  C   UNL     1      10.288  14.994  21.228  0.00  0.00    +0.000 A 
ATOM     18  F   UNL     1      10.068  13.674  21.326  0.00  0.00    +0.000 F 
ENDBRANCH   9  12
BRANCH   1  21
ATOM     19  C   UNL     1      10.074  12.520  17.816  0.00  0.00    +0.000 A 
ATOM     20  C   UNL     1       8.915  13.204  18.212  0.00  0.00    +0.000 A 
ATOM     21  C   UNL     1       8.818  14.608  18.162  0.00  0.00    +0.000 A 
ATOM     22  C   UNL     1       9.925  15.327  17.698  0.00  0.00    +0.000 A 
ATOM     23  C   UNL     1      11.072  14.659  17.262  0.00  0.00    +0.000 A 
ATOM     24  C   UNL     1      11.138  13.262  17.300  0.00  0.00    +0.000 A 
BRANCH  19  26
ATOM     25  C   UNL     1       9.715  10.670  19.291  0.00  0.00    +0.000 C 
ATOM     26  O   UNL     1       9.977  11.166  17.986  0.00  0.00    +0.000 OA
ENDBRANCH  19  26
BRANCH  24  27
ATOM     27  O   UNL     1      12.256  12.655  16.799  0.00  0.00    +0.000 OA
ATOM     28  H   UNL     1      13.011  12.858  17.375  0.00  0.00    +0.000 HD
ENDBRANCH  24  27
ENDBRANCH   1  21
BRANCH   7  29
ATOM     29  C   UNL     1       4.753  14.299  22.614  0.00  0.00    +0.000 C 
ATOM     30  O   UNL     1       4.834  14.230  23.832  0.00  0.00    +0.000 OA
BRANCH  29  31
ATOM     31  O   UNL     1       3.601  14.017  21.951  0.00  0.00    +0.000 OA
ATOM     32  H   UNL     1       2.854  14.565  22.253  0.00  0.00    +0.000 HD
ENDBRANCH  29  31
ENDBRANCH   7  29
TORSDOF 6
ENDMDL
MODEL 8
REMARK VINA RESULT:      -5.9      8.228     11.287
REMARK  Name = 
REMARK  7 active torsions:
REMARK  status: ('A' for Active; 'I' for Inactive)
REMARK    1  A    between atoms: C_1  and  O_2
REMARK    2  A    between atoms: O_2  and  C_3
REMARK    3  A    between atoms: C_5  and  C_6
REMARK    4  A    between atoms: C_12  and  C_13
REMARK    5  A    between atoms: C_13  and  O_15
REMARK    6  A    between atoms: N_17  and  C_18
REMARK    7  A    between atoms: C_28  and  O_29
REMARK                            x       y       z     vdW  Elec       q    Type
REMARK                         _______ _______ _______ _____ _____    ______ ____
ROOT
ATOM      1  C   UNL     1       7.297  15.204  18.457  0.00  0.00    +0.000 C 
ATOM      2  C   UNL     1       6.124  14.688  17.601  0.00  0.00    +0.000 C 
ATOM      3  C   UNL     1       4.743  15.005  18.148  0.00  0.00    +0.000 C 
ATOM      4  O   UNL     1       3.788  15.211  17.401  0.00  0.00    +0.000 OA
ATOM      5  N   UNL     1       4.581  14.906  19.508  0.00  0.00    +0.000 N 
ATOM      6  C   UNL     1       5.651  14.939  20.373  0.00  0.00    +0.000 A 
ATOM      7  C   UNL     1       5.695  14.743  21.772  0.00  0.00    +0.000 A 
ATOM      8  C   UNL     1       7.017  14.964  22.130  0.00  0.00    +0.000 A 
ATOM      9  N   UNL     1       7.754  15.316  21.011  0.00  0.00    +0.000 N 
ATOM     10  C   UNL     1       6.924  15.166  19.912  0.00  0.00    +0.000 A 
ATOM     11  H   UNL     1       3.637  14.936  19.883  0.00  0.00    +0.000 HD
ENDROOT
BRANCH   9  12
ATOM     12  C   UNL     1       9.115  15.704  21.017  0.00  0.00    +0.000 A 
ATOM     13  C   UNL     1       9.464  17.050  20.839  0.00  0.00    +0.000 A 
ATOM     14  C   UNL     1      10.807  17.407  20.702  0.00  0.00    +0.000 A 
ATOM     15  C   UNL     1      11.799  16.429  20.757  0.00  0.00    +0.000 A 
ATOM     16  C   UNL     1      11.454  15.098  20.991  0.00  0.00    +0.000 A 
ATOM     17  C   UNL     1      10.115  14.743  21.134  0.00  0.00    +0.000 A 
ATOM     18  F   UNL     1       9.823  13.444  21.304  0.00  0.00    +0.000 F 
ENDBRANCH   9  12
BRANCH   1  21
ATOM     19  C   UNL     1      10.899  14.240  17.423  0.00  0.00    +0.000 A 
ATOM     20  C   UNL     1       9.744  14.988  17.696  0.00  0.00    +0.000 A 
ATOM     21  C   UNL     1       8.532  14.384  18.080  0.00  0.00    +0.000 A 
ATOM     22  C   UNL     1       8.498  12.989  18.186  0.00  0.00    +0.000 A 
ATOM     23  C   UNL     1       9.649  12.232  17.958  0.00  0.00    +0.000 A 
ATOM     24  C   UNL     1      10.849  12.855  17.598  0.00  0.00    +0.000 A 
BRANCH  19  26
ATOM     25  C   UNL     1      11.806  16.427  17.073  0.00  0.00    +0.000 C 
ATOM     26  O   UNL     1      11.954  15.015  17.024  0.00  0.00    +0.000 OA
ENDBRANCH  19  26
BRANCH  24  27
ATOM     27  O   UNL     1      11.963  12.076  17.452  0.00  0.00    +0.000 OA
ATOM     28  H   UNL     1      11.699  11.212  17.095  0.00  0.00    +0.000 HD
ENDBRANCH  24  27
ENDBRANCH   1  21
BRANCH   7  29
ATOM     29  C   UNL     1       4.596  14.389  22.657  0.00  0.00    +0.000 C 
ATOM     30  O   UNL     1       3.446  14.249  22.267  0.00  0.00    +0.000 OA
BRANCH  29  31
ATOM     31  O   UNL     1       4.950  14.177  23.951  0.00  0.00    +0.000 OA
ATOM     32  H   UNL     1       5.562  13.426  24.052  0.00  0.00    +0.000 HD
ENDBRANCH  29  31
ENDBRANCH   7  29
TORSDOF 6
ENDMDL
MODEL 9
REMARK VINA RESULT:      -5.9      4.138      5.590
REMARK  Name = 
REMARK  7 active torsions:
REMARK  status: ('A' for Active; 'I' for Inactive)
REMARK    1  A    between atoms: C_1  and  O_2
REMARK    2  A    between atoms: O_2  and  C_3
REMARK    3  A    between atoms: C_5  and  C_6
REMARK    4  A    between atoms: C_12  and  C_13
REMARK    5  A    between atoms: C_13  and  O_15
REMARK    6  A    between atoms: N_17  and  C_18
REMARK    7  A    between atoms: C_28  and  O_29
REMARK                            x       y       z     vdW  Elec       q    Type
REMARK                         _______ _______ _______ _____ _____    ______ ____
ROOT
ATOM      1  C   UNL     1       1.463  12.958  18.642  0.00  0.00    +0.000 C 
ATOM      2  C   UNL     1       2.293  11.796  18.062  0.00  0.00    +0.000 C 
ATOM      3  C   UNL     1       1.689  10.416  18.258  0.00  0.00    +0.000 C 
ATOM      4  O   UNL     1       1.849   9.521  17.431  0.00  0.00    +0.000 OA
ATOM      5  N   UNL     1       1.083  10.175  19.467  0.00  0.00    +0.000 N 
ATOM      6  C   UNL     1       0.661  11.196  20.287  0.00  0.00    +0.000 A 
ATOM      7  C   UNL     1       0.128  11.151  21.595  0.00  0.00    +0.000 A 
ATOM      8  C   UNL     1      -0.190  12.465  21.906  0.00  0.00    +0.000 A 
ATOM      9  N   UNL     1       0.099  13.285  20.828  0.00  0.00    +0.000 N 
ATOM     10  C   UNL     1       0.748  12.506  19.885  0.00  0.00    +0.000 A 
ATOM     11  H   UNL     1       0.831   9.217  19.696  0.00  0.00    +0.000 HD
ENDROOT
BRANCH   9  12
ATOM     12  C   UNL     1      -0.185  14.670  20.754  0.00  0.00    +0.000 A 
ATOM     13  C   UNL     1      -1.188  15.139  19.894  0.00  0.00    +0.000 A 
ATOM     14  C   UNL     1      -1.367  16.512  19.719  0.00  0.00    +0.000 A 
ATOM     15  C   UNL     1      -0.559  17.415  20.408  0.00  0.00    +0.000 A 
ATOM     16  C   UNL     1       0.400  16.948  21.306  0.00  0.00    +0.000 A 
ATOM     17  C   UNL     1       0.574  15.579  21.486  0.00  0.00    +0.000 A 
ATOM     18  F   UNL     1       1.544  15.171  22.319  0.00  0.00    +0.000 F 
ENDBRANCH   9  12
BRANCH   1  21
ATOM     19  C   UNL     1       3.088  16.455  18.326  0.00  0.00    +0.000 A 
ATOM     20  C   UNL     1       2.268  15.340  18.100  0.00  0.00    +0.000 A 
ATOM     21  C   UNL     1       2.410  14.145  18.831  0.00  0.00    +0.000 A 
ATOM     22  C   UNL     1       3.408  14.087  19.810  0.00  0.00    +0.000 A 
ATOM     23  C   UNL     1       4.206  15.202  20.075  0.00  0.00    +0.000 A 
ATOM     24  C   UNL     1       4.033  16.387  19.352  0.00  0.00    +0.000 A 
BRANCH  19  26
ATOM     25  C   UNL     1       1.459  17.876  17.298  0.00  0.00    +0.000 C 
ATOM     26  O   UNL     1       2.816  17.496  17.481  0.00  0.00    +0.000 OA
ENDBRANCH  19  26
BRANCH  24  27
ATOM     27  O   UNL     1       4.794  17.470  19.696  0.00  0.00    +0.000 OA
ATOM     28  H   UNL     1       5.121  17.896  18.887  0.00  0.00    +0.000 HD
ENDBRANCH  24  27
ENDBRANCH   1  21
BRANCH   7  29
ATOM     29  C   UNL     1      -0.055   9.983  22.442  0.00  0.00    +0.000 C 
ATOM     30  O   UNL     1      -0.036  10.036  23.663  0.00  0.00    +0.000 OA
BRANCH  29  31
ATOM     31  O   UNL     1      -0.297   8.825  21.775  0.00  0.00    +0.000 OA
ATOM     32  H   UNL     1      -0.535   8.093  22.372  0.00  0.00    +0.000 HD
ENDBRANCH  29  31
ENDBRANCH   7  29
TORSDOF 6
ENDMDL
