MODEL 1
REMARK VINA RESULT:      -7.8      0.000      0.000
REMARK  Name = 
REMARK  1 active torsions:
REMARK  status: ('A' for Active; 'I' for Inactive)
REMARK    1  A    between atoms: C_12  and  C_13
REMARK                            x       y       z     vdW  Elec       q    Type
REMARK                         _______ _______ _______ _____ _____    ______ ____
ROOT
ATOM      1  O   UNL     1      -1.103  14.071  20.005  0.00  0.00    +0.000 OA
ATOM      2  C   UNL     1      -1.027  12.997  20.588  0.00  0.00    +0.000 A 
ATOM      3  C   UNL     1      -1.774  12.857  21.795  0.00  0.00    +0.000 A 
ATOM      4  C   UNL     1      -2.492  13.986  22.160  0.00  0.00    +0.000 A 
ATOM      5  C   UNL     1      -3.216  13.801  23.319  0.00  0.00    +0.000 A 
ATOM      6  C   UNL     1      -3.867  13.657  24.351  0.00  0.00    +0.000 A 
ATOM      7  C   UNL     1      -2.784  12.156  23.741  0.00  0.00    +0.000 A 
ATOM      8  C   UNL     1      -1.807  11.749  22.560  0.00  0.00    +0.000 A 
ATOM      9  N   UNL     1      -0.982  10.589  22.082  0.00  0.00    +0.000 NA
ATOM     10  C   UNL     1      -0.303  10.752  20.959  0.00  0.00    +0.000 A 
ATOM     11  N   UNL     1      -0.295  11.933  20.194  0.00  0.00    +0.000 N 
ATOM     12  C   UNL     1       0.576  11.876  18.986  0.00  0.00    +0.000 C 
ATOM     13  C   UNL     1       1.105  10.487  19.030  0.00  0.00    +0.000 A 
ATOM     14  C   UNL     1       1.975   9.843  18.171  0.00  0.00    +0.000 A 
ATOM     15  C   UNL     1       2.347   8.545  18.465  0.00  0.00    +0.000 A 
ATOM     16  C   UNL     1       3.212   7.884  17.607  0.00  0.00    +0.000 A 
ATOM     17  C   UNL     1       3.579   6.589  17.897  0.00  0.00    +0.000 A 
ATOM     18  C   UNL     1       3.092   5.964  19.023  0.00  0.00    +0.000 A 
ATOM     19  C   UNL     1       2.226   6.635  19.875  0.00  0.00    +0.000 A 
ATOM     20  C   UNL     1       1.832   7.935  19.625  0.00  0.00    +0.000 A 
ATOM     21  N   UNL     1       0.985   8.574  20.471  0.00  0.00    +0.000 NA
ATOM     22  C   UNL     1       0.637   9.833  20.157  0.00  0.00    +0.000 A 
ENDROOT
BRANCH  12  23
ATOM     23  C   UNL     1       1.697  12.877  19.026  0.00  0.00    +0.000 A 
ATOM     24  C   UNL     1       2.413  13.137  20.188  0.00  0.00    +0.000 A 
ATOM     25  C   UNL     1       3.241  14.249  20.289  0.00  0.00    +0.000 A 
ATOM     26  C   UNL     1       3.584  14.948  19.161  0.00  0.00    +0.000 A 
ATOM     27 CL   UNL     1       4.595  16.331  19.284  0.00  0.00    +0.000 Cl
ATOM     28  C   UNL     1       3.085  14.506  17.950  0.00  0.00    +0.000 A 
ATOM     29  C   UNL     1       2.052  13.574  17.889  0.00  0.00    +0.000 A 
ENDBRANCH  12  23
TORSDOF 1
ENDMDL
MODEL 2
REMARK VINA RESULT:      -7.4      3.221      7.305
REMARK  Name = 
REMARK  1 active torsions:
REMARK  status: ('A' for Active; 'I' for Inactive)
REMARK    1  A    between atoms: C_12  and  C_13
REMARK                            x       y       z     vdW  Elec       q    Type
REMARK                         _______ _______ _______ _____ _____    ______ ____
ROOT
ATOM      1  O   UNL     1       1.418   9.475  17.411  0.00  0.00    +0.000 OA
ATOM      2  C   UNL     1       1.166   9.280  18.593  0.00  0.00    +0.000 A 
ATOM      3  C   UNL     1       1.768   8.143  19.207  0.00  0.00    +0.000 A 
ATOM      4  C   UNL     1       2.565   7.387  18.360  0.00  0.00    +0.000 A 
ATOM      5  C   UNL     1       3.144   6.310  18.998  0.00  0.00    +0.000 A 
ATOM      6  C   UNL     1       3.668   5.344  19.547  0.00  0.00    +0.000 A 
ATOM      7  C   UNL     1       2.494   6.474  20.617  0.00  0.00    +0.000 A 
ATOM      8  C   UNL     1       1.602   7.779  20.494  0.00  0.00    +0.000 A 
ATOM      9  N   UNL     1       0.707   8.658  21.320  0.00  0.00    +0.000 NA
ATOM     10  C   UNL     1       0.167   9.705  20.720  0.00  0.00    +0.000 A 
ATOM     11  N   UNL     1       0.365  10.042  19.368  0.00  0.00    +0.000 N 
ATOM     12  C   UNL     1      -0.380  11.253  18.922  0.00  0.00    +0.000 C 
ATOM     13  C   UNL     1      -1.060  11.696  20.168  0.00  0.00    +0.000 A 
ATOM     14  C   UNL     1      -1.904  12.769  20.383  0.00  0.00    +0.000 A 
ATOM     15  C   UNL     1      -2.444  12.937  21.644  0.00  0.00    +0.000 A 
ATOM     16  C   UNL     1      -3.286  14.013  21.876  0.00  0.00    +0.000 A 
ATOM     17  C   UNL     1      -3.820  14.184  23.134  0.00  0.00    +0.000 A 
ATOM     18  C   UNL     1      -3.520  13.296  24.143  0.00  0.00    +0.000 A 
ATOM     19  C   UNL     1      -2.676  12.221  23.898  0.00  0.00    +0.000 A 
ATOM     20  C   UNL     1      -2.119  12.010  22.652  0.00  0.00    +0.000 A 
ATOM     21  N   UNL     1      -1.296  10.952  22.435  0.00  0.00    +0.000 NA
ATOM     22  C   UNL     1      -0.783  10.818  21.202  0.00  0.00    +0.000 A 
ENDROOT
BRANCH  12  23
ATOM     23  C   UNL     1      -1.383  10.957  17.842  0.00  0.00    +0.000 A 
ATOM     24  C   UNL     1      -1.994   9.714  17.722  0.00  0.00    +0.000 A 
ATOM     25  C   UNL     1      -2.690   9.362  16.572  0.00  0.00    +0.000 A 
ATOM     26  C   UNL     1      -3.025  10.326  15.657  0.00  0.00    +0.000 A 
ATOM     27 CL   UNL     1      -3.873   9.893  14.227  0.00  0.00    +0.000 Cl
ATOM     28  C   UNL     1      -2.653  11.630  15.926  0.00  0.00    +0.000 A 
ATOM     29  C   UNL     1      -1.732  11.929  16.926  0.00  0.00    +0.000 A 
ENDBRANCH  12  23
TORSDOF 1
ENDMDL
MODEL 3
REMARK VINA RESULT:      -7.3      3.188      6.744
REMARK  Name = 
REMARK  1 active torsions:
REMARK  status: ('A' for Active; 'I' for Inactive)
REMARK    1  A    between atoms: C_12  and  C_13
REMARK                            x       y       z     vdW  Elec       q    Type
REMARK                         _______ _______ _______ _____ _____    ______ ____
ROOT
ATOM      1  O   UNL     1      -0.012  10.834  18.428  0.00  0.00    +0.000 OA
ATOM      2  C   UNL     1      -1.101  11.307  18.729  0.00  0.00    +0.000 A 
ATOM      3  C   UNL     1      -2.189  11.049  17.844  0.00  0.00    +0.000 A 
ATOM      4  C   UNL     1      -1.856  10.293  16.730  0.00  0.00    +0.000 A 
ATOM      5  C   UNL     1      -2.940  10.049  15.913  0.00  0.00    +0.000 A 
ATOM      6  C   UNL     1      -3.892   9.823  15.170  0.00  0.00    +0.000 A 
ATOM      7  C   UNL     1      -4.214  10.905  16.758  0.00  0.00    +0.000 A 
ATOM      8  C   UNL     1      -3.451  11.489  18.020  0.00  0.00    +0.000 A 
ATOM      9  N   UNL     1      -3.699  12.312  19.251  0.00  0.00    +0.000 NA
ATOM     10  C   UNL     1      -2.669  12.530  20.051  0.00  0.00    +0.000 A 
ATOM     11  N   UNL     1      -1.364  12.054  19.822  0.00  0.00    +0.000 N 
ATOM     12  C   UNL     1      -0.372  12.462  20.857  0.00  0.00    +0.000 C 
ATOM     13  C   UNL     1      -1.202  13.232  21.820  0.00  0.00    +0.000 A 
ATOM     14  C   UNL     1      -0.839  13.870  22.991  0.00  0.00    +0.000 A 
ATOM     15  C   UNL     1      -1.809  14.561  23.691  0.00  0.00    +0.000 A 
ATOM     16  C   UNL     1      -1.461  15.199  24.871  0.00  0.00    +0.000 A 
ATOM     17  C   UNL     1      -2.428  15.883  25.572  0.00  0.00    +0.000 A 
ATOM     18  C   UNL     1      -3.722  15.931  25.103  0.00  0.00    +0.000 A 
ATOM     19  C   UNL     1      -4.060  15.290  23.920  0.00  0.00    +0.000 A 
ATOM     20  C   UNL     1      -3.122  14.593  23.183  0.00  0.00    +0.000 A 
ATOM     21  N   UNL     1      -3.474  13.973  22.028  0.00  0.00    +0.000 NA
ATOM     22  C   UNL     1      -2.511  13.305  21.373  0.00  0.00    +0.000 A 
ENDROOT
BRANCH  12  23
ATOM     23  C   UNL     1       0.733  13.318  20.301  0.00  0.00    +0.000 A 
ATOM     24  C   UNL     1       0.478  14.423  19.498  0.00  0.00    +0.000 A 
ATOM     25  C   UNL     1       1.491  15.028  18.765  0.00  0.00    +0.000 A 
ATOM     26  C   UNL     1       2.801  14.727  19.034  0.00  0.00    +0.000 A 
ATOM     27 CL   UNL     1       4.056  15.462  18.120  0.00  0.00    +0.000 Cl
ATOM     28  C   UNL     1       3.060  13.820  20.045  0.00  0.00    +0.000 A 
ATOM     29  C   UNL     1       2.052  13.023  20.580  0.00  0.00    +0.000 A 
ENDBRANCH  12  23
TORSDOF 1
ENDMDL
MODEL 4
REMARK VINA RESULT:      -7.1      6.885      8.359
REMARK  Name = 
REMARK  1 active torsions:
REMARK  status: ('A' for Active; 'I' for Inactive)
REMARK    1  A    between atoms: C_12  and  C_13
REMARK                            x       y       z     vdW  Elec       q    Type
REMARK                         _______ _______ _______ _____ _____    ______ ____
ROOT
ATOM      1  O   UNL     1       5.216  16.903  21.447  0.00  0.00    +0.000 OA
ATOM      2  C   UNL     1       5.447  16.264  20.428  0.00  0.00    +0.000 A 
ATOM      3  C   UNL     1       4.470  16.315  19.391  0.00  0.00    +0.000 A 
ATOM      4  C   UNL     1       3.358  17.089  19.689  0.00  0.00    +0.000 A 
ATOM      5  C   UNL     1       2.448  17.129  18.653  0.00  0.00    +0.000 A 
ATOM      6  C   UNL     1       1.624  17.177  17.742  0.00  0.00    +0.000 A 
ATOM      7  C   UNL     1       3.222  16.095  17.469  0.00  0.00    +0.000 A 
ATOM      8  C   UNL     1       4.562  15.677  18.208  0.00  0.00    +0.000 A 
ATOM      9  N   UNL     1       5.799  14.854  17.994  0.00  0.00    +0.000 NA
ATOM     10  C   UNL     1       6.686  14.830  18.975  0.00  0.00    +0.000 A 
ATOM     11  N   UNL     1       6.544  15.510  20.199  0.00  0.00    +0.000 N 
ATOM     12  C   UNL     1       7.668  15.297  21.154  0.00  0.00    +0.000 C 
ATOM     13  C   UNL     1       8.591  14.424  20.382  0.00  0.00    +0.000 A 
ATOM     14  C   UNL     1       9.811  13.884  20.745  0.00  0.00    +0.000 A 
ATOM     15  C   UNL     1      10.457  13.059  19.845  0.00  0.00    +0.000 A 
ATOM     16  C   UNL     1      11.685  12.517  20.192  0.00  0.00    +0.000 A 
ATOM     17  C   UNL     1      12.332  11.699  19.294  0.00  0.00    +0.000 A 
ATOM     18  C   UNL     1      11.765  11.425  18.070  0.00  0.00    +0.000 A 
ATOM     19  C   UNL     1      10.535  11.973  17.733  0.00  0.00    +0.000 A 
ATOM     20  C   UNL     1       9.849  12.797  18.603  0.00  0.00    +0.000 A 
ATOM     21  N   UNL     1       8.647  13.322  18.253  0.00  0.00    +0.000 NA
ATOM     22  C   UNL     1       8.045  14.125  19.145  0.00  0.00    +0.000 A 
ENDROOT
BRANCH  12  23
ATOM     23  C   UNL     1       7.234  14.624  22.427  0.00  0.00    +0.000 A 
ATOM     24  C   UNL     1       6.592  13.392  22.427  0.00  0.00    +0.000 A 
ATOM     25  C   UNL     1       5.948  12.917  23.564  0.00  0.00    +0.000 A 
ATOM     26  C   UNL     1       6.172  13.518  24.775  0.00  0.00    +0.000 A 
ATOM     27 CL   UNL     1       5.366  12.944  26.180  0.00  0.00    +0.000 Cl
ATOM     28  C   UNL     1       7.047  14.588  24.814  0.00  0.00    +0.000 A 
ATOM     29  C   UNL     1       7.468  15.221  23.648  0.00  0.00    +0.000 A 
ENDBRANCH  12  23
TORSDOF 1
ENDMDL
MODEL 5
REMARK VINA RESULT:      -7.0      6.865      8.391
REMARK  Name = 
REMARK  1 active torsions:
REMARK  status: ('A' for Active; 'I' for Inactive)
REMARK    1  A    between atoms: C_12  and  C_13
REMARK                            x       y       z     vdW  Elec       q    Type
REMARK                         _______ _______ _______ _____ _____    ______ ____
ROOT
ATOM      1  O   UNL     1       5.350  16.620  22.430  0.00  0.00    +0.000 OA
ATOM      2  C   UNL     1       5.538  16.161  21.310  0.00  0.00    +0.000 A 
ATOM      3  C   UNL     1       4.543  16.422  20.324  0.00  0.00    +0.000 A 
ATOM      4  C   UNL     1       3.464  17.166  20.779  0.00  0.00    +0.000 A 
ATOM      5  C   UNL     1       2.536  17.413  19.790  0.00  0.00    +0.000 A 
ATOM      6  C   UNL     1       1.696  17.644  18.924  0.00  0.00    +0.000 A 
ATOM      7  C   UNL     1       3.249  16.577  18.426  0.00  0.00    +0.000 A 
ATOM      8  C   UNL     1       4.588  15.997  19.046  0.00  0.00    +0.000 A 
ATOM      9  N   UNL     1       5.792  15.186  18.661  0.00  0.00    +0.000 NA
ATOM     10  C   UNL     1       6.697  14.964  19.599  0.00  0.00    +0.000 A 
ATOM     11  N   UNL     1       6.603  15.425  20.926  0.00  0.00    +0.000 N 
ATOM     12  C   UNL     1       7.739  15.015  21.800  0.00  0.00    +0.000 C 
ATOM     13  C   UNL     1       8.615  14.261  20.865  0.00  0.00    +0.000 A 
ATOM     14  C   UNL     1       9.822  13.629  21.097  0.00  0.00    +0.000 A 
ATOM     15  C   UNL     1      10.421  12.954  20.051  0.00  0.00    +0.000 A 
ATOM     16  C   UNL     1      11.636  12.322  20.267  0.00  0.00    +0.000 A 
ATOM     17  C   UNL     1      12.236  11.653  19.224  0.00  0.00    +0.000 A 
ATOM     18  C   UNL     1      11.635  11.614  17.986  0.00  0.00    +0.000 A 
ATOM     19  C   UNL     1      10.418  12.249  17.781  0.00  0.00    +0.000 A 
ATOM     20  C   UNL     1       9.779  12.931  18.798  0.00  0.00    +0.000 A 
ATOM     21  N   UNL     1       8.589  13.545  18.576  0.00  0.00    +0.000 NA
ATOM     22  C   UNL     1       8.033  14.198  19.609  0.00  0.00    +0.000 A 
ENDROOT
BRANCH  12  23
ATOM     23  C   UNL     1       7.308  14.144  22.947  0.00  0.00    +0.000 A 
ATOM     24  C   UNL     1       7.630  14.446  24.265  0.00  0.00    +0.000 A 
ATOM     25  C   UNL     1       7.480  13.505  25.276  0.00  0.00    +0.000 A 
ATOM     26  C   UNL     1       6.753  12.366  25.045  0.00  0.00    +0.000 A 
ATOM     27 CL   UNL     1       6.578  11.193  26.288  0.00  0.00    +0.000 Cl
ATOM     28  C   UNL     1       6.188  12.203  23.793  0.00  0.00    +0.000 A 
ATOM     29  C   UNL     1       6.566  13.003  22.718  0.00  0.00    +0.000 A 
ENDBRANCH  12  23
TORSDOF 1
ENDMDL
MODEL 6
REMARK VINA RESULT:      -7.0      0.967      1.344
REMARK  Name = 
REMARK  1 active torsions:
REMARK  status: ('A' for Active; 'I' for Inactive)
REMARK    1  A    between atoms: C_12  and  C_13
REMARK                            x       y       z     vdW  Elec       q    Type
REMARK                         _______ _______ _______ _____ _____    ______ ____
ROOT
ATOM      1  O   UNL     1      -0.913  15.052  20.243  0.00  0.00    +0.000 OA
ATOM      2  C   UNL     1      -0.905  14.008  20.882  0.00  0.00    +0.000 A 
ATOM      3  C   UNL     1      -1.581  14.007  22.137  0.00  0.00    +0.000 A 
ATOM      4  C   UNL     1      -2.159  15.221  22.478  0.00  0.00    +0.000 A 
ATOM      5  C   UNL     1      -2.820  15.172  23.687  0.00  0.00    +0.000 A 
ATOM      6  C   UNL     1      -3.413  15.150  24.763  0.00  0.00    +0.000 A 
ATOM      7  C   UNL     1      -2.526  13.516  24.178  0.00  0.00    +0.000 A 
ATOM      8  C   UNL     1      -1.674  12.950  22.967  0.00  0.00    +0.000 A 
ATOM      9  N   UNL     1      -1.000  11.688  22.509  0.00  0.00    +0.000 NA
ATOM     10  C   UNL     1      -0.384  11.722  21.339  0.00  0.00    +0.000 A 
ATOM     11  N   UNL     1      -0.309  12.855  20.508  0.00  0.00    +0.000 N 
ATOM     12  C   UNL     1       0.470  12.646  19.254  0.00  0.00    +0.000 C 
ATOM     13  C   UNL     1       0.862  11.215  19.348  0.00  0.00    +0.000 A 
ATOM     14  C   UNL     1       1.605  10.441  18.477  0.00  0.00    +0.000 A 
ATOM     15  C   UNL     1       1.866   9.129  18.824  0.00  0.00    +0.000 A 
ATOM     16  C   UNL     1       2.604   8.339  17.956  0.00  0.00    +0.000 A 
ATOM     17  C   UNL     1       2.859   7.030  18.298  0.00  0.00    +0.000 A 
ATOM     18  C   UNL     1       2.387   6.518  19.486  0.00  0.00    +0.000 A 
ATOM     19  C   UNL     1       1.650   7.318  20.348  0.00  0.00    +0.000 A 
ATOM     20  C   UNL     1       1.371   8.637  20.046  0.00  0.00    +0.000 A 
ATOM     21  N   UNL     1       0.649   9.402  20.903  0.00  0.00    +0.000 NA
ATOM     22  C   UNL     1       0.406  10.671  20.538  0.00  0.00    +0.000 A 
ENDROOT
BRANCH  12  23
ATOM     23  C   UNL     1       1.685  13.528  19.168  0.00  0.00    +0.000 A 
ATOM     24  C   UNL     1       1.963  14.294  18.042  0.00  0.00    +0.000 A 
ATOM     25  C   UNL     1       3.213  14.873  17.857  0.00  0.00    +0.000 A 
ATOM     26  C   UNL     1       4.096  14.936  18.903  0.00  0.00    +0.000 A 
ATOM     27 CL   UNL     1       5.648  15.638  18.674  0.00  0.00    +0.000 Cl
ATOM     28  C   UNL     1       3.697  14.414  20.119  0.00  0.00    +0.000 A 
ATOM     29  C   UNL     1       2.571  13.602  20.224  0.00  0.00    +0.000 A 
ENDBRANCH  12  23
TORSDOF 1
ENDMDL
MODEL 7
REMARK VINA RESULT:      -7.0      7.064      8.571
REMARK  Name = 
REMARK  1 active torsions:
REMARK  status: ('A' for Active; 'I' for Inactive)
REMARK    1  A    between atoms: C_12  and  C_13
REMARK                            x       y       z     vdW  Elec       q    Type
REMARK                         _______ _______ _______ _____ _____    ______ ____
ROOT
ATOM      1  O   UNL     1       5.948  16.182  23.902  0.00  0.00    +0.000 OA
ATOM      2  C   UNL     1       5.974  15.962  22.698  0.00  0.00    +0.000 A 
ATOM      3  C   UNL     1       4.911  16.500  21.914  0.00  0.00    +0.000 A 
ATOM      4  C   UNL     1       3.963  17.206  22.640  0.00  0.00    +0.000 A 
ATOM      5  C   UNL     1       2.966  17.727  21.843  0.00  0.00    +0.000 A 
ATOM      6  C   UNL     1       2.067  18.198  21.150  0.00  0.00    +0.000 A 
ATOM      7  C   UNL     1       3.450  17.153  20.259  0.00  0.00    +0.000 A 
ATOM      8  C   UNL     1       4.783  16.356  20.580  0.00  0.00    +0.000 A 
ATOM      9  N   UNL     1       5.856  15.561  19.894  0.00  0.00    +0.000 NA
ATOM     10  C   UNL     1       6.828  15.078  20.650  0.00  0.00    +0.000 A 
ATOM     11  N   UNL     1       6.917  15.249  22.044  0.00  0.00    +0.000 N 
ATOM     12  C   UNL     1       8.091  14.580  22.671  0.00  0.00    +0.000 C 
ATOM     13  C   UNL     1       8.789  13.983  21.502  0.00  0.00    +0.000 A 
ATOM     14  C   UNL     1       9.947  13.229  21.451  0.00  0.00    +0.000 A 
ATOM     15  C   UNL     1      10.366  12.751  20.225  0.00  0.00    +0.000 A 
ATOM     16  C   UNL     1      11.530  12.001  20.158  0.00  0.00    +0.000 A 
ATOM     17  C   UNL     1      11.951  11.530  18.935  0.00  0.00    +0.000 A 
ATOM     18  C   UNL     1      11.224  11.801  17.798  0.00  0.00    +0.000 A 
ATOM     19  C   UNL     1      10.060  12.552  17.876  0.00  0.00    +0.000 A 
ATOM     20  C   UNL     1       9.599  13.045  19.082  0.00  0.00    +0.000 A 
ATOM     21  N   UNL     1       8.457  13.777  19.136  0.00  0.00    +0.000 NA
ATOM     22  C   UNL     1       8.077  14.233  20.341  0.00  0.00    +0.000 A 
ENDROOT
BRANCH  12  23
ATOM     23  C   UNL     1       7.699  13.517  23.660  0.00  0.00    +0.000 A 
ATOM     24  C   UNL     1       6.832  12.484  23.327  0.00  0.00    +0.000 A 
ATOM     25  C   UNL     1       6.257  11.683  24.307  0.00  0.00    +0.000 A 
ATOM     26  C   UNL     1       6.748  11.715  25.587  0.00  0.00    +0.000 A 
ATOM     27 CL   UNL     1       6.030  10.738  26.805  0.00  0.00    +0.000 Cl
ATOM     28  C   UNL     1       7.814  12.554  25.850  0.00  0.00    +0.000 A 
ATOM     29  C   UNL     1       8.200  13.540  24.946  0.00  0.00    +0.000 A 
ENDBRANCH  12  23
TORSDOF 1
ENDMDL
MODEL 8
REMARK VINA RESULT:      -7.0      3.281      6.204
REMARK  Name = 
REMARK  1 active torsions:
REMARK  status: ('A' for Active; 'I' for Inactive)
REMARK    1  A    between atoms: C_12  and  C_13
REMARK                            x       y       z     vdW  Elec       q    Type
REMARK                         _______ _______ _______ _____ _____    ______ ____
ROOT
ATOM      1  O   UNL     1       2.719  12.939  19.203  0.00  0.00    +0.000 OA
ATOM      2  C   UNL     1       1.755  13.360  19.830  0.00  0.00    +0.000 A 
ATOM      3  C   UNL     1       2.015  14.306  20.865  0.00  0.00    +0.000 A 
ATOM      4  C   UNL     1       3.356  14.617  21.035  0.00  0.00    +0.000 A 
ATOM      5  C   UNL     1       3.561  15.549  22.031  0.00  0.00    +0.000 A 
ATOM      6  C   UNL     1       3.766  16.378  22.915  0.00  0.00    +0.000 A 
ATOM      7  C   UNL     1       1.925  15.824  22.594  0.00  0.00    +0.000 A 
ATOM      8  C   UNL     1       1.077  14.872  21.650  0.00  0.00    +0.000 A 
ATOM      9  N   UNL     1      -0.342  14.454  21.393  0.00  0.00    +0.000 NA
ATOM     10  C   UNL     1      -0.548  13.577  20.424  0.00  0.00    +0.000 A 
ATOM     11  N   UNL     1       0.467  13.007  19.632  0.00  0.00    +0.000 N 
ATOM     12  C   UNL     1      -0.020  12.020  18.627  0.00  0.00    +0.000 C 
ATOM     13  C   UNL     1      -1.492  12.047  18.830  0.00  0.00    +0.000 A 
ATOM     14  C   UNL     1      -2.488  11.335  18.189  0.00  0.00    +0.000 A 
ATOM     15  C   UNL     1      -3.795  11.516  18.601  0.00  0.00    +0.000 A 
ATOM     16  C   UNL     1      -4.804  10.814  17.961  0.00  0.00    +0.000 A 
ATOM     17  C   UNL     1      -6.107  10.999  18.367  0.00  0.00    +0.000 A 
ATOM     18  C   UNL     1      -6.397  11.868  19.395  0.00  0.00    +0.000 A 
ATOM     19  C   UNL     1      -5.379  12.565  20.029  0.00  0.00    +0.000 A 
ATOM     20  C   UNL     1      -4.058  12.411  19.655  0.00  0.00    +0.000 A 
ATOM     21  N   UNL     1      -3.077  13.102  20.289  0.00  0.00    +0.000 NA
ATOM     22  C   UNL     1      -1.817  12.910  19.864  0.00  0.00    +0.000 A 
ENDROOT
BRANCH  12  23
ATOM     23  C   UNL     1       0.526  10.638  18.854  0.00  0.00    +0.000 A 
ATOM     24  C   UNL     1       0.348   9.962  20.055  0.00  0.00    +0.000 A 
ATOM     25  C   UNL     1       1.086   8.824  20.357  0.00  0.00    +0.000 A 
ATOM     26  C   UNL     1       1.793   8.189  19.369  0.00  0.00    +0.000 A 
ATOM     27 CL   UNL     1       2.718   6.790  19.741  0.00  0.00    +0.000 Cl
ATOM     28  C   UNL     1       1.736   8.717  18.092  0.00  0.00    +0.000 A 
ATOM     29  C   UNL     1       1.228   9.991  17.857  0.00  0.00    +0.000 A 
ENDBRANCH  12  23
TORSDOF 1
ENDMDL
MODEL 9
REMARK VINA RESULT:      -6.7      3.355      6.506
REMARK  Name = 
REMARK  1 active torsions:
REMARK  status: ('A' for Active; 'I' for Inactive)
REMARK    1  A    between atoms: C_12  and  C_13
REMARK                            x       y       z     vdW  Elec       q    Type
REMARK                         _______ _______ _______ _____ _____    ______ ____
ROOT
ATOM      1  O   UNL     1      -2.368  12.177  23.137  0.00  0.00    +0.000 OA
ATOM      2  C   UNL     1      -2.844  13.145  22.558  0.00  0.00    +0.000 A 
ATOM      3  C   UNL     1      -4.213  13.450  22.816  0.00  0.00    +0.000 A 
ATOM      4  C   UNL     1      -4.838  12.582  23.698  0.00  0.00    +0.000 A 
ATOM      5  C   UNL     1      -6.152  12.925  23.937  0.00  0.00    +0.000 A 
ATOM      6  C   UNL     1      -7.326  13.212  24.162  0.00  0.00    +0.000 A 
ATOM      7  C   UNL     1      -6.337  14.333  22.911  0.00  0.00    +0.000 A 
ATOM      8  C   UNL     1      -4.894  14.476  22.269  0.00  0.00    +0.000 A 
ATOM      9  N   UNL     1      -4.127  15.346  21.315  0.00  0.00    +0.000 NA
ATOM     10  C   UNL     1      -2.860  15.036  21.099  0.00  0.00    +0.000 A 
ATOM     11  N   UNL     1      -2.191  13.949  21.691  0.00  0.00    +0.000 N 
ATOM     12  C   UNL     1      -0.772  13.793  21.262  0.00  0.00    +0.000 C 
ATOM     13  C   UNL     1      -0.581  14.946  20.343  0.00  0.00    +0.000 A 
ATOM     14  C   UNL     1       0.536  15.332  19.626  0.00  0.00    +0.000 A 
ATOM     15  C   UNL     1       0.437  16.435  18.800  0.00  0.00    +0.000 A 
ATOM     16  C   UNL     1       1.551  16.838  18.080  0.00  0.00    +0.000 A 
ATOM     17  C   UNL     1       1.455  17.940  17.262  0.00  0.00    +0.000 A 
ATOM     18  C   UNL     1       0.267  18.630  17.161  0.00  0.00    +0.000 A 
ATOM     19  C   UNL     1      -0.842  18.217  17.886  0.00  0.00    +0.000 A 
ATOM     20  C   UNL     1      -0.792  17.117  18.718  0.00  0.00    +0.000 A 
ATOM     21  N   UNL     1      -1.890  16.730  19.418  0.00  0.00    +0.000 NA
ATOM     22  C   UNL     1      -1.762  15.658  20.216  0.00  0.00    +0.000 A 
ENDROOT
BRANCH  12  23
ATOM     23  C   UNL     1      -0.517  12.494  20.549  0.00  0.00    +0.000 A 
ATOM     24  C   UNL     1       0.399  11.561  21.020  0.00  0.00    +0.000 A 
ATOM     25  C   UNL     1       0.834  10.512  20.219  0.00  0.00    +0.000 A 
ATOM     26  C   UNL     1       0.164  10.216  19.061  0.00  0.00    +0.000 A 
ATOM     27 CL   UNL     1       0.707   8.929  18.060  0.00  0.00    +0.000 Cl
ATOM     28  C   UNL     1      -0.938  10.986  18.737  0.00  0.00    +0.000 A 
ATOM     29  C   UNL     1      -1.199  12.188  19.389  0.00  0.00    +0.000 A 
ENDBRANCH  12  23
TORSDOF 1
ENDMDL
