MODEL 1
REMARK VINA RESULT:      -6.8      0.000      0.000
REMARK  Name = 
REMARK  10 active torsions:
REMARK  status: ('A' for Active; 'I' for Inactive)
REMARK    1  A    between atoms: C_1  and  C_2
REMARK    2  A    between atoms: N_4  and  C_5
REMARK    3  A    between atoms: N_4  and  C_13
REMARK    4  A    between atoms: C_5  and  C_6
REMARK    5  A    between atoms: C_6  and  N_7
REMARK    6  A    between atoms: N_17  and  C_18
REMARK    7  A    between atoms: C_18  and  C_19
REMARK    8  A    between atoms: C_20  and  C_21
REMARK    9  A    between atoms: N_23  and  C_24
REMARK   10  A    between atoms: C_25  and  C_26
REMARK                            x       y       z     vdW  Elec       q    Type
REMARK                         _______ _______ _______ _____ _____    ______ ____
ROOT
ATOM      1  C   UNL     1       0.804   9.430  19.943  0.00  0.00    +0.000 C 
ATOM      2  C   UNL     1       1.228  10.176  18.671  0.00  0.00    +0.000 C 
ATOM      3  C   UNL     1       1.467   9.171  17.539  0.00  0.00    +0.000 C 
ATOM      4  C   UNL     1       2.460   8.072  17.942  0.00  0.00    +0.000 C 
ATOM      5  N   UNL     1       2.042   7.354  19.160  0.00  0.00    +0.000 NA
ATOM      6  C   UNL     1       1.834   8.316  20.252  0.00  0.00    +0.000 C 
ENDROOT
BRANCH   1  10
ATOM      7  C   UNL     1      -0.547   8.459  22.363  0.00  0.00    +0.000 C 
ATOM      8  C   UNL     1      -0.038   9.883  22.289  0.00  0.00    +0.000 C 
ATOM      9  O   UNL     1      -0.205  10.608  23.272  0.00  0.00    +0.000 OA
ATOM     10  N   UNL     1       0.550  10.328  21.109  0.00  0.00    +0.000 N 
BRANCH  10  11
ATOM     11  C   UNL     1       0.894  11.759  20.924  0.00  0.00    +0.000 C 
BRANCH  11  12
ATOM     12  C   UNL     1      -0.183  12.824  20.638  0.00  0.00    +0.000 C 
BRANCH  12  13
ATOM     13  N   UNL     1       0.268  13.791  19.598  0.00  0.00    +0.000 NA
ATOM     14  C   UNL     1      -0.333  15.124  19.769  0.00  0.00    +0.000 C 
ATOM     15  C   UNL     1       0.117  16.081  18.663  0.00  0.00    +0.000 C 
ATOM     16  C   UNL     1       1.635  16.189  18.614  0.00  0.00    +0.000 C 
ATOM     17  C   UNL     1       2.253  14.801  18.504  0.00  0.00    +0.000 C 
ATOM     18  C   UNL     1       1.738  13.874  19.607  0.00  0.00    +0.000 C 
ENDBRANCH  12  13
ENDBRANCH  11  12
ENDBRANCH  10  11
ENDBRANCH   1  10
BRANCH   5  19
ATOM     19  C   UNL     1       3.082   6.370  19.553  0.00  0.00    +0.000 C 
BRANCH  19  20
ATOM     20  C   UNL     1       3.454   5.455  18.423  0.00  0.00    +0.000 A 
ATOM     21  C   UNL     1       2.723   4.345  17.898  0.00  0.00    +0.000 A 
ATOM     22  C   UNL     1       1.388   3.842  18.301  0.00  0.00    +0.000 C 
ATOM     23  N   UNL     1       3.393   3.713  16.927  0.00  0.00    +0.000 NA
ATOM     24  N   UNL     1       4.543   4.389  16.826  0.00  0.00    +0.000 N 
ATOM     25  C   UNL     1       5.560   3.894  15.918  0.00  0.00    +0.000 C 
ATOM     26  C   UNL     1       4.610   5.491  17.637  0.00  0.00    +0.000 A 
ATOM     27  C   UNL     1       5.725   6.469  17.618  0.00  0.00    +0.000 C 
ENDBRANCH  19  20
ENDBRANCH   5  19
TORSDOF 6
ENDMDL
MODEL 2
REMARK VINA RESULT:      -6.7      0.911      2.210
REMARK  Name = 
REMARK  10 active torsions:
REMARK  status: ('A' for Active; 'I' for Inactive)
REMARK    1  A    between atoms: C_1  and  C_2
REMARK    2  A    between atoms: N_4  and  C_5
REMARK    3  A    between atoms: N_4  and  C_13
REMARK    4  A    between atoms: C_5  and  C_6
REMARK    5  A    between atoms: C_6  and  N_7
REMARK    6  A    between atoms: N_17  and  C_18
REMARK    7  A    between atoms: C_18  and  C_19
REMARK    8  A    between atoms: C_20  and  C_21
REMARK    9  A    between atoms: N_23  and  C_24
REMARK   10  A    between atoms: C_25  and  C_26
REMARK                            x       y       z     vdW  Elec       q    Type
REMARK                         _______ _______ _______ _____ _____    ______ ____
ROOT
ATOM      1  C   UNL     1       0.865   9.517  19.907  0.00  0.00    +0.000 C 
ATOM      2  C   UNL     1       1.305  10.274  18.648  0.00  0.00    +0.000 C 
ATOM      3  C   UNL     1       1.548   9.281  17.506  0.00  0.00    +0.000 C 
ATOM      4  C   UNL     1       2.530   8.171  17.906  0.00  0.00    +0.000 C 
ATOM      5  N   UNL     1       2.096   7.442  19.111  0.00  0.00    +0.000 NA
ATOM      6  C   UNL     1       1.884   8.392  20.212  0.00  0.00    +0.000 C 
ENDROOT
BRANCH   1  10
ATOM      7  C   UNL     1      -0.604   8.556  22.262  0.00  0.00    +0.000 C 
ATOM      8  C   UNL     1      -0.039   9.960  22.232  0.00  0.00    +0.000 C 
ATOM      9  O   UNL     1      -0.211  10.673  23.223  0.00  0.00    +0.000 OA
ATOM     10  N   UNL     1       0.605  10.403  21.080  0.00  0.00    +0.000 N 
BRANCH  10  11
ATOM     11  C   UNL     1       1.009  11.823  20.935  0.00  0.00    +0.000 C 
BRANCH  11  12
ATOM     12  C   UNL     1       0.008  12.914  20.506  0.00  0.00    +0.000 C 
BRANCH  12  13
ATOM     13  N   UNL     1       0.698  14.198  20.197  0.00  0.00    +0.000 NA
ATOM     14  C   UNL     1       1.930  14.003  19.415  0.00  0.00    +0.000 C 
ATOM     15  C   UNL     1       2.635  15.335  19.150  0.00  0.00    +0.000 C 
ATOM     16  C   UNL     1       1.709  16.316  18.443  0.00  0.00    +0.000 C 
ATOM     17  C   UNL     1       0.409  16.462  19.224  0.00  0.00    +0.000 C 
ATOM     18  C   UNL     1      -0.231  15.099  19.496  0.00  0.00    +0.000 C 
ENDBRANCH  12  13
ENDBRANCH  11  12
ENDBRANCH  10  11
ENDBRANCH   1  10
BRANCH   5  19
ATOM     19  C   UNL     1       3.125   6.446  19.503  0.00  0.00    +0.000 C 
BRANCH  19  20
ATOM     20  C   UNL     1       2.831   5.079  18.955  0.00  0.00    +0.000 A 
ATOM     21  C   UNL     1       3.372   4.451  17.792  0.00  0.00    +0.000 A 
ATOM     22  C   UNL     1       4.398   4.967  16.854  0.00  0.00    +0.000 C 
ATOM     23  N   UNL     1       2.830   3.248  17.569  0.00  0.00    +0.000 NA
ATOM     24  N   UNL     1       1.945   3.096  18.561  0.00  0.00    +0.000 N 
ATOM     25  C   UNL     1       1.096   1.921  18.559  0.00  0.00    +0.000 C 
ATOM     26  C   UNL     1       1.953   4.121  19.470  0.00  0.00    +0.000 A 
ATOM     27  C   UNL     1       1.155   4.127  20.720  0.00  0.00    +0.000 C 
ENDBRANCH  19  20
ENDBRANCH   5  19
TORSDOF 6
ENDMDL
MODEL 3
REMARK VINA RESULT:      -6.7      3.048      4.093
REMARK  Name = 
REMARK  10 active torsions:
REMARK  status: ('A' for Active; 'I' for Inactive)
REMARK    1  A    between atoms: C_1  and  C_2
REMARK    2  A    between atoms: N_4  and  C_5
REMARK    3  A    between atoms: N_4  and  C_13
REMARK    4  A    between atoms: C_5  and  C_6
REMARK    5  A    between atoms: C_6  and  N_7
REMARK    6  A    between atoms: N_17  and  C_18
REMARK    7  A    between atoms: C_18  and  C_19
REMARK    8  A    between atoms: C_20  and  C_21
REMARK    9  A    between atoms: N_23  and  C_24
REMARK   10  A    between atoms: C_25  and  C_26
REMARK                            x       y       z     vdW  Elec       q    Type
REMARK                         _______ _______ _______ _____ _____    ______ ____
ROOT
ATOM      1  C   UNL     1       1.449   9.852  19.754  0.00  0.00    +0.000 C 
ATOM      2  C   UNL     1       0.751   9.340  21.020  0.00  0.00    +0.000 C 
ATOM      3  C   UNL     1       1.531   8.153  21.596  0.00  0.00    +0.000 C 
ATOM      4  C   UNL     1       1.756   7.049  20.553  0.00  0.00    +0.000 C 
ATOM      5  N   UNL     1       2.436   7.547  19.343  0.00  0.00    +0.000 NA
ATOM      6  C   UNL     1       1.676   8.672  18.779  0.00  0.00    +0.000 C 
ENDROOT
BRANCH   1  10
ATOM      7  C   UNL     1       2.166  12.622  20.419  0.00  0.00    +0.000 C 
ATOM      8  C   UNL     1       1.114  12.334  19.369  0.00  0.00    +0.000 C 
ATOM      9  O   UNL     1       0.581  13.293  18.807  0.00  0.00    +0.000 OA
ATOM     10  N   UNL     1       0.759  11.012  19.115  0.00  0.00    +0.000 N 
BRANCH  10  11
ATOM     11  C   UNL     1      -0.391  10.690  18.235  0.00  0.00    +0.000 C 
BRANCH  11  12
ATOM     12  C   UNL     1      -1.805  10.453  18.799  0.00  0.00    +0.000 C 
BRANCH  12  13
ATOM     13  N   UNL     1      -2.811  10.309  17.709  0.00  0.00    +0.000 NA
ATOM     14  C   UNL     1      -3.640  11.514  17.542  0.00  0.00    +0.000 C 
ATOM     15  C   UNL     1      -4.688  11.318  16.444  0.00  0.00    +0.000 C 
ATOM     16  C   UNL     1      -4.035  10.939  15.122  0.00  0.00    +0.000 C 
ATOM     17  C   UNL     1      -3.127   9.731  15.316  0.00  0.00    +0.000 C 
ATOM     18  C   UNL     1      -2.127   9.964  16.451  0.00  0.00    +0.000 C 
ENDBRANCH  12  13
ENDBRANCH  11  12
ENDBRANCH  10  11
ENDBRANCH   1  10
BRANCH   5  19
ATOM     19  C   UNL     1       2.545   6.463  18.336  0.00  0.00    +0.000 C 
BRANCH  19  20
ATOM     20  C   UNL     1       3.823   5.687  18.472  0.00  0.00    +0.000 A 
ATOM     21  C   UNL     1       4.085   4.536  19.277  0.00  0.00    +0.000 A 
ATOM     22  C   UNL     1       3.151   3.783  20.147  0.00  0.00    +0.000 C 
ATOM     23  N   UNL     1       5.362   4.145  19.200  0.00  0.00    +0.000 NA
ATOM     24  N   UNL     1       5.928   5.029  18.368  0.00  0.00    +0.000 N 
ATOM     25  C   UNL     1       7.358   4.952  18.143  0.00  0.00    +0.000 C 
ATOM     26  C   UNL     1       5.043   5.929  17.835  0.00  0.00    +0.000 A 
ATOM     27  C   UNL     1       5.400   6.927  16.796  0.00  0.00    +0.000 C 
ENDBRANCH  19  20
ENDBRANCH   5  19
TORSDOF 6
ENDMDL
MODEL 4
REMARK VINA RESULT:      -6.7      2.972      4.319
REMARK  Name = 
REMARK  10 active torsions:
REMARK  status: ('A' for Active; 'I' for Inactive)
REMARK    1  A    between atoms: C_1  and  C_2
REMARK    2  A    between atoms: N_4  and  C_5
REMARK    3  A    between atoms: N_4  and  C_13
REMARK    4  A    between atoms: C_5  and  C_6
REMARK    5  A    between atoms: C_6  and  N_7
REMARK    6  A    between atoms: N_17  and  C_18
REMARK    7  A    between atoms: C_18  and  C_19
REMARK    8  A    between atoms: C_20  and  C_21
REMARK    9  A    between atoms: N_23  and  C_24
REMARK   10  A    between atoms: C_25  and  C_26
REMARK                            x       y       z     vdW  Elec       q    Type
REMARK                         _______ _______ _______ _____ _____    ______ ____
ROOT
ATOM      1  C   UNL     1       1.318  10.633  20.101  0.00  0.00    +0.000 C 
ATOM      2  C   UNL     1       0.659  10.238  21.428  0.00  0.00    +0.000 C 
ATOM      3  C   UNL     1       1.306   8.955  21.965  0.00  0.00    +0.000 C 
ATOM      4  C   UNL     1       1.283   7.822  20.930  0.00  0.00    +0.000 C 
ATOM      5  N   UNL     1       1.927   8.205  19.660  0.00  0.00    +0.000 NA
ATOM      6  C   UNL     1       1.293   9.423  19.135  0.00  0.00    +0.000 C 
ENDROOT
BRANCH   1  10
ATOM      7  C   UNL     1       2.345  13.292  20.809  0.00  0.00    +0.000 C 
ATOM      8  C   UNL     1       1.254  13.143  19.770  0.00  0.00    +0.000 C 
ATOM      9  O   UNL     1       0.824  14.167  19.234  0.00  0.00    +0.000 OA
ATOM     10  N   UNL     1       0.752  11.874  19.496  0.00  0.00    +0.000 N 
BRANCH  10  11
ATOM     11  C   UNL     1      -0.437  11.700  18.627  0.00  0.00    +0.000 C 
BRANCH  11  12
ATOM     12  C   UNL     1      -1.829  11.385  19.207  0.00  0.00    +0.000 C 
BRANCH  12  13
ATOM     13  N   UNL     1      -2.739  10.822  18.170  0.00  0.00    +0.000 NA
ATOM     14  C   UNL     1      -3.757  11.789  17.728  0.00  0.00    +0.000 C 
ATOM     15  C   UNL     1      -4.700  11.168  16.694  0.00  0.00    +0.000 C 
ATOM     16  C   UNL     1      -3.926  10.631  15.497  0.00  0.00    +0.000 C 
ATOM     17  C   UNL     1      -2.831   9.682  15.967  0.00  0.00    +0.000 C 
ATOM     18  C   UNL     1      -1.945  10.338  17.028  0.00  0.00    +0.000 C 
ENDBRANCH  12  13
ENDBRANCH  11  12
ENDBRANCH  10  11
ENDBRANCH   1  10
BRANCH   5  19
ATOM     19  C   UNL     1       1.795   7.107  18.670  0.00  0.00    +0.000 C 
BRANCH  19  20
ATOM     20  C   UNL     1       2.859   6.061  18.838  0.00  0.00    +0.000 A 
ATOM     21  C   UNL     1       4.146   5.993  18.222  0.00  0.00    +0.000 A 
ATOM     22  C   UNL     1       4.782   6.962  17.298  0.00  0.00    +0.000 C 
ATOM     23  N   UNL     1       4.807   4.878  18.554  0.00  0.00    +0.000 NA
ATOM     24  N   UNL     1       3.965   4.224  19.363  0.00  0.00    +0.000 N 
ATOM     25  C   UNL     1       4.338   2.903  19.831  0.00  0.00    +0.000 C 
ATOM     26  C   UNL     1       2.814   4.915  19.638  0.00  0.00    +0.000 A 
ATOM     27  C   UNL     1       1.783   4.460  20.602  0.00  0.00    +0.000 C 
ENDBRANCH  19  20
ENDBRANCH   5  19
TORSDOF 6
ENDMDL
MODEL 5
REMARK VINA RESULT:      -6.6      2.941      4.128
REMARK  Name = 
REMARK  10 active torsions:
REMARK  status: ('A' for Active; 'I' for Inactive)
REMARK    1  A    between atoms: C_1  and  C_2
REMARK    2  A    between atoms: N_4  and  C_5
REMARK    3  A    between atoms: N_4  and  C_13
REMARK    4  A    between atoms: C_5  and  C_6
REMARK    5  A    between atoms: C_6  and  N_7
REMARK    6  A    between atoms: N_17  and  C_18
REMARK    7  A    between atoms: C_18  and  C_19
REMARK    8  A    between atoms: C_20  and  C_21
REMARK    9  A    between atoms: N_23  and  C_24
REMARK   10  A    between atoms: C_25  and  C_26
REMARK                            x       y       z     vdW  Elec       q    Type
REMARK                         _______ _______ _______ _____ _____    ______ ____
ROOT
ATOM      1  C   UNL     1       1.100  10.651  19.994  0.00  0.00    +0.000 C 
ATOM      2  C   UNL     1       0.622  10.163  21.367  0.00  0.00    +0.000 C 
ATOM      3  C   UNL     1       1.444   8.942  21.796  0.00  0.00    +0.000 C 
ATOM      4  C   UNL     1       1.430   7.834  20.734  0.00  0.00    +0.000 C 
ATOM      5  N   UNL     1       1.899   8.309  19.419  0.00  0.00    +0.000 NA
ATOM      6  C   UNL     1       1.096   9.466  18.997  0.00  0.00    +0.000 C 
ENDROOT
BRANCH   1  10
ATOM      7  C   UNL     1       2.402  12.677  18.312  0.00  0.00    +0.000 C 
ATOM      8  C   UNL     1       0.929  12.788  18.644  0.00  0.00    +0.000 C 
ATOM      9  O   UNL     1       0.303  13.745  18.182  0.00  0.00    +0.000 OA
ATOM     10  N   UNL     1       0.354  11.841  19.487  0.00  0.00    +0.000 N 
BRANCH  10  11
ATOM     11  C   UNL     1      -1.032  12.011  19.986  0.00  0.00    +0.000 C 
BRANCH  11  12
ATOM     12  C   UNL     1      -2.166  11.049  19.583  0.00  0.00    +0.000 C 
BRANCH  12  13
ATOM     13  N   UNL     1      -2.595  11.270  18.173  0.00  0.00    +0.000 NA
ATOM     14  C   UNL     1      -2.055  10.257  17.253  0.00  0.00    +0.000 C 
ATOM     15  C   UNL     1      -2.480  10.536  15.809  0.00  0.00    +0.000 C 
ATOM     16  C   UNL     1      -3.996  10.606  15.687  0.00  0.00    +0.000 C 
ATOM     17  C   UNL     1      -4.555  11.608  16.688  0.00  0.00    +0.000 C 
ATOM     18  C   UNL     1      -4.066  11.308  18.107  0.00  0.00    +0.000 C 
ENDBRANCH  12  13
ENDBRANCH  11  12
ENDBRANCH  10  11
ENDBRANCH   1  10
BRANCH   5  19
ATOM     19  C   UNL     1       1.777   7.224  18.413  0.00  0.00    +0.000 C 
BRANCH  19  20
ATOM     20  C   UNL     1       2.793   6.138  18.622  0.00  0.00    +0.000 A 
ATOM     21  C   UNL     1       2.664   4.931  19.375  0.00  0.00    +0.000 A 
ATOM     22  C   UNL     1       1.479   4.417  20.104  0.00  0.00    +0.000 C 
ATOM     23  N   UNL     1       3.800   4.225  19.397  0.00  0.00    +0.000 NA
ATOM     24  N   UNL     1       4.658   4.960  18.680  0.00  0.00    +0.000 N 
ATOM     25  C   UNL     1       6.037   4.522  18.589  0.00  0.00    +0.000 C 
ATOM     26  C   UNL     1       4.096   6.077  18.121  0.00  0.00    +0.000 A 
ATOM     27  C   UNL     1       4.807   6.984  17.186  0.00  0.00    +0.000 C 
ENDBRANCH  19  20
ENDBRANCH   5  19
TORSDOF 6
ENDMDL
MODEL 6
REMARK VINA RESULT:      -6.6      1.892      2.708
REMARK  Name = 
REMARK  10 active torsions:
REMARK  status: ('A' for Active; 'I' for Inactive)
REMARK    1  A    between atoms: C_1  and  C_2
REMARK    2  A    between atoms: N_4  and  C_5
REMARK    3  A    between atoms: N_4  and  C_13
REMARK    4  A    between atoms: C_5  and  C_6
REMARK    5  A    between atoms: C_6  and  N_7
REMARK    6  A    between atoms: N_17  and  C_18
REMARK    7  A    between atoms: C_18  and  C_19
REMARK    8  A    between atoms: C_20  and  C_21
REMARK    9  A    between atoms: N_23  and  C_24
REMARK   10  A    between atoms: C_25  and  C_26
REMARK                            x       y       z     vdW  Elec       q    Type
REMARK                         _______ _______ _______ _____ _____    ______ ____
ROOT
ATOM      1  C   UNL     1       0.955   9.321  19.793  0.00  0.00    +0.000 C 
ATOM      2  C   UNL     1       1.465   9.912  18.473  0.00  0.00    +0.000 C 
ATOM      3  C   UNL     1       1.740   8.783  17.473  0.00  0.00    +0.000 C 
ATOM      4  C   UNL     1       2.682   7.717  18.050  0.00  0.00    +0.000 C 
ATOM      5  N   UNL     1       2.180   7.147  19.314  0.00  0.00    +0.000 NA
ATOM      6  C   UNL     1       1.937   8.229  20.280  0.00  0.00    +0.000 C 
ENDROOT
BRANCH   1  10
ATOM      7  C   UNL     1      -0.540   8.650  22.230  0.00  0.00    +0.000 C 
ATOM      8  C   UNL     1       0.003  10.048  22.025  0.00  0.00    +0.000 C 
ATOM      9  O   UNL     1      -0.197  10.881  22.912  0.00  0.00    +0.000 OA
ATOM     10  N   UNL     1       0.661  10.348  20.836  0.00  0.00    +0.000 N 
BRANCH  10  11
ATOM     11  C   UNL     1       1.045  11.744  20.513  0.00  0.00    +0.000 C 
BRANCH  11  12
ATOM     12  C   UNL     1       0.108  12.686  19.732  0.00  0.00    +0.000 C 
BRANCH  12  13
ATOM     13  N   UNL     1      -1.308  12.229  19.802  0.00  0.00    +0.000 NA
ATOM     14  C   UNL     1      -2.169  13.168  20.540  0.00  0.00    +0.000 C 
ATOM     15  C   UNL     1      -3.606  12.650  20.628  0.00  0.00    +0.000 C 
ATOM     16  C   UNL     1      -4.181  12.384  19.243  0.00  0.00    +0.000 C 
ATOM     17  C   UNL     1      -3.252  11.465  18.461  0.00  0.00    +0.000 C 
ATOM     18  C   UNL     1      -1.822  12.008  18.439  0.00  0.00    +0.000 C 
ENDBRANCH  12  13
ENDBRANCH  11  12
ENDBRANCH  10  11
ENDBRANCH   1  10
BRANCH   5  19
ATOM     19  C   UNL     1       3.171   6.193  19.872  0.00  0.00    +0.000 C 
BRANCH  19  20
ATOM     20  C   UNL     1       2.954   4.793  19.374  0.00  0.00    +0.000 A 
ATOM     21  C   UNL     1       1.884   3.896  19.677  0.00  0.00    +0.000 A 
ATOM     22  C   UNL     1       0.689   4.133  20.521  0.00  0.00    +0.000 C 
ATOM     23  N   UNL     1       2.051   2.699  19.103  0.00  0.00    +0.000 NA
ATOM     24  N   UNL     1       3.212   2.807  18.446  0.00  0.00    +0.000 N 
ATOM     25  C   UNL     1       3.747   1.632  17.786  0.00  0.00    +0.000 C 
ATOM     26  C   UNL     1       3.763   4.060  18.501  0.00  0.00    +0.000 A 
ATOM     27  C   UNL     1       4.979   4.465  17.755  0.00  0.00    +0.000 C 
ENDBRANCH  19  20
ENDBRANCH   5  19
TORSDOF 6
ENDMDL
MODEL 7
REMARK VINA RESULT:      -6.6      2.943      8.897
REMARK  Name = 
REMARK  10 active torsions:
REMARK  status: ('A' for Active; 'I' for Inactive)
REMARK    1  A    between atoms: C_1  and  C_2
REMARK    2  A    between atoms: N_4  and  C_5
REMARK    3  A    between atoms: N_4  and  C_13
REMARK    4  A    between atoms: C_5  and  C_6
REMARK    5  A    between atoms: C_6  and  N_7
REMARK    6  A    between atoms: N_17  and  C_18
REMARK    7  A    between atoms: C_18  and  C_19
REMARK    8  A    between atoms: C_20  and  C_21
REMARK    9  A    between atoms: N_23  and  C_24
REMARK   10  A    between atoms: C_25  and  C_26
REMARK                            x       y       z     vdW  Elec       q    Type
REMARK                         _______ _______ _______ _____ _____    ______ ____
ROOT
ATOM      1  C   UNL     1       0.864   8.618  20.530  0.00  0.00    +0.000 C 
ATOM      2  C   UNL     1       1.309   8.787  21.988  0.00  0.00    +0.000 C 
ATOM      3  C   UNL     1       0.209   9.499  22.784  0.00  0.00    +0.000 C 
ATOM      4  C   UNL     1      -0.209  10.824  22.133  0.00  0.00    +0.000 C 
ATOM      5  N   UNL     1      -0.644  10.652  20.735  0.00  0.00    +0.000 NA
ATOM      6  C   UNL     1       0.419   9.989  19.966  0.00  0.00    +0.000 C 
ENDROOT
BRANCH   1  10
ATOM      7  C   UNL     1       1.449   9.554  17.808  0.00  0.00    +0.000 C 
ATOM      8  C   UNL     1       2.212   8.387  18.397  0.00  0.00    +0.000 C 
ATOM      9  O   UNL     1       3.082   7.856  17.703  0.00  0.00    +0.000 OA
ATOM     10  N   UNL     1       1.875   7.934  19.670  0.00  0.00    +0.000 N 
BRANCH  10  11
ATOM     11  C   UNL     1       2.464   6.686  20.212  0.00  0.00    +0.000 C 
BRANCH  11  12
ATOM     12  C   UNL     1       1.593   5.474  20.596  0.00  0.00    +0.000 C 
BRANCH  12  13
ATOM     13  N   UNL     1       2.088   4.221  19.960  0.00  0.00    +0.000 NA
ATOM     14  C   UNL     1       0.994   3.343  19.516  0.00  0.00    +0.000 C 
ATOM     15  C   UNL     1       1.536   2.048  18.906  0.00  0.00    +0.000 C 
ATOM     16  C   UNL     1       2.483   2.338  17.749  0.00  0.00    +0.000 C 
ATOM     17  C   UNL     1       3.575   3.301  18.199  0.00  0.00    +0.000 C 
ATOM     18  C   UNL     1       2.980   4.558  18.837  0.00  0.00    +0.000 C 
ENDBRANCH  12  13
ENDBRANCH  11  12
ENDBRANCH  10  11
ENDBRANCH   1  10
BRANCH   5  19
ATOM     19  C   UNL     1      -0.948  11.973  20.130  0.00  0.00    +0.000 C 
BRANCH  19  20
ATOM     20  C   UNL     1      -2.353  12.048  19.605  0.00  0.00    +0.000 A 
ATOM     21  C   UNL     1      -3.509  12.607  20.231  0.00  0.00    +0.000 A 
ATOM     22  C   UNL     1      -3.609  13.301  21.537  0.00  0.00    +0.000 C 
ATOM     23  N   UNL     1      -4.614  12.438  19.496  0.00  0.00    +0.000 NA
ATOM     24  N   UNL     1      -4.191  11.773  18.414  0.00  0.00    +0.000 N 
ATOM     25  C   UNL     1      -5.174  11.333  17.443  0.00  0.00    +0.000 C 
ATOM     26  C   UNL     1      -2.836  11.578  18.380  0.00  0.00    +0.000 A 
ATOM     27  C   UNL     1      -2.113  10.978  17.232  0.00  0.00    +0.000 C 
ENDBRANCH  19  20
ENDBRANCH   5  19
TORSDOF 6
ENDMDL
MODEL 8
REMARK VINA RESULT:      -6.6      3.155      4.515
REMARK  Name = 
REMARK  10 active torsions:
REMARK  status: ('A' for Active; 'I' for Inactive)
REMARK    1  A    between atoms: C_1  and  C_2
REMARK    2  A    between atoms: N_4  and  C_5
REMARK    3  A    between atoms: N_4  and  C_13
REMARK    4  A    between atoms: C_5  and  C_6
REMARK    5  A    between atoms: C_6  and  N_7
REMARK    6  A    between atoms: N_17  and  C_18
REMARK    7  A    between atoms: C_18  and  C_19
REMARK    8  A    between atoms: C_20  and  C_21
REMARK    9  A    between atoms: N_23  and  C_24
REMARK   10  A    between atoms: C_25  and  C_26
REMARK                            x       y       z     vdW  Elec       q    Type
REMARK                         _______ _______ _______ _____ _____    ______ ____
ROOT
ATOM      1  C   UNL     1       0.974  10.336  19.685  0.00  0.00    +0.000 C 
ATOM      2  C   UNL     1       0.515   9.787  21.042  0.00  0.00    +0.000 C 
ATOM      3  C   UNL     1       1.469   8.678  21.500  0.00  0.00    +0.000 C 
ATOM      4  C   UNL     1       1.631   7.581  20.439  0.00  0.00    +0.000 C 
ATOM      5  N   UNL     1       2.081   8.115  19.141  0.00  0.00    +0.000 NA
ATOM      6  C   UNL     1       1.154   9.164  18.691  0.00  0.00    +0.000 C 
ENDROOT
BRANCH   1  10
ATOM      7  C   UNL     1       2.086  12.915  18.827  0.00  0.00    +0.000 C 
ATOM      8  C   UNL     1       0.605  12.635  18.687  0.00  0.00    +0.000 C 
ATOM      9  O   UNL     1      -0.105  13.517  18.199  0.00  0.00    +0.000 OA
ATOM     10  N   UNL     1       0.101  11.424  19.152  0.00  0.00    +0.000 N 
BRANCH  10  11
ATOM     11  C   UNL     1      -1.361  11.181  19.206  0.00  0.00    +0.000 C 
BRANCH  11  12
ATOM     12  C   UNL     1      -2.214  11.069  17.927  0.00  0.00    +0.000 C 
BRANCH  12  13
ATOM     13  N   UNL     1      -3.577  11.636  18.128  0.00  0.00    +0.000 NA
ATOM     14  C   UNL     1      -4.641  10.651  17.876  0.00  0.00    +0.000 C 
ATOM     15  C   UNL     1      -6.028  11.275  18.050  0.00  0.00    +0.000 C 
ATOM     16  C   UNL     1      -6.187  11.881  19.438  0.00  0.00    +0.000 C 
ATOM     17  C   UNL     1      -5.046  12.850  19.718  0.00  0.00    +0.000 C 
ATOM     18  C   UNL     1      -3.686  12.188  19.489  0.00  0.00    +0.000 C 
ENDBRANCH  12  13
ENDBRANCH  11  12
ENDBRANCH  10  11
ENDBRANCH   1  10
BRANCH   5  19
ATOM     19  C   UNL     1       2.132   7.028  18.132  0.00  0.00    +0.000 C 
BRANCH  19  20
ATOM     20  C   UNL     1       3.123   5.960  18.496  0.00  0.00    +0.000 A 
ATOM     21  C   UNL     1       4.518   5.898  18.191  0.00  0.00    +0.000 A 
ATOM     22  C   UNL     1       5.354   6.894  17.479  0.00  0.00    +0.000 C 
ATOM     23  N   UNL     1       5.079   4.762  18.620  0.00  0.00    +0.000 NA
ATOM     24  N   UNL     1       4.070   4.089  19.186  0.00  0.00    +0.000 N 
ATOM     25  C   UNL     1       4.319   2.746  19.672  0.00  0.00    +0.000 C 
ATOM     26  C   UNL     1       2.890   4.785  19.217  0.00  0.00    +0.000 A 
ATOM     27  C   UNL     1       1.662   4.307  19.898  0.00  0.00    +0.000 C 
ENDBRANCH  19  20
ENDBRANCH   5  19
TORSDOF 6
ENDMDL
MODEL 9
REMARK VINA RESULT:      -6.6      1.081      2.073
REMARK  Name = 
REMARK  10 active torsions:
REMARK  status: ('A' for Active; 'I' for Inactive)
REMARK    1  A    between atoms: C_1  and  C_2
REMARK    2  A    between atoms: N_4  and  C_5
REMARK    3  A    between atoms: N_4  and  C_13
REMARK    4  A    between atoms: C_5  and  C_6
REMARK    5  A    between atoms: C_6  and  N_7
REMARK    6  A    between atoms: N_17  and  C_18
REMARK    7  A    between atoms: C_18  and  C_19
REMARK    8  A    between atoms: C_20  and  C_21
REMARK    9  A    between atoms: N_23  and  C_24
REMARK   10  A    between atoms: C_25  and  C_26
REMARK                            x       y       z     vdW  Elec       q    Type
REMARK                         _______ _______ _______ _____ _____    ______ ____
ROOT
ATOM      1  C   UNL     1       0.440   9.737  19.946  0.00  0.00    +0.000 C 
ATOM      2  C   UNL     1       0.726  10.414  18.600  0.00  0.00    +0.000 C 
ATOM      3  C   UNL     1       0.986   9.347  17.530  0.00  0.00    +0.000 C 
ATOM      4  C   UNL     1       2.091   8.367  17.949  0.00  0.00    +0.000 C 
ATOM      5  N   UNL     1       1.804   7.714  19.239  0.00  0.00    +0.000 NA
ATOM      6  C   UNL     1       1.576   8.736  20.270  0.00  0.00    +0.000 C 
ENDROOT
BRANCH   1  10
ATOM      7  C   UNL     1      -0.528   8.827  22.566  0.00  0.00    +0.000 C 
ATOM      8  C   UNL     1      -0.231  10.292  22.325  0.00  0.00    +0.000 C 
ATOM      9  O   UNL     1      -0.402  11.077  23.260  0.00  0.00    +0.000 OA
ATOM     10  N   UNL     1       0.175  10.698  21.057  0.00  0.00    +0.000 N 
BRANCH  10  11
ATOM     11  C   UNL     1       0.298  12.138  20.725  0.00  0.00    +0.000 C 
BRANCH  11  12
ATOM     12  C   UNL     1       1.654  12.871  20.772  0.00  0.00    +0.000 C 
BRANCH  12  13
ATOM     13  N   UNL     1       1.737  13.934  19.731  0.00  0.00    +0.000 NA
ATOM     14  C   UNL     1       1.566  15.285  20.289  0.00  0.00    +0.000 C 
ATOM     15  C   UNL     1       1.616  16.349  19.190  0.00  0.00    +0.000 C 
ATOM     16  C   UNL     1       2.915  16.264  18.401  0.00  0.00    +0.000 C 
ATOM     17  C   UNL     1       3.118  14.846  17.882  0.00  0.00    +0.000 C 
ATOM     18  C   UNL     1       3.018  13.821  19.013  0.00  0.00    +0.000 C 
ENDBRANCH  12  13
ENDBRANCH  11  12
ENDBRANCH  10  11
ENDBRANCH   1  10
BRANCH   5  19
ATOM     19  C   UNL     1       2.944   6.850  19.637  0.00  0.00    +0.000 C 
BRANCH  19  20
ATOM     20  C   UNL     1       2.864   5.483  19.020  0.00  0.00    +0.000 A 
ATOM     21  C   UNL     1       3.530   4.991  17.856  0.00  0.00    +0.000 A 
ATOM     22  C   UNL     1       4.509   5.686  16.987  0.00  0.00    +0.000 C 
ATOM     23  N   UNL     1       3.170   3.737  17.560  0.00  0.00    +0.000 NA
ATOM     24  N   UNL     1       2.278   3.418  18.506  0.00  0.00    +0.000 N 
ATOM     25  C   UNL     1       1.602   2.138  18.418  0.00  0.00    +0.000 C 
ATOM     26  C   UNL     1       2.110   4.390  19.456  0.00  0.00    +0.000 A 
ATOM     27  C   UNL     1       1.272   4.228  20.670  0.00  0.00    +0.000 C 
ENDBRANCH  19  20
ENDBRANCH   5  19
TORSDOF 6
ENDMDL
