MODEL 1
REMARK VINA RESULT:      -7.7      0.000      0.000
REMARK  Name = 
REMARK  3 active torsions:
REMARK  status: ('A' for Active; 'I' for Inactive)
REMARK    1  A    between atoms: C_4  and  C_5
REMARK    2  A    between atoms: C_5  and  N_6
REMARK    3  A    between atoms: C_12  and  C_13
REMARK                            x       y       z     vdW  Elec       q    Type
REMARK                         _______ _______ _______ _____ _____    ______ ____
ROOT
ATOM      1  N   UNL     1       0.542  10.877  19.110  0.00  0.00    +0.000 NA
ATOM      2  C   UNL     1       0.728   9.946  20.243  0.00  0.00    +0.000 C 
ATOM      3  C   UNL     1       1.185   8.500  19.913  0.00  0.00    +0.000 C 
ATOM      4  N   UNL     1       2.251   8.457  18.896  0.00  0.00    +0.000 N 
ATOM      5  C   UNL     1       2.765   7.188  18.627  0.00  0.00    +0.000 A 
ATOM      6  N   UNL     1       2.474   6.217  19.481  0.00  0.00    +0.000 NA
ATOM      7  C   UNL     1       3.020   5.019  19.273  0.00  0.00    +0.000 A 
ATOM      8  N   UNL     1       3.855   4.741  18.279  0.00  0.00    +0.000 NA
ATOM      9  C   UNL     1       4.094   5.764  17.459  0.00  0.00    +0.000 A 
ATOM     10  N   UNL     1       4.979   5.515  16.375  0.00  0.00    +0.000 N 
ATOM     11  C   UNL     1       5.657   4.340  16.107  0.00  0.00    +0.000 A 
ATOM     12  C   UNL     1       6.355   4.567  14.947  0.00  0.00    +0.000 A 
ATOM     13  N   UNL     1       6.147   5.843  14.498  0.00  0.00    +0.000 NA
ATOM     14  C   UNL     1       5.332   6.389  15.377  0.00  0.00    +0.000 A 
ATOM     15  N   UNL     1       3.564   6.992  17.578  0.00  0.00    +0.000 NA
ATOM     16  C   UNL     1       2.084   9.341  17.746  0.00  0.00    +0.000 C 
ATOM     17  C   UNL     1       1.733  10.771  18.228  0.00  0.00    +0.000 C 
ENDROOT
BRANCH   7  18
ATOM     18  C   UNL     1       2.659   3.949  20.223  0.00  0.00    +0.000 A 
ATOM     19  C   UNL     1       3.573   2.920  20.529  0.00  0.00    +0.000 A 
ATOM     20  C   UNL     1       3.254   1.895  21.420  0.00  0.00    +0.000 A 
ATOM     21  C   UNL     1       2.004   1.876  22.030  0.00  0.00    +0.000 A 
ATOM     22  C   UNL     1       1.079   2.877  21.749  0.00  0.00    +0.000 A 
ATOM     23  C   UNL     1       1.404   3.905  20.857  0.00  0.00    +0.000 A 
ENDBRANCH   7  18
BRANCH   1  24
ATOM     24  C   UNL     1      -0.686  10.628  18.344  0.00  0.00    +0.000 C 
BRANCH  24  28
ATOM     25  C   UNL     1      -4.234  12.579  19.847  0.00  0.00    +0.000 A 
ATOM     26  C   UNL     1      -4.318  11.793  18.697  0.00  0.00    +0.000 A 
ATOM     27  C   UNL     1      -3.165  11.223  18.147  0.00  0.00    +0.000 A 
ATOM     28  C   UNL     1      -1.911  11.433  18.741  0.00  0.00    +0.000 A 
ATOM     29  C   UNL     1      -1.839  12.271  19.868  0.00  0.00    +0.000 A 
ATOM     30  C   UNL     1      -2.992  12.832  20.421  0.00  0.00    +0.000 A 
ENDBRANCH  24  28
ENDBRANCH   1  24
TORSDOF 3
ENDMDL
MODEL 2
REMARK VINA RESULT:      -7.7      0.251      1.267
REMARK  Name = 
REMARK  3 active torsions:
REMARK  status: ('A' for Active; 'I' for Inactive)
REMARK    1  A    between atoms: C_4  and  C_5
REMARK    2  A    between atoms: C_5  and  N_6
REMARK    3  A    between atoms: C_12  and  C_13
REMARK                            x       y       z     vdW  Elec       q    Type
REMARK                         _______ _______ _______ _____ _____    ______ ____
ROOT
ATOM      1  N   UNL     1       0.607  10.777  18.950  0.00  0.00    +0.000 NA
ATOM      2  C   UNL     1       0.772   9.858  20.097  0.00  0.00    +0.000 C 
ATOM      3  C   UNL     1       1.247   8.413  19.792  0.00  0.00    +0.000 C 
ATOM      4  N   UNL     1       2.337   8.367  18.801  0.00  0.00    +0.000 N 
ATOM      5  C   UNL     1       2.867   7.100  18.557  0.00  0.00    +0.000 A 
ATOM      6  N   UNL     1       2.562   6.135  19.413  0.00  0.00    +0.000 NA
ATOM      7  C   UNL     1       3.121   4.939  19.231  0.00  0.00    +0.000 A 
ATOM      8  N   UNL     1       3.981   4.657  18.259  0.00  0.00    +0.000 NA
ATOM      9  C   UNL     1       4.233   5.674  17.434  0.00  0.00    +0.000 A 
ATOM     10  N   UNL     1       5.145   5.421  16.374  0.00  0.00    +0.000 N 
ATOM     11  C   UNL     1       5.837   4.248  16.134  0.00  0.00    +0.000 A 
ATOM     12  C   UNL     1       6.561   4.469  14.989  0.00  0.00    +0.000 A 
ATOM     13  N   UNL     1       6.354   5.739  14.522  0.00  0.00    +0.000 NA
ATOM     14  C   UNL     1       5.515   6.288  15.376  0.00  0.00    +0.000 A 
ATOM     15  N   UNL     1       3.691   6.899  17.529  0.00  0.00    +0.000 NA
ATOM     16  C   UNL     1       2.192   9.239  17.638  0.00  0.00    +0.000 C 
ATOM     17  C   UNL     1       1.819  10.671  18.098  0.00  0.00    +0.000 C 
ENDROOT
BRANCH   7  18
ATOM     18  C   UNL     1       2.746   3.876  20.182  0.00  0.00    +0.000 A 
ATOM     19  C   UNL     1       1.486   3.888  20.815  0.00  0.00    +0.000 A 
ATOM     20  C   UNL     1       1.111   2.897  21.722  0.00  0.00    +0.000 A 
ATOM     21  C   UNL     1       1.992   1.864  22.020  0.00  0.00    +0.000 A 
ATOM     22  C   UNL     1       3.245   1.823  21.412  0.00  0.00    +0.000 A 
ATOM     23  C   UNL     1       3.616   2.817  20.501  0.00  0.00    +0.000 A 
ENDBRANCH   7  18
BRANCH   1  24
ATOM     24  C   UNL     1      -0.601  10.512  18.159  0.00  0.00    +0.000 C 
BRANCH  24  28
ATOM     25  C   UNL     1      -4.311  12.362  19.369  0.00  0.00    +0.000 A 
ATOM     26  C   UNL     1      -3.144  12.634  20.083  0.00  0.00    +0.000 A 
ATOM     27  C   UNL     1      -1.950  11.980  19.759  0.00  0.00    +0.000 A 
ATOM     28  C   UNL     1      -1.911  11.042  18.716  0.00  0.00    +0.000 A 
ATOM     29  C   UNL     1      -3.108  10.741  18.043  0.00  0.00    +0.000 A 
ATOM     30  C   UNL     1      -4.296  11.402  18.362  0.00  0.00    +0.000 A 
ENDBRANCH  24  28
ENDBRANCH   1  24
TORSDOF 3
ENDMDL
MODEL 3
REMARK VINA RESULT:      -7.6      2.321      9.315
REMARK  Name = 
REMARK  3 active torsions:
REMARK  status: ('A' for Active; 'I' for Inactive)
REMARK    1  A    between atoms: C_4  and  C_5
REMARK    2  A    between atoms: C_5  and  N_6
REMARK    3  A    between atoms: C_12  and  C_13
REMARK                            x       y       z     vdW  Elec       q    Type
REMARK                         _______ _______ _______ _____ _____    ______ ____
ROOT
ATOM      1  N   UNL     1       6.552   4.839  14.298  0.00  0.00    +0.000 NA
ATOM      2  C   UNL     1       6.355   6.195  14.852  0.00  0.00    +0.000 C 
ATOM      3  C   UNL     1       5.168   6.402  15.830  0.00  0.00    +0.000 C 
ATOM      4  N   UNL     1       5.037   5.308  16.809  0.00  0.00    +0.000 N 
ATOM      5  C   UNL     1       4.043   5.486  17.771  0.00  0.00    +0.000 A 
ATOM      6  N   UNL     1       3.525   6.700  17.898  0.00  0.00    +0.000 NA
ATOM      7  C   UNL     1       2.628   6.899  18.863  0.00  0.00    +0.000 A 
ATOM      8  N   UNL     1       2.235   5.965  19.721  0.00  0.00    +0.000 NA
ATOM      9  C   UNL     1       2.794   4.769  19.527  0.00  0.00    +0.000 A 
ATOM     10  N   UNL     1       2.402   3.734  20.419  0.00  0.00    +0.000 N 
ATOM     11  C   UNL     1       1.541   3.845  21.496  0.00  0.00    +0.000 A 
ATOM     12  C   UNL     1       1.444   2.583  22.028  0.00  0.00    +0.000 A 
ATOM     13  N   UNL     1       2.226   1.701  21.331  0.00  0.00    +0.000 NA
ATOM     14  C   UNL     1       2.795   2.419  20.384  0.00  0.00    +0.000 A 
ATOM     15  N   UNL     1       3.681   4.477  18.563  0.00  0.00    +0.000 NA
ATOM     16  C   UNL     1       5.195   3.952  16.289  0.00  0.00    +0.000 C 
ATOM     17  C   UNL     1       6.473   3.867  15.418  0.00  0.00    +0.000 C 
ENDROOT
BRANCH   7  18
ATOM     18  C   UNL     1       2.048   8.251  18.965  0.00  0.00    +0.000 A 
ATOM     19  C   UNL     1       1.339   8.645  20.118  0.00  0.00    +0.000 A 
ATOM     20  C   UNL     1       0.778   9.917  20.236  0.00  0.00    +0.000 A 
ATOM     21  C   UNL     1       0.914  10.831  19.198  0.00  0.00    +0.000 A 
ATOM     22  C   UNL     1       1.609  10.473  18.045  0.00  0.00    +0.000 A 
ATOM     23  C   UNL     1       2.173   9.198  17.932  0.00  0.00    +0.000 A 
ENDBRANCH   7  18
BRANCH   1  24
ATOM     24  C   UNL     1       5.585   4.491  13.248  0.00  0.00    +0.000 C 
BRANCH  24  28
ATOM     25  C   UNL     1       6.837   1.169  10.789  0.00  0.00    +0.000 A 
ATOM     26  C   UNL     1       7.765   2.151  11.140  0.00  0.00    +0.000 A 
ATOM     27  C   UNL     1       7.359   3.277  11.864  0.00  0.00    +0.000 A 
ATOM     28  C   UNL     1       6.018   3.436  12.246  0.00  0.00    +0.000 A 
ATOM     29  C   UNL     1       5.088   2.464  11.837  0.00  0.00    +0.000 A 
ATOM     30  C   UNL     1       5.497   1.336  11.122  0.00  0.00    +0.000 A 
ENDBRANCH  24  28
ENDBRANCH   1  24
TORSDOF 3
ENDMDL
MODEL 4
REMARK VINA RESULT:      -7.6      2.246      5.369
REMARK  Name = 
REMARK  3 active torsions:
REMARK  status: ('A' for Active; 'I' for Inactive)
REMARK    1  A    between atoms: C_4  and  C_5
REMARK    2  A    between atoms: C_5  and  N_6
REMARK    3  A    between atoms: C_12  and  C_13
REMARK                            x       y       z     vdW  Elec       q    Type
REMARK                         _______ _______ _______ _____ _____    ______ ____
ROOT
ATOM      1  N   UNL     1       0.888  10.958  19.018  0.00  0.00    +0.000 NA
ATOM      2  C   UNL     1       1.432  10.455  17.739  0.00  0.00    +0.000 C 
ATOM      3  C   UNL     1       2.341   9.199  17.794  0.00  0.00    +0.000 C 
ATOM      4  N   UNL     1       1.821   8.157  18.697  0.00  0.00    +0.000 N 
ATOM      5  C   UNL     1       2.550   6.968  18.715  0.00  0.00    +0.000 A 
ATOM      6  N   UNL     1       3.432   6.776  17.745  0.00  0.00    +0.000 NA
ATOM      7  C   UNL     1       4.081   5.613  17.711  0.00  0.00    +0.000 A 
ATOM      8  N   UNL     1       3.885   4.623  18.574  0.00  0.00    +0.000 NA
ATOM      9  C   UNL     1       2.989   4.892  19.525  0.00  0.00    +0.000 A 
ATOM     10  N   UNL     1       2.747   3.865  20.477  0.00  0.00    +0.000 N 
ATOM     11  C   UNL     1       3.304   2.599  20.495  0.00  0.00    +0.000 A 
ATOM     12  C   UNL     1       2.799   1.984  21.614  0.00  0.00    +0.000 A 
ATOM     13  N   UNL     1       1.938   2.817  22.278  0.00  0.00    +0.000 NA
ATOM     14  C   UNL     1       1.918   3.927  21.570  0.00  0.00    +0.000 A 
ATOM     15  N   UNL     1       2.314   6.046  19.649  0.00  0.00    +0.000 NA
ATOM     16  C   UNL     1       1.305   8.616  19.984  0.00  0.00    +0.000 C 
ATOM     17  C   UNL     1       0.333   9.803  19.768  0.00  0.00    +0.000 C 
ENDROOT
BRANCH   7  18
ATOM     18  C   UNL     1       5.075   5.435  16.636  0.00  0.00    +0.000 A 
ATOM     19  C   UNL     1       4.817   4.571  15.552  0.00  0.00    +0.000 A 
ATOM     20  C   UNL     1       5.743   4.383  14.526  0.00  0.00    +0.000 A 
ATOM     21  C   UNL     1       6.957   5.059  14.560  0.00  0.00    +0.000 A 
ATOM     22  C   UNL     1       7.243   5.920  15.616  0.00  0.00    +0.000 A 
ATOM     23  C   UNL     1       6.310   6.108  16.642  0.00  0.00    +0.000 A 
ENDBRANCH   7  18
BRANCH   1  24
ATOM     24  C   UNL     1       1.879  11.672  19.834  0.00  0.00    +0.000 C 
BRANCH  24  28
ATOM     25  C   UNL     1       2.102  15.806  18.608  0.00  0.00    +0.000 A 
ATOM     26  C   UNL     1       2.992  14.880  18.062  0.00  0.00    +0.000 A 
ATOM     27  C   UNL     1       2.991  13.554  18.508  0.00  0.00    +0.000 A 
ATOM     28  C   UNL     1       2.100  13.138  19.510  0.00  0.00    +0.000 A 
ATOM     29  C   UNL     1       1.249  14.098  20.086  0.00  0.00    +0.000 A 
ATOM     30  C   UNL     1       1.244  15.419  19.633  0.00  0.00    +0.000 A 
ENDBRANCH  24  28
ENDBRANCH   1  24
TORSDOF 3
ENDMDL
MODEL 5
REMARK VINA RESULT:      -7.4      8.395      9.061
REMARK  Name = 
REMARK  3 active torsions:
REMARK  status: ('A' for Active; 'I' for Inactive)
REMARK    1  A    between atoms: C_4  and  C_5
REMARK    2  A    between atoms: C_5  and  N_6
REMARK    3  A    between atoms: C_12  and  C_13
REMARK                            x       y       z     vdW  Elec       q    Type
REMARK                         _______ _______ _______ _____ _____    ______ ____
ROOT
ATOM      1  N   UNL     1       4.048  17.160  19.185  0.00  0.00    +0.000 NA
ATOM      2  C   UNL     1       4.159  16.975  20.648  0.00  0.00    +0.000 C 
ATOM      3  C   UNL     1       4.984  15.762  21.153  0.00  0.00    +0.000 C 
ATOM      4  N   UNL     1       6.242  15.577  20.409  0.00  0.00    +0.000 N 
ATOM      5  C   UNL     1       7.069  14.557  20.881  0.00  0.00    +0.000 A 
ATOM      6  N   UNL     1       6.803  14.062  22.082  0.00  0.00    +0.000 NA
ATOM      7  C   UNL     1       7.629  13.139  22.573  0.00  0.00    +0.000 A 
ATOM      8  N   UNL     1       8.715  12.699  21.947  0.00  0.00    +0.000 NA
ATOM      9  C   UNL     1       8.912  13.237  20.743  0.00  0.00    +0.000 A 
ATOM     10  N   UNL     1      10.059  12.795  20.031  0.00  0.00    +0.000 N 
ATOM     11  C   UNL     1      11.020  11.903  20.471  0.00  0.00    +0.000 A 
ATOM     12  C   UNL     1      11.905  11.762  19.431  0.00  0.00    +0.000 A 
ATOM     13  N   UNL     1      11.536  12.547  18.371  0.00  0.00    +0.000 NA
ATOM     14  C   UNL     1      10.438  13.161  18.763  0.00  0.00    +0.000 A 
ATOM     15  N   UNL     1       8.115  14.149  20.163  0.00  0.00    +0.000 NA
ATOM     16  C   UNL     1       6.163  15.722  18.958  0.00  0.00    +0.000 C 
ATOM     17  C   UNL     1       5.406  17.025  18.599  0.00  0.00    +0.000 C 
ENDROOT
BRANCH   7  18
ATOM     18  C   UNL     1       7.297  12.586  23.900  0.00  0.00    +0.000 A 
ATOM     19  C   UNL     1       6.225  11.683  24.055  0.00  0.00    +0.000 A 
ATOM     20  C   UNL     1       5.889  11.150  25.300  0.00  0.00    +0.000 A 
ATOM     21  C   UNL     1       6.622  11.510  26.426  0.00  0.00    +0.000 A 
ATOM     22  C   UNL     1       7.686  12.400  26.306  0.00  0.00    +0.000 A 
ATOM     23  C   UNL     1       8.022  12.929  25.055  0.00  0.00    +0.000 A 
ENDBRANCH   7  18
BRANCH   1  24
ATOM     24  C   UNL     1       3.118  16.219  18.546  0.00  0.00    +0.000 C 
BRANCH  24  28
ATOM     25  C   UNL     1      -0.343  18.333  17.064  0.00  0.00    +0.000 A 
ATOM     26  C   UNL     1      -0.497  17.405  18.093  0.00  0.00    +0.000 A 
ATOM     27  C   UNL     1       0.597  16.649  18.529  0.00  0.00    +0.000 A 
ATOM     28  C   UNL     1       1.860  16.813  17.937  0.00  0.00    +0.000 A 
ATOM     29  C   UNL     1       1.983  17.714  16.866  0.00  0.00    +0.000 A 
ATOM     30  C   UNL     1       0.892  18.474  16.438  0.00  0.00    +0.000 A 
ENDBRANCH  24  28
ENDBRANCH   1  24
TORSDOF 3
ENDMDL
MODEL 6
REMARK VINA RESULT:      -7.4      2.202      5.351
REMARK  Name = 
REMARK  3 active torsions:
REMARK  status: ('A' for Active; 'I' for Inactive)
REMARK    1  A    between atoms: C_4  and  C_5
REMARK    2  A    between atoms: C_5  and  N_6
REMARK    3  A    between atoms: C_12  and  C_13
REMARK                            x       y       z     vdW  Elec       q    Type
REMARK                         _______ _______ _______ _____ _____    ______ ____
ROOT
ATOM      1  N   UNL     1       0.871  10.915  19.067  0.00  0.00    +0.000 NA
ATOM      2  C   UNL     1       1.422  10.420  17.787  0.00  0.00    +0.000 C 
ATOM      3  C   UNL     1       2.330   9.163  17.839  0.00  0.00    +0.000 C 
ATOM      4  N   UNL     1       1.805   8.115  18.732  0.00  0.00    +0.000 N 
ATOM      5  C   UNL     1       2.532   6.925  18.746  0.00  0.00    +0.000 A 
ATOM      6  N   UNL     1       3.421   6.740  17.779  0.00  0.00    +0.000 NA
ATOM      7  C   UNL     1       4.069   5.576  17.741  0.00  0.00    +0.000 A 
ATOM      8  N   UNL     1       3.867   4.581  18.596  0.00  0.00    +0.000 NA
ATOM      9  C   UNL     1       2.965   4.843  19.543  0.00  0.00    +0.000 A 
ATOM     10  N   UNL     1       2.717   3.809  20.486  0.00  0.00    +0.000 N 
ATOM     11  C   UNL     1       3.273   2.543  20.499  0.00  0.00    +0.000 A 
ATOM     12  C   UNL     1       2.760   1.921  21.610  0.00  0.00    +0.000 A 
ATOM     13  N   UNL     1       1.896   2.749  22.275  0.00  0.00    +0.000 NA
ATOM     14  C   UNL     1       1.881   3.865  21.574  0.00  0.00    +0.000 A 
ATOM     15  N   UNL     1       2.290   5.997  19.671  0.00  0.00    +0.000 NA
ATOM     16  C   UNL     1       1.280   8.565  20.019  0.00  0.00    +0.000 C 
ATOM     17  C   UNL     1       0.311   9.754  19.805  0.00  0.00    +0.000 C 
ENDROOT
BRANCH   7  18
ATOM     18  C   UNL     1       5.069   5.406  16.671  0.00  0.00    +0.000 A 
ATOM     19  C   UNL     1       6.315   6.063  16.739  0.00  0.00    +0.000 A 
ATOM     20  C   UNL     1       7.275   5.921  15.737  0.00  0.00    +0.000 A 
ATOM     21  C   UNL     1       7.011   5.114  14.636  0.00  0.00    +0.000 A 
ATOM     22  C   UNL     1       5.790   4.451  14.540  0.00  0.00    +0.000 A 
ATOM     23  C   UNL     1       4.831   4.593  15.548  0.00  0.00    +0.000 A 
ENDBRANCH   7  18
BRANCH   1  24
ATOM     24  C   UNL     1       1.858  11.621  19.893  0.00  0.00    +0.000 C 
BRANCH  24  28
ATOM     25  C   UNL     1       1.959  15.878  19.174  0.00  0.00    +0.000 A 
ATOM     26  C   UNL     1       3.037  15.265  19.815  0.00  0.00    +0.000 A 
ATOM     27  C   UNL     1       2.986  13.903  20.132  0.00  0.00    +0.000 A 
ATOM     28  C   UNL     1       1.853  13.137  19.813  0.00  0.00    +0.000 A 
ATOM     29  C   UNL     1       0.757  13.784  19.217  0.00  0.00    +0.000 A 
ATOM     30  C   UNL     1       0.813  15.141  18.893  0.00  0.00    +0.000 A 
ENDBRANCH  24  28
ENDBRANCH   1  24
TORSDOF 3
ENDMDL
MODEL 7
REMARK VINA RESULT:      -7.2      2.143      5.210
REMARK  Name = 
REMARK  3 active torsions:
REMARK  status: ('A' for Active; 'I' for Inactive)
REMARK    1  A    between atoms: C_4  and  C_5
REMARK    2  A    between atoms: C_5  and  N_6
REMARK    3  A    between atoms: C_12  and  C_13
REMARK                            x       y       z     vdW  Elec       q    Type
REMARK                         _______ _______ _______ _____ _____    ______ ____
ROOT
ATOM      1  N   UNL     1       0.968  10.926  19.099  0.00  0.00    +0.000 NA
ATOM      2  C   UNL     1       1.524  10.431  17.822  0.00  0.00    +0.000 C 
ATOM      3  C   UNL     1       2.411   9.159  17.874  0.00  0.00    +0.000 C 
ATOM      4  N   UNL     1       1.860   8.114  18.754  0.00  0.00    +0.000 N 
ATOM      5  C   UNL     1       2.568   6.912  18.767  0.00  0.00    +0.000 A 
ATOM      6  N   UNL     1       3.462   6.719  17.808  0.00  0.00    +0.000 NA
ATOM      7  C   UNL     1       4.092   5.545  17.768  0.00  0.00    +0.000 A 
ATOM      8  N   UNL     1       3.865   4.548  18.614  0.00  0.00    +0.000 NA
ATOM      9  C   UNL     1       2.959   4.818  19.555  0.00  0.00    +0.000 A 
ATOM     10  N   UNL     1       2.685   3.782  20.488  0.00  0.00    +0.000 N 
ATOM     11  C   UNL     1       3.220   2.507  20.497  0.00  0.00    +0.000 A 
ATOM     12  C   UNL     1       2.687   1.886  21.599  0.00  0.00    +0.000 A 
ATOM     13  N   UNL     1       1.830   2.724  22.261  0.00  0.00    +0.000 NA
ATOM     14  C   UNL     1       1.839   3.844  21.568  0.00  0.00    +0.000 A 
ATOM     15  N   UNL     1       2.302   5.982  19.684  0.00  0.00    +0.000 NA
ATOM     16  C   UNL     1       1.330   8.564  20.039  0.00  0.00    +0.000 C 
ATOM     17  C   UNL     1       0.382   9.770  19.824  0.00  0.00    +0.000 C 
ENDROOT
BRANCH   7  18
ATOM     18  C   UNL     1       5.100   5.366  16.707  0.00  0.00    +0.000 A 
ATOM     19  C   UNL     1       6.332   6.050  16.760  0.00  0.00    +0.000 A 
ATOM     20  C   UNL     1       7.299   5.901  15.766  0.00  0.00    +0.000 A 
ATOM     21  C   UNL     1       7.055   5.058  14.688  0.00  0.00    +0.000 A 
ATOM     22  C   UNL     1       5.849   4.367  14.605  0.00  0.00    +0.000 A 
ATOM     23  C   UNL     1       4.883   4.518  15.606  0.00  0.00    +0.000 A 
ENDBRANCH   7  18
BRANCH   1  24
ATOM     24  C   UNL     1       1.958  11.611  19.941  0.00  0.00    +0.000 C 
BRANCH  24  28
ATOM     25  C   UNL     1       0.965  15.206  22.117  0.00  0.00    +0.000 A 
ATOM     26  C   UNL     1      -0.024  14.250  21.885  0.00  0.00    +0.000 A 
ATOM     27  C   UNL     1       0.257  13.119  21.110  0.00  0.00    +0.000 A 
ATOM     28  C   UNL     1       1.532  12.932  20.555  0.00  0.00    +0.000 A 
ATOM     29  C   UNL     1       2.499  13.933  20.754  0.00  0.00    +0.000 A 
ATOM     30  C   UNL     1       2.220  15.056  21.536  0.00  0.00    +0.000 A 
ENDBRANCH  24  28
ENDBRANCH   1  24
TORSDOF 3
ENDMDL
MODEL 8
REMARK VINA RESULT:      -7.2      4.723      7.614
REMARK  Name = 
REMARK  3 active torsions:
REMARK  status: ('A' for Active; 'I' for Inactive)
REMARK    1  A    between atoms: C_4  and  C_5
REMARK    2  A    between atoms: C_5  and  N_6
REMARK    3  A    between atoms: C_12  and  C_13
REMARK                            x       y       z     vdW  Elec       q    Type
REMARK                         _______ _______ _______ _____ _____    ______ ____
ROOT
ATOM      1  N   UNL     1      -4.577  13.909  21.981  0.00  0.00    +0.000 NA
ATOM      2  C   UNL     1      -3.801  12.672  22.213  0.00  0.00    +0.000 C 
ATOM      3  C   UNL     1      -2.602  12.393  21.268  0.00  0.00    +0.000 C 
ATOM      4  N   UNL     1      -1.789  13.594  21.007  0.00  0.00    +0.000 N 
ATOM      5  C   UNL     1      -0.644  13.382  20.238  0.00  0.00    +0.000 A 
ATOM      6  N   UNL     1      -0.247  12.129  20.066  0.00  0.00    +0.000 NA
ATOM      7  C   UNL     1       0.885  11.920  19.394  0.00  0.00    +0.000 A 
ATOM      8  N   UNL     1       1.653  12.886  18.906  0.00  0.00    +0.000 NA
ATOM      9  C   UNL     1       1.185  14.118  19.112  0.00  0.00    +0.000 A 
ATOM     10  N   UNL     1       1.970  15.188  18.603  0.00  0.00    +0.000 N 
ATOM     11  C   UNL     1       3.191  15.092  17.960  0.00  0.00    +0.000 A 
ATOM     12  C   UNL     1       3.539  16.377  17.626  0.00  0.00    +0.000 A 
ATOM     13  N   UNL     1       2.587  17.265  18.053  0.00  0.00    +0.000 NA
ATOM     14  C   UNL     1       1.669  16.527  18.643  0.00  0.00    +0.000 A 
ATOM     15  N   UNL     1       0.042  14.415  19.750  0.00  0.00    +0.000 NA
ATOM     16  C   UNL     1      -2.523  14.828  20.743  0.00  0.00    +0.000 C 
ATOM     17  C   UNL     1      -3.617  15.031  21.821  0.00  0.00    +0.000 C 
ENDROOT
BRANCH   7  18
ATOM     18  C   UNL     1       1.291  10.516  19.195  0.00  0.00    +0.000 A 
ATOM     19  C   UNL     1       1.866  10.099  17.977  0.00  0.00    +0.000 A 
ATOM     20  C   UNL     1       2.253   8.776  17.763  0.00  0.00    +0.000 A 
ATOM     21  C   UNL     1       2.075   7.833  18.769  0.00  0.00    +0.000 A 
ATOM     22  C   UNL     1       1.511   8.213  19.984  0.00  0.00    +0.000 A 
ATOM     23  C   UNL     1       1.126   9.541  20.196  0.00  0.00    +0.000 A 
ENDBRANCH   7  18
BRANCH   1  24
ATOM     24  C   UNL     1      -5.470  13.829  20.818  0.00  0.00    +0.000 C 
BRANCH  24  28
ATOM     25  C   UNL     1      -7.139  10.121  19.363  0.00  0.00    +0.000 A 
ATOM     26  C   UNL     1      -7.531  10.606  20.610  0.00  0.00    +0.000 A 
ATOM     27  C   UNL     1      -6.939  11.760  21.136  0.00  0.00    +0.000 A 
ATOM     28  C   UNL     1      -5.944  12.443  20.418  0.00  0.00    +0.000 A 
ATOM     29  C   UNL     1      -5.524  11.909  19.188  0.00  0.00    +0.000 A 
ATOM     30  C   UNL     1      -6.122  10.762  18.661  0.00  0.00    +0.000 A 
ENDBRANCH  24  28
ENDBRANCH   1  24
TORSDOF 3
ENDMDL
MODEL 9
REMARK VINA RESULT:      -7.1      8.387      9.046
REMARK  Name = 
REMARK  3 active torsions:
REMARK  status: ('A' for Active; 'I' for Inactive)
REMARK    1  A    between atoms: C_4  and  C_5
REMARK    2  A    between atoms: C_5  and  N_6
REMARK    3  A    between atoms: C_12  and  C_13
REMARK                            x       y       z     vdW  Elec       q    Type
REMARK                         _______ _______ _______ _____ _____    ______ ____
ROOT
ATOM      1  N   UNL     1       4.089  17.396  19.506  0.00  0.00    +0.000 NA
ATOM      2  C   UNL     1       4.223  17.168  20.960  0.00  0.00    +0.000 C 
ATOM      3  C   UNL     1       4.999  15.905  21.416  0.00  0.00    +0.000 C 
ATOM      4  N   UNL     1       6.231  15.680  20.639  0.00  0.00    +0.000 N 
ATOM      5  C   UNL     1       7.018  14.611  21.066  0.00  0.00    +0.000 A 
ATOM      6  N   UNL     1       6.755  14.096  22.259  0.00  0.00    +0.000 NA
ATOM      7  C   UNL     1       7.547  13.123  22.708  0.00  0.00    +0.000 A 
ATOM      8  N   UNL     1       8.596  12.650  22.046  0.00  0.00    +0.000 NA
ATOM      9  C   UNL     1       8.793  13.210  20.852  0.00  0.00    +0.000 A 
ATOM     10  N   UNL     1       9.902  12.733  20.103  0.00  0.00    +0.000 N 
ATOM     11  C   UNL     1      10.829  11.785  20.498  0.00  0.00    +0.000 A 
ATOM     12  C   UNL     1      11.683  11.631  19.435  0.00  0.00    +0.000 A 
ATOM     13  N   UNL     1      11.329  12.460  18.404  0.00  0.00    +0.000 NA
ATOM     14  C   UNL     1      10.271  13.114  18.836  0.00  0.00    +0.000 A 
ATOM     15  N   UNL     1       8.028  14.172  20.313  0.00  0.00    +0.000 NA
ATOM     16  C   UNL     1       6.127  15.867  19.194  0.00  0.00    +0.000 C 
ATOM     17  C   UNL     1       5.426  17.213  18.886  0.00  0.00    +0.000 C 
ENDROOT
BRANCH   7  18
ATOM     18  C   UNL     1       7.218  12.551  24.027  0.00  0.00    +0.000 A 
ATOM     19  C   UNL     1       7.946  12.923  25.175  0.00  0.00    +0.000 A 
ATOM     20  C   UNL     1       7.657  12.393  26.433  0.00  0.00    +0.000 A 
ATOM     21  C   UNL     1       6.625  11.472  26.572  0.00  0.00    +0.000 A 
ATOM     22  C   UNL     1       5.886  11.083  25.458  0.00  0.00    +0.000 A 
ATOM     23  C   UNL     1       6.178  11.620  24.199  0.00  0.00    +0.000 A 
ENDBRANCH   7  18
BRANCH   1  24
ATOM     24  C   UNL     1       3.101  16.518  18.865  0.00  0.00    +0.000 C 
BRANCH  24  28
ATOM     25  C   UNL     1      -0.555  17.967  17.083  0.00  0.00    +0.000 A 
ATOM     26  C   UNL     1       0.670  18.335  16.527  0.00  0.00    +0.000 A 
ATOM     27  C   UNL     1       1.867  17.945  17.140  0.00  0.00    +0.000 A 
ATOM     28  C   UNL     1       1.850  17.183  18.319  0.00  0.00    +0.000 A 
ATOM     29  C   UNL     1       0.607  16.868  18.893  0.00  0.00    +0.000 A 
ATOM     30  C   UNL     1      -0.587  17.250  18.275  0.00  0.00    +0.000 A 
ENDBRANCH  24  28
ENDBRANCH   1  24
TORSDOF 3
ENDMDL
