MODEL 1
REMARK VINA RESULT:      -8.3      0.000      0.000
REMARK  Name = 
REMARK  0 active torsions:
REMARK  status: ('A' for Active; 'I' for Inactive)
REMARK                            x       y       z     vdW  Elec       q    Type
REMARK                         _______ _______ _______ _____ _____    ______ ____
ROOT
ATOM      1  O   UNL     1       0.498  12.627  21.761  0.00  0.00    +0.000 OA
ATOM      2  C   UNL     1       0.851  11.936  20.805  0.00  0.00    +0.000 C 
ATOM      3  C   UNL     1       1.856  12.449  19.844  0.00  0.00    +0.000 A 
ATOM      4  C   UNL     1       2.574  13.623  20.096  0.00  0.00    +0.000 A 
ATOM      5  C   UNL     1       3.404  14.152  19.110  0.00  0.00    +0.000 A 
ATOM      6  C   UNL     1       3.518  13.525  17.863  0.00  0.00    +0.000 A 
ATOM      7  C   UNL     1       2.858  12.316  17.637  0.00  0.00    +0.000 A 
ATOM      8  C   UNL     1       2.067  11.763  18.650  0.00  0.00    +0.000 A 
ATOM      9  C   UNL     1       1.499  10.419  18.492  0.00  0.00    +0.000 C 
ATOM     10  O   UNL     1       1.435   9.882  17.390  0.00  0.00    +0.000 OA
ATOM     11  C   UNL     1       0.942   9.773  19.717  0.00  0.00    +0.000 A 
ATOM     12  C   UNL     1       0.364  10.548  20.690  0.00  0.00    +0.000 A 
ATOM     13  C   UNL     1      -0.410   9.950  21.689  0.00  0.00    +0.000 A 
ATOM     14  C   UNL     1      -0.434   8.545  21.791  0.00  0.00    +0.000 A 
ATOM     15  C   UNL     1       0.448   7.750  21.049  0.00  0.00    +0.000 A 
ATOM     16  N   UNL     1       0.711   6.456  21.390  0.00  0.00    +0.000 NA
ATOM     17  C   UNL     1       1.785   5.941  20.765  0.00  0.00    +0.000 A 
ATOM     18  C   UNL     1       2.499   6.682  19.830  0.00  0.00    +0.000 A 
ATOM     19  N   UNL     1       2.171   7.887  19.376  0.00  0.00    +0.000 NA
ATOM     20  C   UNL     1       1.141   8.438  19.993  0.00  0.00    +0.000 A 
ATOM     21  C   UNL     1       3.552   5.886  19.285  0.00  0.00    +0.000 A 
ATOM     22  C   UNL     1       4.418   6.161  18.258  0.00  0.00    +0.000 A 
ATOM     23  C   UNL     1       4.600   7.467  17.797  0.00  0.00    +0.000 A 
ATOM     24  C   UNL     1       4.533   7.718  16.467  0.00  0.00    +0.000 A 
ATOM     25  C   UNL     1       4.850   6.690  15.640  0.00  0.00    +0.000 A 
ATOM     26  C   UNL     1       5.195   5.408  16.158  0.00  0.00    +0.000 A 
ATOM     27  C   UNL     1       4.892   5.090  17.503  0.00  0.00    +0.000 A 
ATOM     28  C   UNL     1       4.888   3.793  18.117  0.00  0.00    +0.000 A 
ATOM     29  C   UNL     1       4.138   3.532  19.318  0.00  0.00    +0.000 A 
ATOM     30  C   UNL     1       3.930   2.351  20.050  0.00  0.00    +0.000 A 
ATOM     31  C   UNL     1       2.980   2.312  21.107  0.00  0.00    +0.000 A 
ATOM     32  C   UNL     1       2.179   3.430  21.444  0.00  0.00    +0.000 A 
ATOM     33  C   UNL     1       2.407   4.607  20.770  0.00  0.00    +0.000 A 
ATOM     34  C   UNL     1       3.405   4.615  19.788  0.00  0.00    +0.000 A 
ENDROOT
TORSDOF 0
ENDMDL
MODEL 2
REMARK VINA RESULT:      -8.2      5.637      7.889
REMARK  Name = 
REMARK  0 active torsions:
REMARK  status: ('A' for Active; 'I' for Inactive)
REMARK                            x       y       z     vdW  Elec       q    Type
REMARK                         _______ _______ _______ _____ _____    ______ ____
ROOT
ATOM      1  O   UNL     1      -5.978  16.855  22.872  0.00  0.00    +0.000 OA
ATOM      2  C   UNL     1      -5.843  15.924  22.077  0.00  0.00    +0.000 C 
ATOM      3  C   UNL     1      -6.023  16.152  20.624  0.00  0.00    +0.000 A 
ATOM      4  C   UNL     1      -6.146  17.442  20.097  0.00  0.00    +0.000 A 
ATOM      5  C   UNL     1      -6.456  17.613  18.749  0.00  0.00    +0.000 A 
ATOM      6  C   UNL     1      -6.658  16.504  17.919  0.00  0.00    +0.000 A 
ATOM      7  C   UNL     1      -6.466  15.218  18.427  0.00  0.00    +0.000 A 
ATOM      8  C   UNL     1      -6.103  15.055  19.768  0.00  0.00    +0.000 A 
ATOM      9  C   UNL     1      -5.739  13.728  20.278  0.00  0.00    +0.000 C 
ATOM     10  O   UNL     1      -6.029  12.708  19.659  0.00  0.00    +0.000 OA
ATOM     11  C   UNL     1      -5.067  13.676  21.610  0.00  0.00    +0.000 A 
ATOM     12  C   UNL     1      -5.381  14.610  22.565  0.00  0.00    +0.000 A 
ATOM     13  C   UNL     1      -4.989  14.410  23.891  0.00  0.00    +0.000 A 
ATOM     14  C   UNL     1      -4.117  13.344  24.197  0.00  0.00    +0.000 A 
ATOM     15  C   UNL     1      -3.485  12.614  23.184  0.00  0.00    +0.000 A 
ATOM     16  N   UNL     1      -2.379  11.854  23.428  0.00  0.00    +0.000 NA
ATOM     17  C   UNL     1      -1.733  11.467  22.314  0.00  0.00    +0.000 A 
ATOM     18  C   UNL     1      -2.214  11.795  21.051  0.00  0.00    +0.000 A 
ATOM     19  N   UNL     1      -3.366  12.404  20.790  0.00  0.00    +0.000 NA
ATOM     20  C   UNL     1      -4.011  12.830  21.863  0.00  0.00    +0.000 A 
ATOM     21  C   UNL     1      -1.374  11.220  20.050  0.00  0.00    +0.000 A 
ATOM     22  C   UNL     1      -1.533  11.181  18.688  0.00  0.00    +0.000 A 
ATOM     23  C   UNL     1      -2.432  12.031  18.041  0.00  0.00    +0.000 A 
ATOM     24  C   UNL     1      -3.310  11.514  17.147  0.00  0.00    +0.000 A 
ATOM     25  C   UNL     1      -2.932  10.373  16.519  0.00  0.00    +0.000 A 
ATOM     26  C   UNL     1      -1.691   9.741  16.823  0.00  0.00    +0.000 A 
ATOM     27  C   UNL     1      -0.995  10.094  18.003  0.00  0.00    +0.000 A 
ATOM     28  C   UNL     1       0.088   9.388  18.624  0.00  0.00    +0.000 A 
ATOM     29  C   UNL     1       0.401   9.567  20.018  0.00  0.00    +0.000 A 
ATOM     30  C   UNL     1       1.351   8.948  20.848  0.00  0.00    +0.000 A 
ATOM     31  C   UNL     1       1.333   9.163  22.254  0.00  0.00    +0.000 A 
ATOM     32  C   UNL     1       0.350   9.964  22.884  0.00  0.00    +0.000 A 
ATOM     33  C   UNL     1      -0.555  10.616  22.079  0.00  0.00    +0.000 A 
ATOM     34  C   UNL     1      -0.451  10.431  20.695  0.00  0.00    +0.000 A 
ENDROOT
TORSDOF 0
ENDMDL
MODEL 3
REMARK VINA RESULT:      -8.1      6.327      8.517
REMARK  Name = 
REMARK  0 active torsions:
REMARK  status: ('A' for Active; 'I' for Inactive)
REMARK                            x       y       z     vdW  Elec       q    Type
REMARK                         _______ _______ _______ _____ _____    ______ ____
ROOT
ATOM      1  O   UNL     1      -7.445  16.929  21.047  0.00  0.00    +0.000 OA
ATOM      2  C   UNL     1      -7.087  15.930  20.423  0.00  0.00    +0.000 C 
ATOM      3  C   UNL     1      -7.012  15.963  18.943  0.00  0.00    +0.000 A 
ATOM      4  C   UNL     1      -7.144  17.160  18.231  0.00  0.00    +0.000 A 
ATOM      5  C   UNL     1      -7.211  17.135  16.839  0.00  0.00    +0.000 A 
ATOM      6  C   UNL     1      -7.160  15.920  16.146  0.00  0.00    +0.000 A 
ATOM      7  C   UNL     1      -6.958  14.732  16.851  0.00  0.00    +0.000 A 
ATOM      8  C   UNL     1      -6.839  14.770  18.244  0.00  0.00    +0.000 A 
ATOM      9  C   UNL     1      -6.465  13.560  18.986  0.00  0.00    +0.000 C 
ATOM     10  O   UNL     1      -6.547  12.448  18.471  0.00  0.00    +0.000 OA
ATOM     11  C   UNL     1      -6.050  13.740  20.408  0.00  0.00    +0.000 A 
ATOM     12  C   UNL     1      -6.614  14.742  21.158  0.00  0.00    +0.000 A 
ATOM     13  C   UNL     1      -6.460  14.744  22.547  0.00  0.00    +0.000 A 
ATOM     14  C   UNL     1      -5.574  13.823  23.142  0.00  0.00    +0.000 A 
ATOM     15  C   UNL     1      -4.704  13.050  22.364  0.00  0.00    +0.000 A 
ATOM     16  N   UNL     1      -3.603  12.448  22.898  0.00  0.00    +0.000 NA
ATOM     17  C   UNL     1      -2.731  12.003  21.976  0.00  0.00    +0.000 A 
ATOM     18  C   UNL     1      -2.994  12.124  20.616  0.00  0.00    +0.000 A 
ATOM     19  N   UNL     1      -4.125  12.571  20.078  0.00  0.00    +0.000 NA
ATOM     20  C   UNL     1      -4.991  13.049  20.954  0.00  0.00    +0.000 A 
ATOM     21  C   UNL     1      -1.937  11.529  19.864  0.00  0.00    +0.000 A 
ATOM     22  C   UNL     1      -1.836  11.311  18.513  0.00  0.00    +0.000 A 
ATOM     23  C   UNL     1      -2.668  11.976  17.610  0.00  0.00    +0.000 A 
ATOM     24  C   UNL     1      -3.317  11.265  16.656  0.00  0.00    +0.000 A 
ATOM     25  C   UNL     1      -2.733  10.104  16.265  0.00  0.00    +0.000 A 
ATOM     26  C   UNL     1      -1.521   9.650  16.863  0.00  0.00    +0.000 A 
ATOM     27  C   UNL     1      -1.089  10.215  18.087  0.00  0.00    +0.000 A 
ATOM     28  C   UNL     1      -0.085   9.709  18.977  0.00  0.00    +0.000 A 
ATOM     29  C   UNL     1      -0.054  10.085  20.367  0.00  0.00    +0.000 A 
ATOM     30  C   UNL     1       0.774   9.676  21.426  0.00  0.00    +0.000 A 
ATOM     31  C   UNL     1       0.477  10.054  22.764  0.00  0.00    +0.000 A 
ATOM     32  C   UNL     1      -0.670  10.813  23.098  0.00  0.00    +0.000 A 
ATOM     33  C   UNL     1      -1.462  11.263  22.067  0.00  0.00    +0.000 A 
ATOM     34  C   UNL     1      -1.087  10.927  20.760  0.00  0.00    +0.000 A 
ENDROOT
TORSDOF 0
ENDMDL
MODEL 4
REMARK VINA RESULT:      -8.0      6.859      9.737
REMARK  Name = 
REMARK  0 active torsions:
REMARK  status: ('A' for Active; 'I' for Inactive)
REMARK                            x       y       z     vdW  Elec       q    Type
REMARK                         _______ _______ _______ _____ _____    ______ ____
ROOT
ATOM      1  O   UNL     1      -0.136  17.482  23.665  0.00  0.00    +0.000 OA
ATOM      2  C   UNL     1      -1.030  16.635  23.651  0.00  0.00    +0.000 C 
ATOM      3  C   UNL     1      -2.400  16.991  24.089  0.00  0.00    +0.000 A 
ATOM      4  C   UNL     1      -2.768  18.319  24.332  0.00  0.00    +0.000 A 
ATOM      5  C   UNL     1      -4.018  18.603  24.878  0.00  0.00    +0.000 A 
ATOM      6  C   UNL     1      -4.907  17.569  25.198  0.00  0.00    +0.000 A 
ATOM      7  C   UNL     1      -4.569  16.250  24.891  0.00  0.00    +0.000 A 
ATOM      8  C   UNL     1      -3.333  15.977  24.294  0.00  0.00    +0.000 A 
ATOM      9  C   UNL     1      -3.028  14.623  23.816  0.00  0.00    +0.000 C 
ATOM     10  O   UNL     1      -3.685  13.655  24.187  0.00  0.00    +0.000 OA
ATOM     11  C   UNL     1      -1.844  14.474  22.919  0.00  0.00    +0.000 A 
ATOM     12  C   UNL     1      -0.762  15.301  23.080  0.00  0.00    +0.000 A 
ATOM     13  C   UNL     1       0.450  14.994  22.457  0.00  0.00    +0.000 A 
ATOM     14  C   UNL     1       0.494  13.940  21.521  0.00  0.00    +0.000 A 
ATOM     15  C   UNL     1      -0.680  13.333  21.060  0.00  0.00    +0.000 A 
ATOM     16  N   UNL     1      -0.707  12.598  19.912  0.00  0.00    +0.000 NA
ATOM     17  C   UNL     1      -1.949  12.343  19.464  0.00  0.00    +0.000 A 
ATOM     18  C   UNL     1      -3.071  12.767  20.167  0.00  0.00    +0.000 A 
ATOM     19  N   UNL     1      -3.067  13.353  21.360  0.00  0.00    +0.000 NA
ATOM     20  C   UNL     1      -1.863  13.650  21.815  0.00  0.00    +0.000 A 
ATOM     21  C   UNL     1      -4.254  12.323  19.503  0.00  0.00    +0.000 A 
ATOM     22  C   UNL     1      -5.566  12.405  19.898  0.00  0.00    +0.000 A 
ATOM     23  C   UNL     1      -5.960  13.275  20.916  0.00  0.00    +0.000 A 
ATOM     24  C   UNL     1      -6.736  12.810  21.926  0.00  0.00    +0.000 A 
ATOM     25  C   UNL     1      -7.529  11.748  21.638  0.00  0.00    +0.000 A 
ATOM     26  C   UNL     1      -7.509  11.140  20.349  0.00  0.00    +0.000 A 
ATOM     27  C   UNL     1      -6.438  11.409  19.464  0.00  0.00    +0.000 A 
ATOM     28  C   UNL     1      -6.086  10.692  18.273  0.00  0.00    +0.000 A 
ATOM     29  C   UNL     1      -4.756  10.752  17.724  0.00  0.00    +0.000 A 
ATOM     30  C   UNL     1      -4.168  10.096  16.630  0.00  0.00    +0.000 A 
ATOM     31  C   UNL     1      -2.767  10.178  16.404  0.00  0.00    +0.000 A 
ATOM     32  C   UNL     1      -1.900  10.877  17.279  0.00  0.00    +0.000 A 
ATOM     33  C   UNL     1      -2.467  11.565  18.327  0.00  0.00    +0.000 A 
ATOM     34  C   UNL     1      -3.860  11.514  18.463  0.00  0.00    +0.000 A 
ENDROOT
TORSDOF 0
ENDMDL
MODEL 5
REMARK VINA RESULT:      -7.5      6.378      9.318
REMARK  Name = 
REMARK  0 active torsions:
REMARK  status: ('A' for Active; 'I' for Inactive)
REMARK                            x       y       z     vdW  Elec       q    Type
REMARK                         _______ _______ _______ _____ _____    ______ ____
ROOT
ATOM      1  O   UNL     1      -6.125  11.944  18.865  0.00  0.00    +0.000 OA
ATOM      2  C   UNL     1      -4.897  11.882  18.936  0.00  0.00    +0.000 C 
ATOM      3  C   UNL     1      -4.103  11.446  17.763  0.00  0.00    +0.000 A 
ATOM      4  C   UNL     1      -4.689  11.290  16.502  0.00  0.00    +0.000 A 
ATOM      5  C   UNL     1      -3.947  10.743  15.456  0.00  0.00    +0.000 A 
ATOM      6  C   UNL     1      -2.623  10.336  15.660  0.00  0.00    +0.000 A 
ATOM      7  C   UNL     1      -2.016  10.557  16.897  0.00  0.00    +0.000 A 
ATOM      8  C   UNL     1      -2.750  11.155  17.927  0.00  0.00    +0.000 A 
ATOM      9  C   UNL     1      -2.087  11.543  19.178  0.00  0.00    +0.000 C 
ATOM     10  O   UNL     1      -0.984  11.094  19.478  0.00  0.00    +0.000 OA
ATOM     11  C   UNL     1      -2.844  12.448  20.092  0.00  0.00    +0.000 A 
ATOM     12  C   UNL     1      -4.212  12.364  20.151  0.00  0.00    +0.000 A 
ATOM     13  C   UNL     1      -4.905  12.986  21.193  0.00  0.00    +0.000 A 
ATOM     14  C   UNL     1      -4.207  13.846  22.064  0.00  0.00    +0.000 A 
ATOM     15  C   UNL     1      -2.892  14.243  21.791  0.00  0.00    +0.000 A 
ATOM     16  N   UNL     1      -2.333  15.337  22.383  0.00  0.00    +0.000 NA
ATOM     17  C   UNL     1      -1.194  15.744  21.796  0.00  0.00    +0.000 A 
ATOM     18  C   UNL     1      -0.650  15.053  20.719  0.00  0.00    +0.000 A 
ATOM     19  N   UNL     1      -1.098  13.904  20.225  0.00  0.00    +0.000 NA
ATOM     20  C   UNL     1      -2.236  13.491  20.755  0.00  0.00    +0.000 A 
ATOM     21  C   UNL     1       0.579  15.664  20.324  0.00  0.00    +0.000 A 
ATOM     22  C   UNL     1       1.506  15.252  19.400  0.00  0.00    +0.000 A 
ATOM     23  C   UNL     1       1.189  14.290  18.438  0.00  0.00    +0.000 A 
ATOM     24  C   UNL     1       2.022  13.237  18.252  0.00  0.00    +0.000 A 
ATOM     25  C   UNL     1       3.327  13.436  18.563  0.00  0.00    +0.000 A 
ATOM     26  C   UNL     1       3.777  14.680  19.094  0.00  0.00    +0.000 A 
ATOM     27  C   UNL     1       2.837  15.600  19.616  0.00  0.00    +0.000 A 
ATOM     28  C   UNL     1       3.098  16.744  20.441  0.00  0.00    +0.000 A 
ATOM     29  C   UNL     1       2.075  17.319  21.275  0.00  0.00    +0.000 A 
ATOM     30  C   UNL     1       2.110  18.376  22.200  0.00  0.00    +0.000 A 
ATOM     31  C   UNL     1       1.000  18.631  23.050  0.00  0.00    +0.000 A 
ATOM     32  C   UNL     1      -0.163  17.822  23.039  0.00  0.00    +0.000 A 
ATOM     33  C   UNL     1      -0.232  16.815  22.103  0.00  0.00    +0.000 A 
ATOM     34  C   UNL     1       0.858  16.651  21.239  0.00  0.00    +0.000 A 
ENDROOT
TORSDOF 0
ENDMDL
MODEL 6
REMARK VINA RESULT:      -7.4      6.336      8.908
REMARK  Name = 
REMARK  0 active torsions:
REMARK  status: ('A' for Active; 'I' for Inactive)
REMARK                            x       y       z     vdW  Elec       q    Type
REMARK                         _______ _______ _______ _____ _____    ______ ____
ROOT
ATOM      1  O   UNL     1       2.434  16.524  22.229  0.00  0.00    +0.000 OA
ATOM      2  C   UNL     1       1.398  15.892  22.437  0.00  0.00    +0.000 C 
ATOM      3  C   UNL     1       0.248  16.544  23.107  0.00  0.00    +0.000 A 
ATOM      4  C   UNL     1       0.224  17.923  23.337  0.00  0.00    +0.000 A 
ATOM      5  C   UNL     1      -0.805  18.481  24.095  0.00  0.00    +0.000 A 
ATOM      6  C   UNL     1      -1.808  17.670  24.639  0.00  0.00    +0.000 A 
ATOM      7  C   UNL     1      -1.823  16.304  24.351  0.00  0.00    +0.000 A 
ATOM      8  C   UNL     1      -0.817  15.760  23.546  0.00  0.00    +0.000 A 
ATOM      9  C   UNL     1      -0.904  14.364  23.099  0.00  0.00    +0.000 C 
ATOM     10  O   UNL     1      -1.662  13.568  23.645  0.00  0.00    +0.000 OA
ATOM     11  C   UNL     1       0.019  13.948  22.002  0.00  0.00    +0.000 A 
ATOM     12  C   UNL     1       1.261  14.522  21.904  0.00  0.00    +0.000 A 
ATOM     13  C   UNL     1       2.232  13.949  21.080  0.00  0.00    +0.000 A 
ATOM     14  C   UNL     1       1.865  12.896  20.217  0.00  0.00    +0.000 A 
ATOM     15  C   UNL     1       0.522  12.551  20.025  0.00  0.00    +0.000 A 
ATOM     16  N   UNL     1       0.113  11.821  18.949  0.00  0.00    +0.000 NA
ATOM     17  C   UNL     1      -1.218  11.835  18.762  0.00  0.00    +0.000 A 
ATOM     18  C   UNL     1      -2.063  12.504  19.640  0.00  0.00    +0.000 A 
ATOM     19  N   UNL     1      -1.698  13.094  20.774  0.00  0.00    +0.000 NA
ATOM     20  C   UNL     1      -0.392  13.130  20.973  0.00  0.00    +0.000 A 
ATOM     21  C   UNL     1      -3.421  12.317  19.242  0.00  0.00    +0.000 A 
ATOM     22  C   UNL     1      -4.580  12.689  19.876  0.00  0.00    +0.000 A 
ATOM     23  C   UNL     1      -4.572  13.640  20.898  0.00  0.00    +0.000 A 
ATOM     24  C   UNL     1      -5.210  13.371  22.062  0.00  0.00    +0.000 A 
ATOM     25  C   UNL     1      -6.251  12.502  21.995  0.00  0.00    +0.000 A 
ATOM     26  C   UNL     1      -6.615  11.884  20.764  0.00  0.00    +0.000 A 
ATOM     27  C   UNL     1      -5.710  11.899  19.676  0.00  0.00    +0.000 A 
ATOM     28  C   UNL     1      -5.762  11.103  18.484  0.00  0.00    +0.000 A 
ATOM     29  C   UNL     1      -4.586  10.864  17.688  0.00  0.00    +0.000 A 
ATOM     30  C   UNL     1      -4.379  10.079  16.542  0.00  0.00    +0.000 A 
ATOM     31  C   UNL     1      -3.066   9.851  16.048  0.00  0.00    +0.000 A 
ATOM     32  C   UNL     1      -1.915  10.358  16.698  0.00  0.00    +0.000 A 
ATOM     33  C   UNL     1      -2.104  11.170  17.793  0.00  0.00    +0.000 A 
ATOM     34  C   UNL     1      -3.421  11.426  18.196  0.00  0.00    +0.000 A 
ENDROOT
TORSDOF 0
ENDMDL
MODEL 7
REMARK VINA RESULT:      -7.4      5.561      9.469
REMARK  Name = 
REMARK  0 active torsions:
REMARK  status: ('A' for Active; 'I' for Inactive)
REMARK                            x       y       z     vdW  Elec       q    Type
REMARK                         _______ _______ _______ _____ _____    ______ ____
ROOT
ATOM      1  O   UNL     1       3.373  14.026  18.829  0.00  0.00    +0.000 OA
ATOM      2  C   UNL     1       2.483  14.048  19.679  0.00  0.00    +0.000 C 
ATOM      3  C   UNL     1       2.309  15.239  20.545  0.00  0.00    +0.000 A 
ATOM      4  C   UNL     1       2.999  16.431  20.294  0.00  0.00    +0.000 A 
ATOM      5  C   UNL     1       2.921  17.481  21.207  0.00  0.00    +0.000 A 
ATOM      6  C   UNL     1       2.168  17.350  22.380  0.00  0.00    +0.000 A 
ATOM      7  C   UNL     1       1.423  16.189  22.596  0.00  0.00    +0.000 A 
ATOM      8  C   UNL     1       1.464  15.159  21.650  0.00  0.00    +0.000 A 
ATOM      9  C   UNL     1       0.567  14.004  21.776  0.00  0.00    +0.000 C 
ATOM     10  O   UNL     1      -0.003  13.756  22.835  0.00  0.00    +0.000 OA
ATOM     11  C   UNL     1       0.439  13.115  20.585  0.00  0.00    +0.000 A 
ATOM     12  C   UNL     1       1.514  12.939  19.750  0.00  0.00    +0.000 A 
ATOM     13  C   UNL     1       1.506  11.902  18.813  0.00  0.00    +0.000 A 
ATOM     14  C   UNL     1       0.320  11.167  18.611  0.00  0.00    +0.000 A 
ATOM     15  C   UNL     1      -0.892  11.579  19.177  0.00  0.00    +0.000 A 
ATOM     16  N   UNL     1      -2.093  11.131  18.712  0.00  0.00    +0.000 NA
ATOM     17  C   UNL     1      -3.144  11.840  19.159  0.00  0.00    +0.000 A 
ATOM     18  C   UNL     1      -2.976  12.894  20.051  0.00  0.00    +0.000 A 
ATOM     19  N   UNL     1      -1.833  13.249  20.630  0.00  0.00    +0.000 NA
ATOM     20  C   UNL     1      -0.773  12.595  20.188  0.00  0.00    +0.000 A 
ATOM     21  C   UNL     1      -4.248  13.438  20.402  0.00  0.00    +0.000 A 
ATOM     22  C   UNL     1      -4.567  14.394  21.332  0.00  0.00    +0.000 A 
ATOM     23  C   UNL     1      -3.590  15.240  21.863  0.00  0.00    +0.000 A 
ATOM     24  C   UNL     1      -3.508  15.401  23.206  0.00  0.00    +0.000 A 
ATOM     25  C   UNL     1      -4.654  15.214  23.909  0.00  0.00    +0.000 A 
ATOM     26  C   UNL     1      -5.863  14.830  23.258  0.00  0.00    +0.000 A 
ATOM     27  C   UNL     1      -5.818  14.316  21.941  0.00  0.00    +0.000 A 
ATOM     28  C   UNL     1      -6.855  13.618  21.238  0.00  0.00    +0.000 A 
ATOM     29  C   UNL     1      -6.559  12.757  20.122  0.00  0.00    +0.000 A 
ATOM     30  C   UNL     1      -7.382  11.933  19.336  0.00  0.00    +0.000 A 
ATOM     31  C   UNL     1      -6.814  11.022  18.404  0.00  0.00    +0.000 A 
ATOM     32  C   UNL     1      -5.415  10.870  18.252  0.00  0.00    +0.000 A 
ATOM     33  C   UNL     1      -4.598  11.706  18.978  0.00  0.00    +0.000 A 
ATOM     34  C   UNL     1      -5.207  12.637  19.828  0.00  0.00    +0.000 A 
ENDROOT
TORSDOF 0
ENDMDL
MODEL 8
REMARK VINA RESULT:      -7.4      5.246      9.293
REMARK  Name = 
REMARK  0 active torsions:
REMARK  status: ('A' for Active; 'I' for Inactive)
REMARK                            x       y       z     vdW  Elec       q    Type
REMARK                         _______ _______ _______ _____ _____    ______ ____
ROOT
ATOM      1  O   UNL     1      -6.725  16.637  20.889  0.00  0.00    +0.000 OA
ATOM      2  C   UNL     1      -5.899  15.726  20.963  0.00  0.00    +0.000 C 
ATOM      3  C   UNL     1      -6.255  14.359  20.514  0.00  0.00    +0.000 A 
ATOM      4  C   UNL     1      -7.441  14.105  19.816  0.00  0.00    +0.000 A 
ATOM      5  C   UNL     1      -7.811  12.791  19.536  0.00  0.00    +0.000 A 
ATOM      6  C   UNL     1      -7.012  11.721  19.956  0.00  0.00    +0.000 A 
ATOM      7  C   UNL     1      -5.794  11.977  20.589  0.00  0.00    +0.000 A 
ATOM      8  C   UNL     1      -5.404  13.300  20.821  0.00  0.00    +0.000 A 
ATOM      9  C   UNL     1      -4.061  13.593  21.335  0.00  0.00    +0.000 C 
ATOM     10  O   UNL     1      -3.374  12.718  21.854  0.00  0.00    +0.000 OA
ATOM     11  C   UNL     1      -3.603  15.012  21.259  0.00  0.00    +0.000 A 
ATOM     12  C   UNL     1      -4.517  16.027  21.383  0.00  0.00    +0.000 A 
ATOM     13  C   UNL     1      -4.080  17.336  21.604  0.00  0.00    +0.000 A 
ATOM     14  C   UNL     1      -2.704  17.625  21.513  0.00  0.00    +0.000 A 
ATOM     15  C   UNL     1      -1.797  16.682  21.014  0.00  0.00    +0.000 A 
ATOM     16  N   UNL     1      -0.560  17.040  20.565  0.00  0.00    +0.000 NA
ATOM     17  C   UNL     1       0.055  16.078  19.856  0.00  0.00    +0.000 A 
ATOM     18  C   UNL     1      -0.534  14.833  19.666  0.00  0.00    +0.000 A 
ATOM     19  N   UNL     1      -1.668  14.415  20.219  0.00  0.00    +0.000 NA
ATOM     20  C   UNL     1      -2.318  15.347  20.895  0.00  0.00    +0.000 A 
ATOM     21  C   UNL     1       0.349  13.988  18.927  0.00  0.00    +0.000 A 
ATOM     22  C   UNL     1       0.236  12.656  18.620  0.00  0.00    +0.000 A 
ATOM     23  C   UNL     1      -0.988  11.992  18.724  0.00  0.00    +0.000 A 
ATOM     24  C   UNL     1      -1.050  10.810  19.386  0.00  0.00    +0.000 A 
ATOM     25  C   UNL     1       0.090  10.075  19.419  0.00  0.00    +0.000 A 
ATOM     26  C   UNL     1       1.292  10.552  18.819  0.00  0.00    +0.000 A 
ATOM     27  C   UNL     1       1.411  11.920  18.479  0.00  0.00    +0.000 A 
ATOM     28  C   UNL     1       2.607  12.639  18.148  0.00  0.00    +0.000 A 
ATOM     29  C   UNL     1       2.683  14.071  18.274  0.00  0.00    +0.000 A 
ATOM     30  C   UNL     1       3.746  14.970  18.079  0.00  0.00    +0.000 A 
ATOM     31  C   UNL     1       3.619  16.334  18.459  0.00  0.00    +0.000 A 
ATOM     32  C   UNL     1       2.452  16.840  19.081  0.00  0.00    +0.000 A 
ATOM     33  C   UNL     1       1.385  15.984  19.232  0.00  0.00    +0.000 A 
ATOM     34  C   UNL     1       1.533  14.669  18.774  0.00  0.00    +0.000 A 
ENDROOT
TORSDOF 0
ENDMDL
MODEL 9
REMARK VINA RESULT:      -7.4      5.602     10.420
REMARK  Name = 
REMARK  0 active torsions:
REMARK  status: ('A' for Active; 'I' for Inactive)
REMARK                            x       y       z     vdW  Elec       q    Type
REMARK                         _______ _______ _______ _____ _____    ______ ____
ROOT
ATOM      1  O   UNL     1       1.300  10.143  20.438  0.00  0.00    +0.000 OA
ATOM      2  C   UNL     1       0.958  11.288  20.739  0.00  0.00    +0.000 C 
ATOM      3  C   UNL     1       1.322  12.429  19.866  0.00  0.00    +0.000 A 
ATOM      4  C   UNL     1       1.874  12.230  18.596  0.00  0.00    +0.000 A 
ATOM      5  C   UNL     1       2.335  13.321  17.863  0.00  0.00    +0.000 A 
ATOM      6  C   UNL     1       2.262  14.616  18.391  0.00  0.00    +0.000 A 
ATOM      7  C   UNL     1       1.648  14.823  19.627  0.00  0.00    +0.000 A 
ATOM      8  C   UNL     1       1.140  13.728  20.335  0.00  0.00    +0.000 A 
ATOM      9  C   UNL     1       0.349  13.940  21.553  0.00  0.00    +0.000 C 
ATOM     10  O   UNL     1       0.369  15.016  22.144  0.00  0.00    +0.000 OA
ATOM     11  C   UNL     1      -0.418  12.770  22.073  0.00  0.00    +0.000 A 
ATOM     12  C   UNL     1       0.080  11.503  21.906  0.00  0.00    +0.000 A 
ATOM     13  C   UNL     1      -0.465  10.438  22.627  0.00  0.00    +0.000 A 
ATOM     14  C   UNL     1      -1.641  10.647  23.377  0.00  0.00    +0.000 A 
ATOM     15  C   UNL     1      -2.376  11.832  23.255  0.00  0.00    +0.000 A 
ATOM     16  N   UNL     1      -3.676  11.917  23.658  0.00  0.00    +0.000 NA
ATOM     17  C   UNL     1      -4.311  13.012  23.203  0.00  0.00    +0.000 A 
ATOM     18  C   UNL     1      -3.648  13.965  22.439  0.00  0.00    +0.000 A 
ATOM     19  N   UNL     1      -2.348  13.975  22.162  0.00  0.00    +0.000 NA
ATOM     20  C   UNL     1      -1.699  12.896  22.564  0.00  0.00    +0.000 A 
ATOM     21  C   UNL     1      -4.534  15.042  22.134  0.00  0.00    +0.000 A 
ATOM     22  C   UNL     1      -4.279  16.240  21.516  0.00  0.00    +0.000 A 
ATOM     23  C   UNL     1      -3.112  16.436  20.774  0.00  0.00    +0.000 A 
ATOM     24  C   UNL     1      -2.359  17.540  20.997  0.00  0.00    +0.000 A 
ATOM     25  C   UNL     1      -3.010  18.629  21.479  0.00  0.00    +0.000 A 
ATOM     26  C   UNL     1      -4.405  18.586  21.768  0.00  0.00    +0.000 A 
ATOM     27  C   UNL     1      -5.060  17.336  21.878  0.00  0.00    +0.000 A 
ATOM     28  C   UNL     1      -6.354  17.072  22.436  0.00  0.00    +0.000 A 
ATOM     29  C   UNL     1      -6.716  15.763  22.911  0.00  0.00    +0.000 A 
ATOM     30  C   UNL     1      -7.875  15.288  23.547  0.00  0.00    +0.000 A 
ATOM     31  C   UNL     1      -7.914  13.978  24.099  0.00  0.00    +0.000 A 
ATOM     32  C   UNL     1      -6.792  13.114  24.074  0.00  0.00    +0.000 A 
ATOM     33  C   UNL     1      -5.666  13.546  23.411  0.00  0.00    +0.000 A 
ATOM     34  C   UNL     1      -5.703  14.816  22.820  0.00  0.00    +0.000 A 
ENDROOT
TORSDOF 0
ENDMDL
