MODEL 1
REMARK VINA RESULT:      -7.6      0.000      0.000
REMARK  Name = 
REMARK  6 active torsions:
REMARK  status: ('A' for Active; 'I' for Inactive)
REMARK    1  A    between atoms: C_2  and  C_3
REMARK    2  A    between atoms: C_3  and  S_4
REMARK    3  A    between atoms: S_4  and  C_5
REMARK    4  A    between atoms: C_7  and  C_8
REMARK    5  A    between atoms: C_14  and  C_15
REMARK    6  A    between atoms: N_20  and  N_21
REMARK                            x       y       z     vdW  Elec       q    Type
REMARK                         _______ _______ _______ _____ _____    ______ ____
ROOT
ATOM      1  C   UNL     1       4.655   6.242  17.194  0.00  0.00    +0.000 A 
ATOM      2  N   UNL     1       4.909   5.796  15.959  0.00  0.00    +0.000 NA
ATOM      3  C   UNL     1       6.144   5.314  15.728  0.00  0.00    +0.000 A 
ATOM      4  C   UNL     1       7.134   5.310  16.686  0.00  0.00    +0.000 A 
ATOM      5  C   UNL     1       6.794   5.794  17.934  0.00  0.00    +0.000 A 
ATOM      6  N   UNL     1       5.543   6.253  18.205  0.00  0.00    +0.000 NA
ENDROOT
BRANCH   3   7
ATOM      7  C   UNL     1       6.365   4.781  14.391  0.00  0.00    +0.000 A 
ATOM      8  C   UNL     1       5.750   3.806  13.629  0.00  0.00    +0.000 A 
ATOM      9  C   UNL     1       6.465   3.731  12.408  0.00  0.00    +0.000 A 
ATOM     10  C   UNL     1       7.464   4.669  12.494  0.00  0.00    +0.000 A 
ATOM     11  O   UNL     1       7.414   5.312  13.689  0.00  0.00    +0.000 OA
ENDBRANCH   3   7
BRANCH   5  12
ATOM     12  C   UNL     1       7.839   5.808  19.036  0.00  0.00    +0.000 C 
ATOM     13  F   UNL     1       8.740   4.787  18.947  0.00  0.00    +0.000 F 
ATOM     14  F   UNL     1       8.582   6.951  19.051  0.00  0.00    +0.000 F 
ATOM     15  F   UNL     1       7.288   5.701  20.278  0.00  0.00    +0.000 F 
ENDBRANCH   5  12
BRANCH   1  16
ATOM     16  S   UNL     1       3.075   7.004  17.463  0.00  0.00    +0.000 S 
BRANCH  16  17
ATOM     17  C   UNL     1       3.069   7.072  19.278  0.00  0.00    +0.000 C 
BRANCH  17  19
ATOM     18  O   UNL     1       1.460   5.986  20.737  0.00  0.00    +0.000 OA
ATOM     19  C   UNL     1       2.356   5.882  19.901  0.00  0.00    +0.000 C 
ATOM     20  N   UNL     1       2.853   4.665  19.434  0.00  0.00    +0.000 N 
ATOM     21  H   UNL     1       3.587   4.648  18.733  0.00  0.00    +0.000 HD
BRANCH  20  22
ATOM     22  N   UNL     1       2.297   3.451  19.898  0.00  0.00    +0.000 NA
ATOM     23  C   UNL     1       3.294   2.581  20.552  0.00  0.00    +0.000 C 
ATOM     24  C   UNL     1       4.275   1.945  19.557  0.00  0.00    +0.000 C 
ATOM     25  O   UNL     1       3.587   1.225  18.528  0.00  0.00    +0.000 OA
ATOM     26  C   UNL     1       2.661   2.076  17.838  0.00  0.00    +0.000 C 
ATOM     27  C   UNL     1       1.644   2.699  18.804  0.00  0.00    +0.000 C 
ENDBRANCH  20  22
ENDBRANCH  17  19
ENDBRANCH  16  17
ENDBRANCH   1  16
TORSDOF 6
ENDMDL
MODEL 2
REMARK VINA RESULT:      -7.4      1.157      1.621
REMARK  Name = 
REMARK  6 active torsions:
REMARK  status: ('A' for Active; 'I' for Inactive)
REMARK    1  A    between atoms: C_2  and  C_3
REMARK    2  A    between atoms: C_3  and  S_4
REMARK    3  A    between atoms: S_4  and  C_5
REMARK    4  A    between atoms: C_7  and  C_8
REMARK    5  A    between atoms: C_14  and  C_15
REMARK    6  A    between atoms: N_20  and  N_21
REMARK                            x       y       z     vdW  Elec       q    Type
REMARK                         _______ _______ _______ _____ _____    ______ ____
ROOT
ATOM      1  C   UNL     1       4.794   6.545  16.922  0.00  0.00    +0.000 A 
ATOM      2  N   UNL     1       5.023   6.020  15.713  0.00  0.00    +0.000 NA
ATOM      3  C   UNL     1       6.179   5.352  15.548  0.00  0.00    +0.000 A 
ATOM      4  C   UNL     1       7.123   5.238  16.545  0.00  0.00    +0.000 A 
ATOM      5  C   UNL     1       6.815   5.815  17.762  0.00  0.00    +0.000 A 
ATOM      6  N   UNL     1       5.638   6.463  17.967  0.00  0.00    +0.000 NA
ENDROOT
BRANCH   3   7
ATOM      7  C   UNL     1       6.365   4.742  14.239  0.00  0.00    +0.000 A 
ATOM      8  C   UNL     1       5.726   3.732  13.548  0.00  0.00    +0.000 A 
ATOM      9  C   UNL     1       6.411   3.580  12.317  0.00  0.00    +0.000 A 
ATOM     10  C   UNL     1       7.420   4.513  12.327  0.00  0.00    +0.000 A 
ATOM     11  O   UNL     1       7.402   5.223  13.484  0.00  0.00    +0.000 OA
ENDBRANCH   3   7
BRANCH   5  12
ATOM     12  C   UNL     1       7.812   5.716  18.904  0.00  0.00    +0.000 C 
ATOM     13  F   UNL     1       7.227   5.542  20.125  0.00  0.00    +0.000 F 
ATOM     14  F   UNL     1       8.682   4.677  18.764  0.00  0.00    +0.000 F 
ATOM     15  F   UNL     1       8.579   6.837  19.024  0.00  0.00    +0.000 F 
ENDBRANCH   5  12
BRANCH   1  16
ATOM     16  S   UNL     1       3.337   7.542  17.102  0.00  0.00    +0.000 S 
BRANCH  16  17
ATOM     17  C   UNL     1       2.643   6.805  18.609  0.00  0.00    +0.000 C 
BRANCH  17  19
ATOM     18  O   UNL     1       1.454   4.994  17.511  0.00  0.00    +0.000 OA
ATOM     19  C   UNL     1       2.216   5.360  18.405  0.00  0.00    +0.000 C 
ATOM     20  N   UNL     1       2.764   4.506  19.362  0.00  0.00    +0.000 N 
ATOM     21  H   UNL     1       3.396   4.871  20.068  0.00  0.00    +0.000 HD
BRANCH  20  22
ATOM     22  N   UNL     1       2.484   3.121  19.317  0.00  0.00    +0.000 NA
ATOM     23  C   UNL     1       1.642   2.674  20.444  0.00  0.00    +0.000 C 
ATOM     24  C   UNL     1       2.399   2.647  21.780  0.00  0.00    +0.000 C 
ATOM     25  O   UNL     1       3.583   1.847  21.697  0.00  0.00    +0.000 OA
ATOM     26  C   UNL     1       4.444   2.312  20.648  0.00  0.00    +0.000 C 
ATOM     27  C   UNL     1       3.725   2.316  19.293  0.00  0.00    +0.000 C 
ENDBRANCH  20  22
ENDBRANCH  17  19
ENDBRANCH  16  17
ENDBRANCH   1  16
TORSDOF 6
ENDMDL
MODEL 3
REMARK VINA RESULT:      -7.3      0.588      1.063
REMARK  Name = 
REMARK  6 active torsions:
REMARK  status: ('A' for Active; 'I' for Inactive)
REMARK    1  A    between atoms: C_2  and  C_3
REMARK    2  A    between atoms: C_3  and  S_4
REMARK    3  A    between atoms: S_4  and  C_5
REMARK    4  A    between atoms: C_7  and  C_8
REMARK    5  A    between atoms: C_14  and  C_15
REMARK    6  A    between atoms: N_20  and  N_21
REMARK                            x       y       z     vdW  Elec       q    Type
REMARK                         _______ _______ _______ _____ _____    ______ ____
ROOT
ATOM      1  C   UNL     1       4.683   6.229  17.066  0.00  0.00    +0.000 A 
ATOM      2  N   UNL     1       4.946   5.773  15.836  0.00  0.00    +0.000 NA
ATOM      3  C   UNL     1       6.176   5.272  15.624  0.00  0.00    +0.000 A 
ATOM      4  C   UNL     1       7.153   5.256  16.595  0.00  0.00    +0.000 A 
ATOM      5  C   UNL     1       6.804   5.751  17.836  0.00  0.00    +0.000 A 
ATOM      6  N   UNL     1       5.557   6.231  18.088  0.00  0.00    +0.000 NA
ENDROOT
BRANCH   3   7
ATOM      7  C   UNL     1       6.406   4.729  14.292  0.00  0.00    +0.000 A 
ATOM      8  C   UNL     1       7.387   4.908  13.335  0.00  0.00    +0.000 A 
ATOM      9  C   UNL     1       7.020   4.114  12.221  0.00  0.00    +0.000 A 
ATOM     10  C   UNL     1       5.846   3.493  12.567  0.00  0.00    +0.000 A 
ATOM     11  O   UNL     1       5.464   3.856  13.818  0.00  0.00    +0.000 OA
ENDBRANCH   3   7
BRANCH   5  12
ATOM     12  C   UNL     1       7.835   5.754  18.952  0.00  0.00    +0.000 C 
ATOM     13  F   UNL     1       7.290   5.651  20.198  0.00  0.00    +0.000 F 
ATOM     14  F   UNL     1       8.727   4.728  18.855  0.00  0.00    +0.000 F 
ATOM     15  F   UNL     1       8.577   6.898  18.972  0.00  0.00    +0.000 F 
ENDBRANCH   5  12
BRANCH   1  16
ATOM     16  S   UNL     1       3.111   7.017  17.311  0.00  0.00    +0.000 S 
BRANCH  16  17
ATOM     17  C   UNL     1       3.096   7.121  19.123  0.00  0.00    +0.000 C 
BRANCH  17  19
ATOM     18  O   UNL     1       1.640   6.041  20.740  0.00  0.00    +0.000 OA
ATOM     19  C   UNL     1       2.385   5.940  19.766  0.00  0.00    +0.000 C 
ATOM     20  N   UNL     1       2.697   4.732  19.143  0.00  0.00    +0.000 N 
ATOM     21  H   UNL     1       3.312   4.718  18.335  0.00  0.00    +0.000 HD
BRANCH  20  22
ATOM     22  N   UNL     1       2.114   3.529  19.603  0.00  0.00    +0.000 NA
ATOM     23  C   UNL     1       3.035   2.733  20.438  0.00  0.00    +0.000 C 
ATOM     24  C   UNL     1       4.158   2.073  19.626  0.00  0.00    +0.000 C 
ATOM     25  O   UNL     1       3.636   1.272  18.561  0.00  0.00    +0.000 OA
ATOM     26  C   UNL     1       2.792   2.049  17.700  0.00  0.00    +0.000 C 
ATOM     27  C   UNL     1       1.637   2.692  18.480  0.00  0.00    +0.000 C 
ENDBRANCH  20  22
ENDBRANCH  17  19
ENDBRANCH  16  17
ENDBRANCH   1  16
TORSDOF 6
ENDMDL
MODEL 4
REMARK VINA RESULT:      -7.1      4.703      6.708
REMARK  Name = 
REMARK  6 active torsions:
REMARK  status: ('A' for Active; 'I' for Inactive)
REMARK    1  A    between atoms: C_2  and  C_3
REMARK    2  A    between atoms: C_3  and  S_4
REMARK    3  A    between atoms: S_4  and  C_5
REMARK    4  A    between atoms: C_7  and  C_8
REMARK    5  A    between atoms: C_14  and  C_15
REMARK    6  A    between atoms: N_20  and  N_21
REMARK                            x       y       z     vdW  Elec       q    Type
REMARK                         _______ _______ _______ _____ _____    ______ ____
ROOT
ATOM      1  C   UNL     1       2.519   6.052  18.790  0.00  0.00    +0.000 A 
ATOM      2  N   UNL     1       3.599   5.932  18.009  0.00  0.00    +0.000 NA
ATOM      3  C   UNL     1       3.920   4.691  17.602  0.00  0.00    +0.000 A 
ATOM      4  C   UNL     1       3.217   3.573  17.992  0.00  0.00    +0.000 A 
ATOM      5  C   UNL     1       2.120   3.780  18.805  0.00  0.00    +0.000 A 
ATOM      6  N   UNL     1       1.751   5.028  19.201  0.00  0.00    +0.000 NA
ENDROOT
BRANCH   3   7
ATOM      7  C   UNL     1       5.064   4.607  16.704  0.00  0.00    +0.000 A 
ATOM      8  C   UNL     1       5.209   4.397  15.346  0.00  0.00    +0.000 A 
ATOM      9  C   UNL     1       6.600   4.389  15.080  0.00  0.00    +0.000 A 
ATOM     10  C   UNL     1       7.219   4.604  16.287  0.00  0.00    +0.000 A 
ATOM     11  O   UNL     1       6.300   4.738  17.277  0.00  0.00    +0.000 OA
ENDBRANCH   3   7
BRANCH   5  12
ATOM     12  C   UNL     1       1.298   2.587  19.263  0.00  0.00    +0.000 C 
ATOM     13  F   UNL     1       0.209   2.342  18.478  0.00  0.00    +0.000 F 
ATOM     14  F   UNL     1       2.008   1.425  19.277  0.00  0.00    +0.000 F 
ATOM     15  F   UNL     1       0.809   2.746  20.525  0.00  0.00    +0.000 F 
ENDBRANCH   5  12
BRANCH   1  16
ATOM     16  S   UNL     1       2.174   7.667  19.440  0.00  0.00    +0.000 S 
BRANCH  16  17
ATOM     17  C   UNL     1       1.745   8.534  17.904  0.00  0.00    +0.000 C 
BRANCH  17  19
ATOM     18  O   UNL     1       2.585  10.812  17.815  0.00  0.00    +0.000 OA
ATOM     19  C   UNL     1       1.666  10.042  18.091  0.00  0.00    +0.000 C 
ATOM     20  N   UNL     1       0.447  10.443  18.636  0.00  0.00    +0.000 N 
ATOM     21  H   UNL     1      -0.276   9.757  18.832  0.00  0.00    +0.000 HD
BRANCH  20  22
ATOM     22  N   UNL     1       0.194  11.815  18.868  0.00  0.00    +0.000 NA
ATOM     23  C   UNL     1       0.157  12.153  20.304  0.00  0.00    +0.000 C 
ATOM     24  C   UNL     1      -1.104  11.631  21.007  0.00  0.00    +0.000 C 
ATOM     25  O   UNL     1      -2.295  12.089  20.359  0.00  0.00    +0.000 OA
ATOM     26  C   UNL     1      -2.305  11.710  18.976  0.00  0.00    +0.000 C 
ATOM     27  C   UNL     1      -1.072  12.249  18.238  0.00  0.00    +0.000 C 
ENDBRANCH  20  22
ENDBRANCH  17  19
ENDBRANCH  16  17
ENDBRANCH   1  16
TORSDOF 6
ENDMDL
MODEL 5
REMARK VINA RESULT:      -7.0      4.557      6.668
REMARK  Name = 
REMARK  6 active torsions:
REMARK  status: ('A' for Active; 'I' for Inactive)
REMARK    1  A    between atoms: C_2  and  C_3
REMARK    2  A    between atoms: C_3  and  S_4
REMARK    3  A    between atoms: S_4  and  C_5
REMARK    4  A    between atoms: C_7  and  C_8
REMARK    5  A    between atoms: C_14  and  C_15
REMARK    6  A    between atoms: N_20  and  N_21
REMARK                            x       y       z     vdW  Elec       q    Type
REMARK                         _______ _______ _______ _____ _____    ______ ____
ROOT
ATOM      1  C   UNL     1       2.420   6.766  19.027  0.00  0.00    +0.000 A 
ATOM      2  N   UNL     1       3.300   6.552  18.043  0.00  0.00    +0.000 NA
ATOM      3  C   UNL     1       3.793   5.306  17.928  0.00  0.00    +0.000 A 
ATOM      4  C   UNL     1       3.460   4.289  18.796  0.00  0.00    +0.000 A 
ATOM      5  C   UNL     1       2.550   4.593  19.790  0.00  0.00    +0.000 A 
ATOM      6  N   UNL     1       2.009   5.835  19.907  0.00  0.00    +0.000 NA
ENDROOT
BRANCH   3   7
ATOM      7  C   UNL     1       4.700   5.096  16.809  0.00  0.00    +0.000 A 
ATOM      8  C   UNL     1       5.212   5.911  15.818  0.00  0.00    +0.000 A 
ATOM      9  C   UNL     1       6.025   5.093  14.994  0.00  0.00    +0.000 A 
ATOM     10  C   UNL     1       5.968   3.832  15.537  0.00  0.00    +0.000 A 
ATOM     11  O   UNL     1       5.170   3.821  16.635  0.00  0.00    +0.000 OA
ENDBRANCH   3   7
BRANCH   5  12
ATOM     12  C   UNL     1       2.136   3.512  20.774  0.00  0.00    +0.000 C 
ATOM     13  F   UNL     1       2.426   3.816  22.072  0.00  0.00    +0.000 F 
ATOM     14  F   UNL     1       0.798   3.253  20.748  0.00  0.00    +0.000 F 
ATOM     15  F   UNL     1       2.755   2.322  20.531  0.00  0.00    +0.000 F 
ENDBRANCH   5  12
BRANCH   1  16
ATOM     16  S   UNL     1       1.875   8.438  19.268  0.00  0.00    +0.000 S 
BRANCH  16  17
ATOM     17  C   UNL     1       1.284   8.328  20.981  0.00  0.00    +0.000 C 
BRANCH  17  19
ATOM     18  O   UNL     1       0.818   9.989  22.690  0.00  0.00    +0.000 OA
ATOM     19  C   UNL     1       0.773   9.661  21.505  0.00  0.00    +0.000 C 
ATOM     20  N   UNL     1       0.227  10.452  20.495  0.00  0.00    +0.000 N 
ATOM     21  H   UNL     1       0.232  10.127  19.533  0.00  0.00    +0.000 HD
BRANCH  20  22
ATOM     22  N   UNL     1      -0.286  11.734  20.800  0.00  0.00    +0.000 NA
ATOM     23  C   UNL     1      -1.544  12.027  20.088  0.00  0.00    +0.000 C 
ATOM     24  C   UNL     1      -1.336  12.285  18.589  0.00  0.00    +0.000 C 
ATOM     25  O   UNL     1      -0.382  13.329  18.363  0.00  0.00    +0.000 OA
ATOM     26  C   UNL     1       0.870  13.026  18.993  0.00  0.00    +0.000 C 
ATOM     27  C   UNL     1       0.697  12.798  20.501  0.00  0.00    +0.000 C 
ENDBRANCH  20  22
ENDBRANCH  17  19
ENDBRANCH  16  17
ENDBRANCH   1  16
TORSDOF 6
ENDMDL
MODEL 6
REMARK VINA RESULT:      -7.0      4.258      6.371
REMARK  Name = 
REMARK  6 active torsions:
REMARK  status: ('A' for Active; 'I' for Inactive)
REMARK    1  A    between atoms: C_2  and  C_3
REMARK    2  A    between atoms: C_3  and  S_4
REMARK    3  A    between atoms: S_4  and  C_5
REMARK    4  A    between atoms: C_7  and  C_8
REMARK    5  A    between atoms: C_14  and  C_15
REMARK    6  A    between atoms: N_20  and  N_21
REMARK                            x       y       z     vdW  Elec       q    Type
REMARK                         _______ _______ _______ _____ _____    ______ ____
ROOT
ATOM      1  C   UNL     1       2.750   6.215  19.162  0.00  0.00    +0.000 A 
ATOM      2  N   UNL     1       3.713   6.021  18.253  0.00  0.00    +0.000 NA
ATOM      3  C   UNL     1       4.306   4.814  18.243  0.00  0.00    +0.000 A 
ATOM      4  C   UNL     1       3.990   3.820  19.143  0.00  0.00    +0.000 A 
ATOM      5  C   UNL     1       2.992   4.101  20.055  0.00  0.00    +0.000 A 
ATOM      6  N   UNL     1       2.350   5.301  20.064  0.00  0.00    +0.000 NA
ENDROOT
BRANCH   3   7
ATOM      7  C   UNL     1       5.304   4.619  17.201  0.00  0.00    +0.000 A 
ATOM      8  C   UNL     1       6.674   4.788  17.135  0.00  0.00    +0.000 A 
ATOM      9  C   UNL     1       7.064   4.460  15.814  0.00  0.00    +0.000 A 
ATOM     10  C   UNL     1       5.912   4.101  15.156  0.00  0.00    +0.000 A 
ATOM     11  O   UNL     1       4.841   4.193  15.985  0.00  0.00    +0.000 OA
ENDBRANCH   3   7
BRANCH   5  12
ATOM     12  C   UNL     1       2.592   3.043  21.069  0.00  0.00    +0.000 C 
ATOM     13  F   UNL     1       3.596   2.171  21.372  0.00  0.00    +0.000 F 
ATOM     14  F   UNL     1       2.194   3.572  22.260  0.00  0.00    +0.000 F 
ATOM     15  F   UNL     1       1.556   2.271  20.635  0.00  0.00    +0.000 F 
ENDBRANCH   5  12
BRANCH   1  16
ATOM     16  S   UNL     1       2.064   7.848  19.269  0.00  0.00    +0.000 S 
BRANCH  16  17
ATOM     17  C   UNL     1       1.440   7.810  20.974  0.00  0.00    +0.000 C 
BRANCH  17  19
ATOM     18  O   UNL     1       1.319   9.560  22.655  0.00  0.00    +0.000 OA
ATOM     19  C   UNL     1       1.104   9.198  21.499  0.00  0.00    +0.000 C 
ATOM     20  N   UNL     1       0.500   9.998  20.529  0.00  0.00    +0.000 N 
ATOM     21  H   UNL     1       0.361   9.642  19.588  0.00  0.00    +0.000 HD
BRANCH  20  22
ATOM     22  N   UNL     1       0.131  11.327  20.840  0.00  0.00    +0.000 NA
ATOM     23  C   UNL     1      -1.109  11.747  20.157  0.00  0.00    +0.000 C 
ATOM     24  C   UNL     1      -0.913  11.977  18.652  0.00  0.00    +0.000 C 
ATOM     25  O   UNL     1       0.138  12.916  18.396  0.00  0.00    +0.000 OA
ATOM     26  C   UNL     1       1.367  12.486  18.996  0.00  0.00    +0.000 C 
ATOM     27  C   UNL     1       1.211  12.283  20.510  0.00  0.00    +0.000 C 
ENDBRANCH  20  22
ENDBRANCH  17  19
ENDBRANCH  16  17
ENDBRANCH   1  16
TORSDOF 6
ENDMDL
MODEL 7
REMARK VINA RESULT:      -7.0      4.472      6.554
REMARK  Name = 
REMARK  6 active torsions:
REMARK  status: ('A' for Active; 'I' for Inactive)
REMARK    1  A    between atoms: C_2  and  C_3
REMARK    2  A    between atoms: C_3  and  S_4
REMARK    3  A    between atoms: S_4  and  C_5
REMARK    4  A    between atoms: C_7  and  C_8
REMARK    5  A    between atoms: C_14  and  C_15
REMARK    6  A    between atoms: N_20  and  N_21
REMARK                            x       y       z     vdW  Elec       q    Type
REMARK                         _______ _______ _______ _____ _____    ______ ____
ROOT
ATOM      1  C   UNL     1       2.499   6.320  18.762  0.00  0.00    +0.000 A 
ATOM      2  N   UNL     1       3.570   6.110  17.988  0.00  0.00    +0.000 NA
ATOM      3  C   UNL     1       3.956   4.832  17.818  0.00  0.00    +0.000 A 
ATOM      4  C   UNL     1       3.328   3.774  18.436  0.00  0.00    +0.000 A 
ATOM      5  C   UNL     1       2.235   4.075  19.225  0.00  0.00    +0.000 A 
ATOM      6  N   UNL     1       1.800   5.354  19.385  0.00  0.00    +0.000 NA
ENDROOT
BRANCH   3   7
ATOM      7  C   UNL     1       5.086   4.638  16.920  0.00  0.00    +0.000 A 
ATOM      8  C   UNL     1       5.209   4.375  15.569  0.00  0.00    +0.000 A 
ATOM      9  C   UNL     1       6.595   4.260  15.300  0.00  0.00    +0.000 A 
ATOM     10  C   UNL     1       7.234   4.468  16.498  0.00  0.00    +0.000 A 
ATOM     11  O   UNL     1       6.332   4.699  17.485  0.00  0.00    +0.000 OA
ENDBRANCH   3   7
BRANCH   5  12
ATOM     12  C   UNL     1       1.493   2.951  19.927  0.00  0.00    +0.000 C 
ATOM     13  F   UNL     1       2.075   1.728  19.765  0.00  0.00    +0.000 F 
ATOM     14  F   UNL     1       1.397   3.135  21.274  0.00  0.00    +0.000 F 
ATOM     15  F   UNL     1       0.215   2.809  19.475  0.00  0.00    +0.000 F 
ENDBRANCH   5  12
BRANCH   1  16
ATOM     16  S   UNL     1       2.071   8.009  19.100  0.00  0.00    +0.000 S 
BRANCH  16  17
ATOM     17  C   UNL     1       1.497   7.846  20.814  0.00  0.00    +0.000 C 
BRANCH  17  19
ATOM     18  O   UNL     1       1.332   9.451  22.630  0.00  0.00    +0.000 OA
ATOM     19  C   UNL     1       1.154   9.189  21.441  0.00  0.00    +0.000 C 
ATOM     20  N   UNL     1       0.592  10.073  20.521  0.00  0.00    +0.000 N 
ATOM     21  H   UNL     1       0.483   9.798  19.550  0.00  0.00    +0.000 HD
BRANCH  20  22
ATOM     22  N   UNL     1       0.223  11.376  20.928  0.00  0.00    +0.000 NA
ATOM     23  C   UNL     1      -1.084  11.794  20.384  0.00  0.00    +0.000 C 
ATOM     24  C   UNL     1      -1.034  12.098  18.880  0.00  0.00    +0.000 C 
ATOM     25  O   UNL     1      -0.033  13.075  18.574  0.00  0.00    +0.000 OA
ATOM     26  C   UNL     1       1.256  12.652  19.038  0.00  0.00    +0.000 C 
ATOM     27  C   UNL     1       1.246  12.375  20.547  0.00  0.00    +0.000 C 
ENDBRANCH  20  22
ENDBRANCH  17  19
ENDBRANCH  16  17
ENDBRANCH   1  16
TORSDOF 6
ENDMDL
MODEL 8
REMARK VINA RESULT:      -7.0      4.698      6.836
REMARK  Name = 
REMARK  6 active torsions:
REMARK  status: ('A' for Active; 'I' for Inactive)
REMARK    1  A    between atoms: C_2  and  C_3
REMARK    2  A    between atoms: C_3  and  S_4
REMARK    3  A    between atoms: S_4  and  C_5
REMARK    4  A    between atoms: C_7  and  C_8
REMARK    5  A    between atoms: C_14  and  C_15
REMARK    6  A    between atoms: N_20  and  N_21
REMARK                            x       y       z     vdW  Elec       q    Type
REMARK                         _______ _______ _______ _____ _____    ______ ____
ROOT
ATOM      1  C   UNL     1       2.525   6.371  19.668  0.00  0.00    +0.000 A 
ATOM      2  N   UNL     1       3.632   6.303  18.920  0.00  0.00    +0.000 NA
ATOM      3  C   UNL     1       4.180   5.085  18.754  0.00  0.00    +0.000 A 
ATOM      4  C   UNL     1       3.673   3.952  19.349  0.00  0.00    +0.000 A 
ATOM      5  C   UNL     1       2.531   4.107  20.111  0.00  0.00    +0.000 A 
ATOM      6  N   UNL     1       1.936   5.320  20.267  0.00  0.00    +0.000 NA
ENDROOT
BRANCH   3   7
ATOM      7  C   UNL     1       5.348   5.042  17.884  0.00  0.00    +0.000 A 
ATOM      8  C   UNL     1       5.575   5.364  16.561  0.00  0.00    +0.000 A 
ATOM      9  C   UNL     1       6.933   5.061  16.294  0.00  0.00    +0.000 A 
ATOM     10  C   UNL     1       7.454   4.582  17.471  0.00  0.00    +0.000 A 
ATOM     11  O   UNL     1       6.505   4.566  18.441  0.00  0.00    +0.000 OA
ENDBRANCH   3   7
BRANCH   5  12
ATOM     12  C   UNL     1       1.918   2.892  20.787  0.00  0.00    +0.000 C 
ATOM     13  F   UNL     1       1.959   1.763  20.022  0.00  0.00    +0.000 F 
ATOM     14  F   UNL     1       2.537   2.565  21.956  0.00  0.00    +0.000 F 
ATOM     15  F   UNL     1       0.603   3.077  21.096  0.00  0.00    +0.000 F 
ENDBRANCH   5  12
BRANCH   1  16
ATOM     16  S   UNL     1       1.880   7.990  20.003  0.00  0.00    +0.000 S 
BRANCH  16  17
ATOM     17  C   UNL     1       1.833   8.660  18.317  0.00  0.00    +0.000 C 
BRANCH  17  19
ATOM     18  O   UNL     1       2.471  10.959  17.859  0.00  0.00    +0.000 OA
ATOM     19  C   UNL     1       1.636  10.169  18.297  0.00  0.00    +0.000 C 
ATOM     20  N   UNL     1       0.417  10.549  18.857  0.00  0.00    +0.000 N 
ATOM     21  H   UNL     1      -0.234   9.845  19.191  0.00  0.00    +0.000 HD
BRANCH  20  22
ATOM     22  N   UNL     1       0.060  11.917  18.910  0.00  0.00    +0.000 NA
ATOM     23  C   UNL     1      -0.141  12.398  20.291  0.00  0.00    +0.000 C 
ATOM     24  C   UNL     1      -1.433  11.865  20.926  0.00  0.00    +0.000 C 
ATOM     25  O   UNL     1      -2.579  12.168  20.122  0.00  0.00    +0.000 OA
ATOM     26  C   UNL     1      -2.426  11.647  18.795  0.00  0.00    +0.000 C 
ATOM     27  C   UNL     1      -1.160  12.192  18.120  0.00  0.00    +0.000 C 
ENDBRANCH  20  22
ENDBRANCH  17  19
ENDBRANCH  16  17
ENDBRANCH   1  16
TORSDOF 6
ENDMDL
MODEL 9
REMARK VINA RESULT:      -7.0      4.697      6.824
REMARK  Name = 
REMARK  6 active torsions:
REMARK  status: ('A' for Active; 'I' for Inactive)
REMARK    1  A    between atoms: C_2  and  C_3
REMARK    2  A    between atoms: C_3  and  S_4
REMARK    3  A    between atoms: S_4  and  C_5
REMARK    4  A    between atoms: C_7  and  C_8
REMARK    5  A    between atoms: C_14  and  C_15
REMARK    6  A    between atoms: N_20  and  N_21
REMARK                            x       y       z     vdW  Elec       q    Type
REMARK                         _______ _______ _______ _____ _____    ______ ____
ROOT
ATOM      1  C   UNL     1       2.518   6.674  19.258  0.00  0.00    +0.000 A 
ATOM      2  N   UNL     1       3.559   6.517  18.432  0.00  0.00    +0.000 NA
ATOM      3  C   UNL     1       4.112   5.292  18.378  0.00  0.00    +0.000 A 
ATOM      4  C   UNL     1       3.680   4.243  19.157  0.00  0.00    +0.000 A 
ATOM      5  C   UNL     1       2.605   4.488  19.989  0.00  0.00    +0.000 A 
ATOM      6  N   UNL     1       2.003   5.707  20.037  0.00  0.00    +0.000 NA
ENDROOT
BRANCH   3   7
ATOM      7  C   UNL     1       5.202   5.144  17.424  0.00  0.00    +0.000 A 
ATOM      8  C   UNL     1       5.346   5.412  16.076  0.00  0.00    +0.000 A 
ATOM      9  C   UNL     1       6.655   5.008  15.716  0.00  0.00    +0.000 A 
ATOM     10  C   UNL     1       7.234   4.527  16.865  0.00  0.00    +0.000 A 
ATOM     11  O   UNL     1       6.366   4.605  17.905  0.00  0.00    +0.000 OA
ENDBRANCH   3   7
BRANCH   5  12
ATOM     12  C   UNL     1       2.075   3.368  20.869  0.00  0.00    +0.000 C 
ATOM     13  F   UNL     1       2.483   2.127  20.477  0.00  0.00    +0.000 F 
ATOM     14  F   UNL     1       2.459   3.486  22.171  0.00  0.00    +0.000 F 
ATOM     15  F   UNL     1       0.712   3.317  20.881  0.00  0.00    +0.000 F 
ENDBRANCH   5  12
BRANCH   1  16
ATOM     16  S   UNL     1       1.874   8.319  19.435  0.00  0.00    +0.000 S 
BRANCH  16  17
ATOM     17  C   UNL     1       1.077   8.166  21.059  0.00  0.00    +0.000 C 
BRANCH  17  19
ATOM     18  O   UNL     1       1.642   9.565  22.961  0.00  0.00    +0.000 OA
ATOM     19  C   UNL     1       1.122   9.463  21.852  0.00  0.00    +0.000 C 
ATOM     20  N   UNL     1       0.483  10.511  21.188  0.00  0.00    +0.000 N 
ATOM     21  H   UNL     1       0.083  10.362  20.266  0.00  0.00    +0.000 HD
BRANCH  20  22
ATOM     22  N   UNL     1       0.440  11.796  21.774  0.00  0.00    +0.000 NA
ATOM     23  C   UNL     1      -0.867  12.097  22.390  0.00  0.00    +0.000 C 
ATOM     24  C   UNL     1      -1.971  12.351  21.354  0.00  0.00    +0.000 C 
ATOM     25  O   UNL     1      -1.603  13.387  20.437  0.00  0.00    +0.000 OA
ATOM     26  C   UNL     1      -0.367  13.077  19.780  0.00  0.00    +0.000 C 
ATOM     27  C   UNL     1       0.765  12.853  20.791  0.00  0.00    +0.000 C 
ENDBRANCH  20  22
ENDBRANCH  17  19
ENDBRANCH  16  17
ENDBRANCH   1  16
TORSDOF 6
ENDMDL
