MODEL 1
REMARK VINA RESULT:      -9.3      0.000      0.000
REMARK  Name = 
REMARK  2 active torsions:
REMARK  status: ('A' for Active; 'I' for Inactive)
REMARK    1  A    between atoms: C_6  and  C_7
REMARK    2  A    between atoms: C_13  and  C_14
REMARK                            x       y       z     vdW  Elec       q    Type
REMARK                         _______ _______ _______ _____ _____    ______ ____
ROOT
ATOM      1  C   UNL     1       2.357   5.984  19.642  0.00  0.00    +0.000 C 
ATOM      2  N   UNL     1       3.548   5.588  19.284  0.00  0.00    +0.000 NA
ATOM      3  N   UNL     1       3.877   4.282  19.593  0.00  0.00    +0.000 N 
ATOM      4  C   UNL     1       3.299   3.428  20.498  0.00  0.00    +0.000 A 
ATOM      5  N   UNL     1       3.923   2.279  20.534  0.00  0.00    +0.000 NA
ATOM      6  N   UNL     1       4.958   2.358  19.626  0.00  0.00    +0.000 NA
ATOM      7  C   UNL     1       4.937   3.561  19.080  0.00  0.00    +0.000 A 
ATOM      8  S   UNL     1       1.938   3.923  21.424  0.00  0.00    +0.000 S 
ATOM      9  C   UNL     1       1.266   5.075  20.209  0.00  0.00    +0.000 C 
ENDROOT
BRANCH   7  10
ATOM     10  C   UNL     1       5.860   4.026  18.106  0.00  0.00    +0.000 A 
ATOM     11  N   UNL     1       7.188   4.313  18.363  0.00  0.00    +0.000 N 
ATOM     12  N   UNL     1       7.895   4.703  17.269  0.00  0.00    +0.000 NA
ATOM     13  C   UNL     1       6.971   4.667  16.320  0.00  0.00    +0.000 A 
ATOM     14  C   UNL     1       5.712   4.280  16.772  0.00  0.00    +0.000 A 
ATOM     15  C   UNL     1       4.714   4.258  15.691  0.00  0.00    +0.000 C 
ATOM     16  C   UNL     1       5.629   4.319  14.421  0.00  0.00    +0.000 C 
ATOM     17  C   UNL     1       7.004   4.928  14.870  0.00  0.00    +0.000 C 
ATOM     18  H   UNL     1       7.664   4.252  19.257  0.00  0.00    +0.000 HD
ENDBRANCH   7  10
BRANCH   1  24
ATOM     19 CL   UNL     1       0.333  10.386  21.515  0.00  0.00    +0.000 Cl
ATOM     20  C   UNL     1       1.056   9.486  20.240  0.00  0.00    +0.000 A 
ATOM     21  C   UNL     1       1.270  10.093  19.004  0.00  0.00    +0.000 A 
ATOM     22  C   UNL     1       1.862   9.370  17.971  0.00  0.00    +0.000 A 
ATOM     23  C   UNL     1       2.233   8.038  18.171  0.00  0.00    +0.000 A 
ATOM     24  C   UNL     1       1.998   7.420  19.407  0.00  0.00    +0.000 A 
ATOM     25  C   UNL     1       1.417   8.155  20.449  0.00  0.00    +0.000 A 
ENDBRANCH   1  24
TORSDOF 2
ENDMDL
MODEL 2
REMARK VINA RESULT:      -8.6      1.035      1.456
REMARK  Name = 
REMARK  2 active torsions:
REMARK  status: ('A' for Active; 'I' for Inactive)
REMARK    1  A    between atoms: C_6  and  C_7
REMARK    2  A    between atoms: C_13  and  C_14
REMARK                            x       y       z     vdW  Elec       q    Type
REMARK                         _______ _______ _______ _____ _____    ______ ____
ROOT
ATOM      1  C   UNL     1       2.177   5.668  20.152  0.00  0.00    +0.000 C 
ATOM      2  N   UNL     1       3.385   5.410  19.731  0.00  0.00    +0.000 NA
ATOM      3  N   UNL     1       3.794   4.093  19.819  0.00  0.00    +0.000 N 
ATOM      4  C   UNL     1       3.279   3.068  20.571  0.00  0.00    +0.000 A 
ATOM      5  N   UNL     1       3.970   1.968  20.415  0.00  0.00    +0.000 NA
ATOM      6  N   UNL     1       4.987   2.258  19.530  0.00  0.00    +0.000 NA
ATOM      7  C   UNL     1       4.889   3.532  19.192  0.00  0.00    +0.000 A 
ATOM      8  S   UNL     1       1.901   3.320  21.569  0.00  0.00    +0.000 S 
ATOM      9  C   UNL     1       1.148   4.614  20.562  0.00  0.00    +0.000 C 
ENDROOT
BRANCH   7  10
ATOM     10  C   UNL     1       5.772   4.206  18.307  0.00  0.00    +0.000 A 
ATOM     11  N   UNL     1       6.925   4.859  18.701  0.00  0.00    +0.000 N 
ATOM     12  N   UNL     1       7.638   5.398  17.676  0.00  0.00    +0.000 NA
ATOM     13  C   UNL     1       6.893   5.078  16.628  0.00  0.00    +0.000 A 
ATOM     14  C   UNL     1       5.738   4.370  16.951  0.00  0.00    +0.000 A 
ATOM     15  C   UNL     1       4.936   4.039  15.763  0.00  0.00    +0.000 C 
ATOM     16  C   UNL     1       5.961   4.314  14.610  0.00  0.00    +0.000 C 
ATOM     17  C   UNL     1       7.046   5.295  15.178  0.00  0.00    +0.000 C 
ATOM     18  H   UNL     1       7.277   4.959  19.648  0.00  0.00    +0.000 HD
ENDBRANCH   7  10
BRANCH   1  24
ATOM     19 CL   UNL     1       2.042  10.256  17.720  0.00  0.00    +0.000 Cl
ATOM     20  C   UNL     1       1.653   9.253  19.062  0.00  0.00    +0.000 A 
ATOM     21  C   UNL     1       0.959   9.790  20.145  0.00  0.00    +0.000 A 
ATOM     22  C   UNL     1       0.636   8.980  21.231  0.00  0.00    +0.000 A 
ATOM     23  C   UNL     1       1.014   7.635  21.237  0.00  0.00    +0.000 A 
ATOM     24  C   UNL     1       1.731   7.099  20.159  0.00  0.00    +0.000 A 
ATOM     25  C   UNL     1       2.041   7.913  19.061  0.00  0.00    +0.000 A 
ENDBRANCH   1  24
TORSDOF 2
ENDMDL
MODEL 3
REMARK VINA RESULT:      -8.3      3.025      6.707
REMARK  Name = 
REMARK  2 active torsions:
REMARK  status: ('A' for Active; 'I' for Inactive)
REMARK    1  A    between atoms: C_6  and  C_7
REMARK    2  A    between atoms: C_13  and  C_14
REMARK                            x       y       z     vdW  Elec       q    Type
REMARK                         _______ _______ _______ _____ _____    ______ ____
ROOT
ATOM      1  C   UNL     1       4.791   4.749  17.850  0.00  0.00    +0.000 C 
ATOM      2  N   UNL     1       3.847   5.640  17.992  0.00  0.00    +0.000 NA
ATOM      3  N   UNL     1       3.094   5.552  19.147  0.00  0.00    +0.000 N 
ATOM      4  C   UNL     1       2.946   4.499  20.014  0.00  0.00    +0.000 A 
ATOM      5  N   UNL     1       2.109   4.789  20.977  0.00  0.00    +0.000 NA
ATOM      6  N   UNL     1       1.674   6.079  20.754  0.00  0.00    +0.000 NA
ATOM      7  C   UNL     1       2.251   6.523  19.651  0.00  0.00    +0.000 A 
ATOM      8  S   UNL     1       3.795   3.027  19.757  0.00  0.00    +0.000 S 
ATOM      9  C   UNL     1       5.222   3.751  18.924  0.00  0.00    +0.000 C 
ENDROOT
BRANCH   7  10
ATOM     10  C   UNL     1       2.038   7.809  19.087  0.00  0.00    +0.000 A 
ATOM     11  N   UNL     1       2.521   8.211  17.855  0.00  0.00    +0.000 N 
ATOM     12  N   UNL     1       2.159   9.473  17.499  0.00  0.00    +0.000 NA
ATOM     13  C   UNL     1       1.447   9.858  18.549  0.00  0.00    +0.000 A 
ATOM     14  C   UNL     1       1.355   8.896  19.552  0.00  0.00    +0.000 A 
ATOM     15  C   UNL     1       0.563   9.363  20.701  0.00  0.00    +0.000 C 
ATOM     16  C   UNL     1      -0.148  10.622  20.098  0.00  0.00    +0.000 C 
ATOM     17  C   UNL     1       0.706  11.091  18.868  0.00  0.00    +0.000 C 
ATOM     18  H   UNL     1       3.090   7.667  17.215  0.00  0.00    +0.000 HD
ENDBRANCH   7  10
BRANCH   1  24
ATOM     19 CL   UNL     1       4.952   3.601  12.787  0.00  0.00    +0.000 Cl
ATOM     20  C   UNL     1       5.685   4.228  14.211  0.00  0.00    +0.000 A 
ATOM     21  C   UNL     1       6.994   4.703  14.160  0.00  0.00    +0.000 A 
ATOM     22  C   UNL     1       7.589   5.218  15.309  0.00  0.00    +0.000 A 
ATOM     23  C   UNL     1       6.877   5.252  16.511  0.00  0.00    +0.000 A 
ATOM     24  C   UNL     1       5.568   4.755  16.569  0.00  0.00    +0.000 A 
ATOM     25  C   UNL     1       4.967   4.252  15.407  0.00  0.00    +0.000 A 
ENDBRANCH   1  24
TORSDOF 2
ENDMDL
MODEL 4
REMARK VINA RESULT:      -7.7      1.256      1.664
REMARK  Name = 
REMARK  2 active torsions:
REMARK  status: ('A' for Active; 'I' for Inactive)
REMARK    1  A    between atoms: C_6  and  C_7
REMARK    2  A    between atoms: C_13  and  C_14
REMARK                            x       y       z     vdW  Elec       q    Type
REMARK                         _______ _______ _______ _____ _____    ______ ____
ROOT
ATOM      1  C   UNL     1       2.207   5.738  20.028  0.00  0.00    +0.000 C 
ATOM      2  N   UNL     1       3.343   5.415  19.471  0.00  0.00    +0.000 NA
ATOM      3  N   UNL     1       3.740   4.100  19.612  0.00  0.00    +0.000 N 
ATOM      4  C   UNL     1       3.317   3.152  20.510  0.00  0.00    +0.000 A 
ATOM      5  N   UNL     1       3.964   2.026  20.354  0.00  0.00    +0.000 NA
ATOM      6  N   UNL     1       4.856   2.217  19.319  0.00  0.00    +0.000 NA
ATOM      7  C   UNL     1       4.731   3.461  18.892  0.00  0.00    +0.000 A 
ATOM      8  S   UNL     1       2.093   3.519  21.660  0.00  0.00    +0.000 S 
ATOM      9  C   UNL     1       1.229   4.747  20.660  0.00  0.00    +0.000 C 
ENDROOT
BRANCH   7  10
ATOM     10  C   UNL     1       5.495   4.039  17.843  0.00  0.00    +0.000 A 
ATOM     11  N   UNL     1       5.464   3.612  16.529  0.00  0.00    +0.000 N 
ATOM     12  N   UNL     1       6.247   4.340  15.688  0.00  0.00    +0.000 NA
ATOM     13  C   UNL     1       6.781   5.227  16.514  0.00  0.00    +0.000 A 
ATOM     14  C   UNL     1       6.376   5.082  17.838  0.00  0.00    +0.000 A 
ATOM     15  C   UNL     1       6.994   6.082  18.724  0.00  0.00    +0.000 C 
ATOM     16  C   UNL     1       7.551   7.115  17.686  0.00  0.00    +0.000 C 
ATOM     17  C   UNL     1       7.703   6.361  16.318  0.00  0.00    +0.000 C 
ATOM     18  H   UNL     1       4.924   2.840  16.149  0.00  0.00    +0.000 HD
ENDBRANCH   7  10
BRANCH   1  24
ATOM     19 CL   UNL     1       0.040   9.789  22.452  0.00  0.00    +0.000 Cl
ATOM     20  C   UNL     1       0.778   9.083  21.068  0.00  0.00    +0.000 A 
ATOM     21  C   UNL     1       0.948   9.846  19.914  0.00  0.00    +0.000 A 
ATOM     22  C   UNL     1       1.552   9.280  18.793  0.00  0.00    +0.000 A 
ATOM     23  C   UNL     1       1.978   7.950  18.824  0.00  0.00    +0.000 A 
ATOM     24  C   UNL     1       1.788   7.175  19.976  0.00  0.00    +0.000 A 
ATOM     25  C   UNL     1       1.195   7.752  21.107  0.00  0.00    +0.000 A 
ENDBRANCH   1  24
TORSDOF 2
ENDMDL
MODEL 5
REMARK VINA RESULT:      -7.6      1.846      2.513
REMARK  Name = 
REMARK  2 active torsions:
REMARK  status: ('A' for Active; 'I' for Inactive)
REMARK    1  A    between atoms: C_6  and  C_7
REMARK    2  A    between atoms: C_13  and  C_14
REMARK                            x       y       z     vdW  Elec       q    Type
REMARK                         _______ _______ _______ _____ _____    ______ ____
ROOT
ATOM      1  C   UNL     1       1.930   5.978  20.280  0.00  0.00    +0.000 C 
ATOM      2  N   UNL     1       3.108   5.908  19.722  0.00  0.00    +0.000 NA
ATOM      3  N   UNL     1       3.656   4.644  19.610  0.00  0.00    +0.000 N 
ATOM      4  C   UNL     1       3.330   3.489  20.274  0.00  0.00    +0.000 A 
ATOM      5  N   UNL     1       4.110   2.500  19.921  0.00  0.00    +0.000 NA
ATOM      6  N   UNL     1       4.995   3.002  18.991  0.00  0.00    +0.000 NA
ATOM      7  C   UNL     1       4.732   4.286  18.822  0.00  0.00    +0.000 A 
ATOM      8  S   UNL     1       2.045   3.469  21.416  0.00  0.00    +0.000 S 
ATOM      9  C   UNL     1       1.062   4.774  20.649  0.00  0.00    +0.000 C 
ENDROOT
BRANCH   7  10
ATOM     10  C   UNL     1       5.445   5.151  17.950  0.00  0.00    +0.000 A 
ATOM     11  N   UNL     1       5.066   5.436  16.651  0.00  0.00    +0.000 N 
ATOM     12  N   UNL     1       5.877   6.325  16.016  0.00  0.00    +0.000 NA
ATOM     13  C   UNL     1       6.784   6.579  16.948  0.00  0.00    +0.000 A 
ATOM     14  C   UNL     1       6.584   5.881  18.137  0.00  0.00    +0.000 A 
ATOM     15  C   UNL     1       7.614   6.186  19.143  0.00  0.00    +0.000 C 
ATOM     16  C   UNL     1       8.270   7.472  18.536  0.00  0.00    +0.000 C 
ATOM     17  C   UNL     1       7.956   7.471  16.998  0.00  0.00    +0.000 C 
ATOM     18  H   UNL     1       4.264   5.063  16.153  0.00  0.00    +0.000 HD
ENDBRANCH   7  10
BRANCH   1  24
ATOM     19 CL   UNL     1       1.395  10.874  18.629  0.00  0.00    +0.000 Cl
ATOM     20  C   UNL     1       1.077   9.628  19.772  0.00  0.00    +0.000 A 
ATOM     21  C   UNL     1       0.306   9.909  20.899  0.00  0.00    +0.000 A 
ATOM     22  C   UNL     1       0.039   8.901  21.824  0.00  0.00    +0.000 A 
ATOM     23  C   UNL     1       0.550   7.616  21.625  0.00  0.00    +0.000 A 
ATOM     24  C   UNL     1       1.343   7.338  20.503  0.00  0.00    +0.000 A 
ATOM     25  C   UNL     1       1.596   8.350  19.567  0.00  0.00    +0.000 A 
ENDBRANCH   1  24
TORSDOF 2
ENDMDL
MODEL 6
REMARK VINA RESULT:      -7.5      4.174      6.936
REMARK  Name = 
REMARK  2 active torsions:
REMARK  status: ('A' for Active; 'I' for Inactive)
REMARK    1  A    between atoms: C_6  and  C_7
REMARK    2  A    between atoms: C_13  and  C_14
REMARK                            x       y       z     vdW  Elec       q    Type
REMARK                         _______ _______ _______ _____ _____    ______ ____
ROOT
ATOM      1  C   UNL     1       6.670   5.225  15.918  0.00  0.00    +0.000 C 
ATOM      2  N   UNL     1       5.933   4.429  16.645  0.00  0.00    +0.000 NA
ATOM      3  N   UNL     1       5.897   4.697  18.000  0.00  0.00    +0.000 N 
ATOM      4  C   UNL     1       6.755   5.448  18.764  0.00  0.00    +0.000 A 
ATOM      5  N   UNL     1       6.408   5.430  20.025  0.00  0.00    +0.000 NA
ATOM      6  N   UNL     1       5.281   4.641  20.119  0.00  0.00    +0.000 NA
ATOM      7  C   UNL     1       4.991   4.191  18.911  0.00  0.00    +0.000 A 
ATOM      8  S   UNL     1       8.092   6.253  18.044  0.00  0.00    +0.000 S 
ATOM      9  C   UNL     1       7.338   6.504  16.424  0.00  0.00    +0.000 C 
ENDROOT
BRANCH   7  10
ATOM     10  C   UNL     1       3.903   3.330  18.606  0.00  0.00    +0.000 A 
ATOM     11  N   UNL     1       3.998   2.203  17.812  0.00  0.00    +0.000 N 
ATOM     12  N   UNL     1       2.836   1.506  17.692  0.00  0.00    +0.000 NA
ATOM     13  C   UNL     1       2.005   2.236  18.421  0.00  0.00    +0.000 A 
ATOM     14  C   UNL     1       2.592   3.365  18.986  0.00  0.00    +0.000 A 
ATOM     15  C   UNL     1       1.636   4.152  19.783  0.00  0.00    +0.000 C 
ATOM     16  C   UNL     1       0.456   3.134  19.945  0.00  0.00    +0.000 C 
ATOM     17  C   UNL     1       0.584   2.087  18.783  0.00  0.00    +0.000 C 
ATOM     18  H   UNL     1       4.827   1.858  17.337  0.00  0.00    +0.000 HD
ENDBRANCH   7  10
BRANCH   1  24
ATOM     19 CL   UNL     1       5.056   2.451  11.834  0.00  0.00    +0.000 Cl
ATOM     20  C   UNL     1       6.090   3.633  12.536  0.00  0.00    +0.000 A 
ATOM     21  C   UNL     1       7.056   4.257  11.749  0.00  0.00    +0.000 A 
ATOM     22  C   UNL     1       7.891   5.220  12.311  0.00  0.00    +0.000 A 
ATOM     23  C   UNL     1       7.765   5.553  13.662  0.00  0.00    +0.000 A 
ATOM     24  C   UNL     1       6.808   4.911  14.460  0.00  0.00    +0.000 A 
ATOM     25  C   UNL     1       5.959   3.954  13.887  0.00  0.00    +0.000 A 
ENDBRANCH   1  24
TORSDOF 2
ENDMDL
MODEL 7
REMARK VINA RESULT:      -7.4      4.150      8.107
REMARK  Name = 
REMARK  2 active torsions:
REMARK  status: ('A' for Active; 'I' for Inactive)
REMARK    1  A    between atoms: C_6  and  C_7
REMARK    2  A    between atoms: C_13  and  C_14
REMARK                            x       y       z     vdW  Elec       q    Type
REMARK                         _______ _______ _______ _____ _____    ______ ____
ROOT
ATOM      1  C   UNL     1       2.306   5.995  19.287  0.00  0.00    +0.000 C 
ATOM      2  N   UNL     1       1.899   7.058  19.926  0.00  0.00    +0.000 NA
ATOM      3  N   UNL     1       1.903   8.240  19.210  0.00  0.00    +0.000 N 
ATOM      4  C   UNL     1       2.566   8.556  18.051  0.00  0.00    +0.000 A 
ATOM      5  N   UNL     1       2.349   9.798  17.702  0.00  0.00    +0.000 NA
ATOM      6  N   UNL     1       1.515  10.341  18.656  0.00  0.00    +0.000 NA
ATOM      7  C   UNL     1       1.266   9.414  19.563  0.00  0.00    +0.000 A 
ATOM      8  S   UNL     1       3.543   7.387  17.254  0.00  0.00    +0.000 S 
ATOM      9  C   UNL     1       2.612   5.937  17.791  0.00  0.00    +0.000 C 
ENDROOT
BRANCH   7  10
ATOM     10  C   UNL     1       0.455   9.602  20.714  0.00  0.00    +0.000 A 
ATOM     11  N   UNL     1       0.106   8.597  21.596  0.00  0.00    +0.000 N 
ATOM     12  N   UNL     1      -0.644   9.016  22.651  0.00  0.00    +0.000 NA
ATOM     13  C   UNL     1      -0.768  10.311  22.398  0.00  0.00    +0.000 A 
ATOM     14  C   UNL     1      -0.137  10.721  21.226  0.00  0.00    +0.000 A 
ATOM     15  C   UNL     1      -0.302  12.162  20.978  0.00  0.00    +0.000 C 
ATOM     16  C   UNL     1      -0.807  12.662  22.374  0.00  0.00    +0.000 C 
ATOM     17  C   UNL     1      -1.417  11.422  23.117  0.00  0.00    +0.000 C 
ATOM     18  H   UNL     1       0.357   7.615  21.534  0.00  0.00    +0.000 HD
ENDBRANCH   7  10
BRANCH   1  24
ATOM     19 CL   UNL     1       5.024   1.706  20.381  0.00  0.00    +0.000 Cl
ATOM     20  C   UNL     1       3.636   2.700  20.587  0.00  0.00    +0.000 A 
ATOM     21  C   UNL     1       2.614   2.288  21.440  0.00  0.00    +0.000 A 
ATOM     22  C   UNL     1       1.491   3.093  21.615  0.00  0.00    +0.000 A 
ATOM     23  C   UNL     1       1.387   4.307  20.932  0.00  0.00    +0.000 A 
ATOM     24  C   UNL     1       2.404   4.713  20.057  0.00  0.00    +0.000 A 
ATOM     25  C   UNL     1       3.539   3.908  19.895  0.00  0.00    +0.000 A 
ENDBRANCH   1  24
TORSDOF 2
ENDMDL
MODEL 8
REMARK VINA RESULT:      -7.4      1.475      1.774
REMARK  Name = 
REMARK  2 active torsions:
REMARK  status: ('A' for Active; 'I' for Inactive)
REMARK    1  A    between atoms: C_6  and  C_7
REMARK    2  A    between atoms: C_13  and  C_14
REMARK                            x       y       z     vdW  Elec       q    Type
REMARK                         _______ _______ _______ _____ _____    ______ ____
ROOT
ATOM      1  C   UNL     1       2.415   5.588  18.458  0.00  0.00    +0.000 C 
ATOM      2  N   UNL     1       3.564   5.297  17.913  0.00  0.00    +0.000 NA
ATOM      3  N   UNL     1       3.832   3.954  17.732  0.00  0.00    +0.000 N 
ATOM      4  C   UNL     1       3.248   2.861  18.320  0.00  0.00    +0.000 A 
ATOM      5  N   UNL     1       3.806   1.748  17.919  0.00  0.00    +0.000 NA
ATOM      6  N   UNL     1       4.802   2.098  17.032  0.00  0.00    +0.000 NA
ATOM      7  C   UNL     1       4.825   3.416  16.937  0.00  0.00    +0.000 A 
ATOM      8  S   UNL     1       1.959   3.054  19.442  0.00  0.00    +0.000 S 
ATOM      9  C   UNL     1       1.300   4.581  18.742  0.00  0.00    +0.000 C 
ENDROOT
BRANCH   7  10
ATOM     10  C   UNL     1       5.730   4.155  16.129  0.00  0.00    +0.000 A 
ATOM     11  N   UNL     1       6.632   5.083  16.614  0.00  0.00    +0.000 N 
ATOM     12  N   UNL     1       7.428   5.638  15.661  0.00  0.00    +0.000 NA
ATOM     13  C   UNL     1       6.990   5.043  14.561  0.00  0.00    +0.000 A 
ATOM     14  C   UNL     1       5.948   4.146  14.780  0.00  0.00    +0.000 A 
ATOM     15  C   UNL     1       5.486   3.511  13.535  0.00  0.00    +0.000 C 
ATOM     16  C   UNL     1       6.657   3.862  12.555  0.00  0.00    +0.000 C 
ATOM     17  C   UNL     1       7.396   5.114  13.146  0.00  0.00    +0.000 C 
ATOM     18  H   UNL     1       6.755   5.368  17.581  0.00  0.00    +0.000 HD
ENDBRANCH   7  10
BRANCH   1  24
ATOM     19 CL   UNL     1       1.148   9.197  21.972  0.00  0.00    +0.000 Cl
ATOM     20  C   UNL     1       1.532   8.737  20.360  0.00  0.00    +0.000 A 
ATOM     21  C   UNL     1       1.543   9.701  19.353  0.00  0.00    +0.000 A 
ATOM     22  C   UNL     1       1.861   9.334  18.048  0.00  0.00    +0.000 A 
ATOM     23  C   UNL     1       2.160   8.003  17.747  0.00  0.00    +0.000 A 
ATOM     24  C   UNL     1       2.128   7.029  18.755  0.00  0.00    +0.000 A 
ATOM     25  C   UNL     1       1.824   7.404  20.070  0.00  0.00    +0.000 A 
ENDBRANCH   1  24
TORSDOF 2
ENDMDL
MODEL 9
REMARK VINA RESULT:      -7.2      1.589      1.993
REMARK  Name = 
REMARK  2 active torsions:
REMARK  status: ('A' for Active; 'I' for Inactive)
REMARK    1  A    between atoms: C_6  and  C_7
REMARK    2  A    between atoms: C_13  and  C_14
REMARK                            x       y       z     vdW  Elec       q    Type
REMARK                         _______ _______ _______ _____ _____    ______ ____
ROOT
ATOM      1  C   UNL     1       1.906   5.908  20.281  0.00  0.00    +0.000 C 
ATOM      2  N   UNL     1       3.194   5.768  20.123  0.00  0.00    +0.000 NA
ATOM      3  N   UNL     1       3.663   4.470  20.046  0.00  0.00    +0.000 N 
ATOM      4  C   UNL     1       3.060   3.300  20.433  0.00  0.00    +0.000 A 
ATOM      5  N   UNL     1       3.843   2.272  20.235  0.00  0.00    +0.000 NA
ATOM      6  N   UNL     1       5.016   2.761  19.699  0.00  0.00    +0.000 NA
ATOM      7  C   UNL     1       4.910   4.075  19.605  0.00  0.00    +0.000 A 
ATOM      8  S   UNL     1       1.474   3.310  21.096  0.00  0.00    +0.000 S 
ATOM      9  C   UNL     1       0.886   4.770  20.213  0.00  0.00    +0.000 C 
ENDROOT
BRANCH   7  10
ATOM     10  C   UNL     1       5.926   4.936  19.111  0.00  0.00    +0.000 A 
ATOM     11  N   UNL     1       7.172   5.087  19.691  0.00  0.00    +0.000 N 
ATOM     12  N   UNL     1       7.998   5.935  19.022  0.00  0.00    +0.000 NA
ATOM     13  C   UNL     1       7.232   6.324  18.014  0.00  0.00    +0.000 A 
ATOM     14  C   UNL     1       5.956   5.765  18.026  0.00  0.00    +0.000 A 
ATOM     15  C   UNL     1       5.134   6.226  16.895  0.00  0.00    +0.000 C 
ATOM     16  C   UNL     1       6.219   6.861  15.960  0.00  0.00    +0.000 C 
ATOM     17  C   UNL     1       7.456   7.213  16.860  0.00  0.00    +0.000 C 
ATOM     18  H   UNL     1       7.513   4.632  20.532  0.00  0.00    +0.000 HD
ENDBRANCH   7  10
BRANCH   1  24
ATOM     19 CL   UNL     1       1.544  10.763  18.471  0.00  0.00    +0.000 Cl
ATOM     20  C   UNL     1       1.186   9.569  19.656  0.00  0.00    +0.000 A 
ATOM     21  C   UNL     1       0.433   9.915  20.776  0.00  0.00    +0.000 A 
ATOM     22  C   UNL     1       0.135   8.949  21.735  0.00  0.00    +0.000 A 
ATOM     23  C   UNL     1       0.596   7.640  21.577  0.00  0.00    +0.000 A 
ATOM     24  C   UNL     1       1.372   7.296  20.461  0.00  0.00    +0.000 A 
ATOM     25  C   UNL     1       1.656   8.266  19.491  0.00  0.00    +0.000 A 
ENDBRANCH   1  24
TORSDOF 2
ENDMDL
