MODEL 1
REMARK VINA RESULT:      -7.7      0.000      0.000
REMARK  Name = 
REMARK  10 active torsions:
REMARK  status: ('A' for Active; 'I' for Inactive)
REMARK    1  A    between atoms: C_1  and  C_2
REMARK    2  A    between atoms: C_2  and  N_3
REMARK    3  A    between atoms: N_5  and  C_6
REMARK    4  A    between atoms: C_6  and  C_7
REMARK    5  A    between atoms: C_11  and  N_12
REMARK    6  A    between atoms: N_15  and  C_16
REMARK    7  A    between atoms: C_16  and  C_17
REMARK    8  A    between atoms: C_17  and  C_18
REMARK    9  A    between atoms: N_28  and  C_29
REMARK   10  A    between atoms: C_29  and  C_30
REMARK                            x       y       z     vdW  Elec       q    Type
REMARK                         _______ _______ _______ _____ _____    ______ ____
ROOT
ATOM      1  C   UNL     1       2.035   8.129  18.614  0.00  0.00    +0.000 A 
ATOM      2  C   UNL     1       1.934   8.148  20.013  0.00  0.00    +0.000 A 
ATOM      3  C   UNL     1       1.002   8.974  20.637  0.00  0.00    +0.000 A 
ATOM      4  C   UNL     1       0.153   9.781  19.875  0.00  0.00    +0.000 A 
ATOM      5  C   UNL     1       0.226   9.786  18.479  0.00  0.00    +0.000 A 
ATOM      6  C   UNL     1       1.174   8.952  17.860  0.00  0.00    +0.000 A 
ENDROOT
BRANCH   5   7
ATOM      7  N   UNL     1      -0.627  10.560  17.649  0.00  0.00    +0.000 N 
ATOM      8  C   UNL     1      -1.949  10.292  17.370  0.00  0.00    +0.000 C 
ATOM      9  O   UNL     1      -2.620   9.384  17.858  0.00  0.00    +0.000 OA
ATOM     10  N   UNL     1      -2.499  11.163  16.452  0.00  0.00    +0.000 N 
ATOM     11  H   UNL     1      -0.235  11.391  17.250  0.00  0.00    +0.000 HD
ATOM     12  H   UNL     1      -2.042  12.042  16.260  0.00  0.00    +0.000 HD
BRANCH  10  13
ATOM     13  C   UNL     1      -3.913  11.016  16.137  0.00  0.00    +0.000 C 
BRANCH  13  14
ATOM     14  C   UNL     1      -4.830  12.137  16.631  0.00  0.00    +0.000 C 
BRANCH  14  15
ATOM     15  C   UNL     1      -5.438  11.928  17.996  0.00  0.00    +0.000 A 
ATOM     16  C   UNL     1      -6.641  11.225  18.157  0.00  0.00    +0.000 A 
ATOM     17  C   UNL     1      -7.183  11.028  19.429  0.00  0.00    +0.000 A 
ATOM     18  C   UNL     1      -6.523  11.519  20.554  0.00  0.00    +0.000 A 
ATOM     19  C   UNL     1      -5.314  12.195  20.409  0.00  0.00    +0.000 A 
ATOM     20  C   UNL     1      -4.771  12.393  19.139  0.00  0.00    +0.000 A 
ENDBRANCH  14  15
ENDBRANCH  13  14
ENDBRANCH  10  13
ENDBRANCH   5   7
BRANCH   1  21
ATOM     21  C   UNL     1       2.985   7.150  17.943  0.00  0.00    +0.000 C 
BRANCH  21  24
ATOM     22  N   UNL     1       3.204   4.000  17.835  0.00  0.00    +0.000 NA
ATOM     23  C   UNL     1       2.773   4.903  18.927  0.00  0.00    +0.000 C 
ATOM     24  N   UNL     1       3.552   6.141  18.863  0.00  0.00    +0.000 NA
ATOM     25  S   UNL     1       5.105   5.580  18.478  0.00  0.00    +0.000 S 
ATOM     26  O   UNL     1       5.635   4.969  19.678  0.00  0.00    +0.000 OA
ATOM     27  O   UNL     1       5.814   6.603  17.752  0.00  0.00    +0.000 OA
ATOM     28  N   UNL     1       4.569   4.292  17.440  0.00  0.00    +0.000 NA
BRANCH  22  30
ATOM     29  C   UNL     1       1.590   2.231  18.575  0.00  0.00    +0.000 C 
ATOM     30  C   UNL     1       3.037   2.605  18.278  0.00  0.00    +0.000 C 
ENDBRANCH  22  30
BRANCH  28  31
ATOM     31  C   UNL     1       4.739   4.524  15.972  0.00  0.00    +0.000 C 
ATOM     32  C   UNL     1       6.046   3.948  15.447  0.00  0.00    +0.000 C 
ENDBRANCH  28  31
ENDBRANCH  21  24
ENDBRANCH   1  21
TORSDOF 8
ENDMDL
MODEL 2
REMARK VINA RESULT:      -7.6      6.445      9.854
REMARK  Name = 
REMARK  10 active torsions:
REMARK  status: ('A' for Active; 'I' for Inactive)
REMARK    1  A    between atoms: C_1  and  C_2
REMARK    2  A    between atoms: C_2  and  N_3
REMARK    3  A    between atoms: N_5  and  C_6
REMARK    4  A    between atoms: C_6  and  C_7
REMARK    5  A    between atoms: C_11  and  N_12
REMARK    6  A    between atoms: N_15  and  C_16
REMARK    7  A    between atoms: C_16  and  C_17
REMARK    8  A    between atoms: C_17  and  C_18
REMARK    9  A    between atoms: N_28  and  C_29
REMARK   10  A    between atoms: C_29  and  C_30
REMARK                            x       y       z     vdW  Elec       q    Type
REMARK                         _______ _______ _______ _____ _____    ______ ____
ROOT
ATOM      1  C   UNL     1       4.622   4.962  16.840  0.00  0.00    +0.000 A 
ATOM      2  C   UNL     1       5.268   3.978  16.077  0.00  0.00    +0.000 A 
ATOM      3  C   UNL     1       6.536   4.218  15.553  0.00  0.00    +0.000 A 
ATOM      4  C   UNL     1       7.178   5.436  15.790  0.00  0.00    +0.000 A 
ATOM      5  C   UNL     1       6.564   6.439  16.547  0.00  0.00    +0.000 A 
ATOM      6  C   UNL     1       5.282   6.186  17.068  0.00  0.00    +0.000 A 
ENDROOT
BRANCH   5   7
ATOM      7  N   UNL     1       7.175   7.683  16.849  0.00  0.00    +0.000 N 
ATOM      8  C   UNL     1       7.944   7.962  17.958  0.00  0.00    +0.000 C 
ATOM      9  O   UNL     1       8.285   7.156  18.821  0.00  0.00    +0.000 OA
ATOM     10  N   UNL     1       8.324   9.286  18.037  0.00  0.00    +0.000 N 
ATOM     11  H   UNL     1       7.056   8.418  16.179  0.00  0.00    +0.000 HD
ATOM     12  H   UNL     1       8.273   9.871  17.217  0.00  0.00    +0.000 HD
BRANCH  10  13
ATOM     13  C   UNL     1       9.200   9.678  19.132  0.00  0.00    +0.000 C 
BRANCH  13  14
ATOM     14  C   UNL     1      10.001  10.965  18.924  0.00  0.00    +0.000 C 
BRANCH  14  15
ATOM     15  C   UNL     1       9.891  11.987  20.029  0.00  0.00    +0.000 A 
ATOM     16  C   UNL     1      10.376  13.293  19.863  0.00  0.00    +0.000 A 
ATOM     17  C   UNL     1      10.255  14.229  20.892  0.00  0.00    +0.000 A 
ATOM     18  C   UNL     1       9.636  13.877  22.090  0.00  0.00    +0.000 A 
ATOM     19  C   UNL     1       9.125  12.592  22.255  0.00  0.00    +0.000 A 
ATOM     20  C   UNL     1       9.247  11.653  21.229  0.00  0.00    +0.000 A 
ENDBRANCH  14  15
ENDBRANCH  13  14
ENDBRANCH  10  13
ENDBRANCH   5   7
BRANCH   1  21
ATOM     21  C   UNL     1       3.284   4.649  17.491  0.00  0.00    +0.000 C 
BRANCH  21  24
ATOM     22  N   UNL     1       3.238   3.199  20.298  0.00  0.00    +0.000 NA
ATOM     23  C   UNL     1       3.963   2.867  19.049  0.00  0.00    +0.000 C 
ATOM     24  N   UNL     1       3.133   3.236  17.900  0.00  0.00    +0.000 NA
ATOM     25  S   UNL     1       1.581   2.774  18.401  0.00  0.00    +0.000 S 
ATOM     26  O   UNL     1       1.537   1.329  18.334  0.00  0.00    +0.000 OA
ATOM     27  O   UNL     1       0.603   3.609  17.751  0.00  0.00    +0.000 OA
ATOM     28  N   UNL     1       1.805   3.204  20.070  0.00  0.00    +0.000 NA
BRANCH  22  30
ATOM     29  C   UNL     1       4.912   1.478  21.020  0.00  0.00    +0.000 C 
ATOM     30  C   UNL     1       3.633   2.241  21.345  0.00  0.00    +0.000 C 
ENDBRANCH  22  30
BRANCH  28  31
ATOM     31  C   UNL     1       1.125   4.458  20.518  0.00  0.00    +0.000 C 
ATOM     32  C   UNL     1       2.099   5.616  20.671  0.00  0.00    +0.000 C 
ENDBRANCH  28  31
ENDBRANCH  21  24
ENDBRANCH   1  21
TORSDOF 8
ENDMDL
MODEL 3
REMARK VINA RESULT:      -7.5      7.034      9.747
REMARK  Name = 
REMARK  10 active torsions:
REMARK  status: ('A' for Active; 'I' for Inactive)
REMARK    1  A    between atoms: C_1  and  C_2
REMARK    2  A    between atoms: C_2  and  N_3
REMARK    3  A    between atoms: N_5  and  C_6
REMARK    4  A    between atoms: C_6  and  C_7
REMARK    5  A    between atoms: C_11  and  N_12
REMARK    6  A    between atoms: N_15  and  C_16
REMARK    7  A    between atoms: C_16  and  C_17
REMARK    8  A    between atoms: C_17  and  C_18
REMARK    9  A    between atoms: N_28  and  C_29
REMARK   10  A    between atoms: C_29  and  C_30
REMARK                            x       y       z     vdW  Elec       q    Type
REMARK                         _______ _______ _______ _____ _____    ______ ____
ROOT
ATOM      1  C   UNL     1       5.121   4.770  16.795  0.00  0.00    +0.000 A 
ATOM      2  C   UNL     1       5.731   3.996  15.797  0.00  0.00    +0.000 A 
ATOM      3  C   UNL     1       6.847   4.480  15.118  0.00  0.00    +0.000 A 
ATOM      4  C   UNL     1       7.373   5.735  15.432  0.00  0.00    +0.000 A 
ATOM      5  C   UNL     1       6.791   6.534  16.422  0.00  0.00    +0.000 A 
ATOM      6  C   UNL     1       5.663   6.036  17.098  0.00  0.00    +0.000 A 
ENDROOT
BRANCH   5   7
ATOM      7  N   UNL     1       7.296   7.802  16.807  0.00  0.00    +0.000 N 
ATOM      8  C   UNL     1       8.008   8.078  17.954  0.00  0.00    +0.000 C 
ATOM      9  O   UNL     1       8.386   7.255  18.785  0.00  0.00    +0.000 OA
ATOM     10  N   UNL     1       8.283   9.421  18.114  0.00  0.00    +0.000 N 
ATOM     11  H   UNL     1       7.139   8.562  16.173  0.00  0.00    +0.000 HD
ATOM     12  H   UNL     1       8.210  10.044  17.323  0.00  0.00    +0.000 HD
BRANCH  10  13
ATOM     13  C   UNL     1       9.095   9.818  19.256  0.00  0.00    +0.000 C 
BRANCH  13  14
ATOM     14  C   UNL     1      10.164  10.879  18.983  0.00  0.00    +0.000 C 
BRANCH  14  15
ATOM     15  C   UNL     1       9.867  12.256  19.522  0.00  0.00    +0.000 A 
ATOM     16  C   UNL     1       8.971  13.116  18.870  0.00  0.00    +0.000 A 
ATOM     17  C   UNL     1       8.698  14.383  19.390  0.00  0.00    +0.000 A 
ATOM     18  C   UNL     1       9.306  14.799  20.574  0.00  0.00    +0.000 A 
ATOM     19  C   UNL     1      10.175  13.943  21.245  0.00  0.00    +0.000 A 
ATOM     20  C   UNL     1      10.451  12.677  20.726  0.00  0.00    +0.000 A 
ENDBRANCH  14  15
ENDBRANCH  13  14
ENDBRANCH  10  13
ENDBRANCH   5   7
BRANCH   1  21
ATOM     21  C   UNL     1       3.969   4.189  17.597  0.00  0.00    +0.000 C 
BRANCH  21  24
ATOM     22  N   UNL     1       2.376   3.644  20.271  0.00  0.00    +0.000 NA
ATOM     23  C   UNL     1       3.669   4.328  20.037  0.00  0.00    +0.000 C 
ATOM     24  N   UNL     1       4.364   3.674  18.926  0.00  0.00    +0.000 NA
ATOM     25  S   UNL     1       4.047   2.032  19.207  0.00  0.00    +0.000 S 
ATOM     26  O   UNL     1       4.869   1.638  20.331  0.00  0.00    +0.000 OA
ATOM     27  O   UNL     1       4.060   1.324  17.952  0.00  0.00    +0.000 OA
ATOM     28  N   UNL     1       2.434   2.270  19.809  0.00  0.00    +0.000 NA
BRANCH  22  30
ATOM     29  C   UNL     1       1.309   2.512  22.237  0.00  0.00    +0.000 C 
ATOM     30  C   UNL     1       2.040   3.738  21.702  0.00  0.00    +0.000 C 
ENDBRANCH  22  30
BRANCH  28  31
ATOM     31  C   UNL     1       1.327   1.897  18.875  0.00  0.00    +0.000 C 
ATOM     32  C   UNL     1       0.491   3.100  18.466  0.00  0.00    +0.000 C 
ENDBRANCH  28  31
ENDBRANCH  21  24
ENDBRANCH   1  21
TORSDOF 8
ENDMDL
MODEL 4
REMARK VINA RESULT:      -7.5      3.000      4.440
REMARK  Name = 
REMARK  10 active torsions:
REMARK  status: ('A' for Active; 'I' for Inactive)
REMARK    1  A    between atoms: C_1  and  C_2
REMARK    2  A    between atoms: C_2  and  N_3
REMARK    3  A    between atoms: N_5  and  C_6
REMARK    4  A    between atoms: C_6  and  C_7
REMARK    5  A    between atoms: C_11  and  N_12
REMARK    6  A    between atoms: N_15  and  C_16
REMARK    7  A    between atoms: C_16  and  C_17
REMARK    8  A    between atoms: C_17  and  C_18
REMARK    9  A    between atoms: N_28  and  C_29
REMARK   10  A    between atoms: C_29  and  C_30
REMARK                            x       y       z     vdW  Elec       q    Type
REMARK                         _______ _______ _______ _____ _____    ______ ____
ROOT
ATOM      1  C   UNL     1       3.866   5.007  18.850  0.00  0.00    +0.000 A 
ATOM      2  C   UNL     1       2.963   4.001  18.478  0.00  0.00    +0.000 A 
ATOM      3  C   UNL     1       1.751   4.333  17.878  0.00  0.00    +0.000 A 
ATOM      4  C   UNL     1       1.428   5.670  17.634  0.00  0.00    +0.000 A 
ATOM      5  C   UNL     1       2.305   6.699  17.992  0.00  0.00    +0.000 A 
ATOM      6  C   UNL     1       3.524   6.352  18.600  0.00  0.00    +0.000 A 
ENDROOT
BRANCH   5   7
ATOM      7  N   UNL     1       2.050   8.073  17.743  0.00  0.00    +0.000 N 
ATOM      8  C   UNL     1       1.555   8.984  18.651  0.00  0.00    +0.000 C 
ATOM      9  O   UNL     1       1.331   8.769  19.840  0.00  0.00    +0.000 OA
ATOM     10  N   UNL     1       1.315  10.226  18.099  0.00  0.00    +0.000 N 
ATOM     11  H   UNL     1       2.274   8.415  16.829  0.00  0.00    +0.000 HD
ATOM     12  H   UNL     1       1.737  10.472  17.216  0.00  0.00    +0.000 HD
BRANCH  10  13
ATOM     13  C   UNL     1       0.859  11.287  18.985  0.00  0.00    +0.000 C 
BRANCH  13  14
ATOM     14  C   UNL     1      -0.658  11.453  19.109  0.00  0.00    +0.000 C 
BRANCH  14  15
ATOM     15  C   UNL     1      -1.179  11.646  20.512  0.00  0.00    +0.000 A 
ATOM     16  C   UNL     1      -2.268  12.490  20.774  0.00  0.00    +0.000 A 
ATOM     17  C   UNL     1      -2.747  12.647  22.077  0.00  0.00    +0.000 A 
ATOM     18  C   UNL     1      -2.152  11.952  23.128  0.00  0.00    +0.000 A 
ATOM     19  C   UNL     1      -1.089  11.089  22.876  0.00  0.00    +0.000 A 
ATOM     20  C   UNL     1      -0.608  10.932  21.575  0.00  0.00    +0.000 A 
ENDBRANCH  14  15
ENDBRANCH  13  14
ENDBRANCH  10  13
ENDBRANCH   5   7
BRANCH   1  21
ATOM     21  C   UNL     1       5.227   4.626  19.410  0.00  0.00    +0.000 C 
BRANCH  21  24
ATOM     22  N   UNL     1       5.941   5.538  16.470  0.00  0.00    +0.000 NA
ATOM     23  C   UNL     1       5.654   4.194  17.023  0.00  0.00    +0.000 C 
ATOM     24  N   UNL     1       6.171   4.118  18.392  0.00  0.00    +0.000 NA
ATOM     25  S   UNL     1       7.647   4.944  18.275  0.00  0.00    +0.000 S 
ATOM     26  O   UNL     1       8.559   4.066  17.574  0.00  0.00    +0.000 OA
ATOM     27  O   UNL     1       7.966   5.532  19.552  0.00  0.00    +0.000 OA
ATOM     28  N   UNL     1       7.091   6.127  17.129  0.00  0.00    +0.000 NA
BRANCH  22  30
ATOM     29  C   UNL     1       5.526   4.154  14.422  0.00  0.00    +0.000 C 
ATOM     30  C   UNL     1       6.130   5.422  15.014  0.00  0.00    +0.000 C 
ENDBRANCH  22  30
BRANCH  28  31
ATOM     31  C   UNL     1       6.841   7.497  17.674  0.00  0.00    +0.000 C 
ATOM     32  C   UNL     1       8.091   8.364  17.644  0.00  0.00    +0.000 C 
ENDBRANCH  28  31
ENDBRANCH  21  24
ENDBRANCH   1  21
TORSDOF 8
ENDMDL
MODEL 5
REMARK VINA RESULT:      -7.4      6.348     10.094
REMARK  Name = 
REMARK  10 active torsions:
REMARK  status: ('A' for Active; 'I' for Inactive)
REMARK    1  A    between atoms: C_1  and  C_2
REMARK    2  A    between atoms: C_2  and  N_3
REMARK    3  A    between atoms: N_5  and  C_6
REMARK    4  A    between atoms: C_6  and  C_7
REMARK    5  A    between atoms: C_11  and  N_12
REMARK    6  A    between atoms: N_15  and  C_16
REMARK    7  A    between atoms: C_16  and  C_17
REMARK    8  A    between atoms: C_17  and  C_18
REMARK    9  A    between atoms: N_28  and  C_29
REMARK   10  A    between atoms: C_29  and  C_30
REMARK                            x       y       z     vdW  Elec       q    Type
REMARK                         _______ _______ _______ _____ _____    ______ ____
ROOT
ATOM      1  C   UNL     1       4.891   5.403  16.976  0.00  0.00    +0.000 A 
ATOM      2  C   UNL     1       5.392   4.862  15.783  0.00  0.00    +0.000 A 
ATOM      3  C   UNL     1       6.713   5.093  15.408  0.00  0.00    +0.000 A 
ATOM      4  C   UNL     1       7.553   5.857  16.222  0.00  0.00    +0.000 A 
ATOM      5  C   UNL     1       7.088   6.412  17.418  0.00  0.00    +0.000 A 
ATOM      6  C   UNL     1       5.751   6.175  17.784  0.00  0.00    +0.000 A 
ENDROOT
BRANCH   5   7
ATOM      7  N   UNL     1       7.899   7.170  18.302  0.00  0.00    +0.000 N 
ATOM      8  C   UNL     1       8.184   8.514  18.191  0.00  0.00    +0.000 C 
ATOM      9  O   UNL     1       7.719   9.283  17.352  0.00  0.00    +0.000 OA
ATOM     10  N   UNL     1       9.082   8.959  19.140  0.00  0.00    +0.000 N 
ATOM     11  H   UNL     1       8.277   6.687  19.093  0.00  0.00    +0.000 HD
ATOM     12  H   UNL     1       9.251   8.407  19.967  0.00  0.00    +0.000 HD
BRANCH  10  13
ATOM     13  C   UNL     1       9.400  10.380  19.160  0.00  0.00    +0.000 C 
BRANCH  13  14
ATOM     14  C   UNL     1       9.337  11.062  20.529  0.00  0.00    +0.000 C 
BRANCH  14  15
ATOM     15  C   UNL     1       9.939  12.444  20.596  0.00  0.00    +0.000 A 
ATOM     16  C   UNL     1      10.797  12.914  19.591  0.00  0.00    +0.000 A 
ATOM     17  C   UNL     1      11.335  14.200  19.662  0.00  0.00    +0.000 A 
ATOM     18  C   UNL     1      11.012  15.035  20.730  0.00  0.00    +0.000 A 
ATOM     19  C   UNL     1      10.140  14.590  21.720  0.00  0.00    +0.000 A 
ATOM     20  C   UNL     1       9.602  13.304  21.651  0.00  0.00    +0.000 A 
ENDBRANCH  14  15
ENDBRANCH  13  14
ENDBRANCH  10  13
ENDBRANCH   5   7
BRANCH   1  21
ATOM     21  C   UNL     1       3.480   5.059  17.423  0.00  0.00    +0.000 C 
BRANCH  21  24
ATOM     22  N   UNL     1       3.212   3.389  20.091  0.00  0.00    +0.000 NA
ATOM     23  C   UNL     1       4.015   3.141  18.871  0.00  0.00    +0.000 C 
ATOM     24  N   UNL     1       3.274   3.622  17.703  0.00  0.00    +0.000 NA
ATOM     25  S   UNL     1       1.683   3.158  18.058  0.00  0.00    +0.000 S 
ATOM     26  O   UNL     1       1.617   1.725  17.870  0.00  0.00    +0.000 OA
ATOM     27  O   UNL     1       0.768   4.067  17.415  0.00  0.00    +0.000 OA
ATOM     28  N   UNL     1       1.798   3.447  19.769  0.00  0.00    +0.000 NA
BRANCH  22  30
ATOM     29  C   UNL     1       4.812   1.593  20.796  0.00  0.00    +0.000 C 
ATOM     30  C   UNL     1       3.515   2.340  21.081  0.00  0.00    +0.000 C 
ENDBRANCH  22  30
BRANCH  28  31
ATOM     31  C   UNL     1       1.112   4.677  20.271  0.00  0.00    +0.000 C 
ATOM     32  C   UNL     1       2.095   5.795  20.585  0.00  0.00    +0.000 C 
ENDBRANCH  28  31
ENDBRANCH  21  24
ENDBRANCH   1  21
TORSDOF 8
ENDMDL
MODEL 6
REMARK VINA RESULT:      -7.4      6.170      9.904
REMARK  Name = 
REMARK  10 active torsions:
REMARK  status: ('A' for Active; 'I' for Inactive)
REMARK    1  A    between atoms: C_1  and  C_2
REMARK    2  A    between atoms: C_2  and  N_3
REMARK    3  A    between atoms: N_5  and  C_6
REMARK    4  A    between atoms: C_6  and  C_7
REMARK    5  A    between atoms: C_11  and  N_12
REMARK    6  A    between atoms: N_15  and  C_16
REMARK    7  A    between atoms: C_16  and  C_17
REMARK    8  A    between atoms: C_17  and  C_18
REMARK    9  A    between atoms: N_28  and  C_29
REMARK   10  A    between atoms: C_29  and  C_30
REMARK                            x       y       z     vdW  Elec       q    Type
REMARK                         _______ _______ _______ _____ _____    ______ ____
ROOT
ATOM      1  C   UNL     1       5.225   4.267  16.587  0.00  0.00    +0.000 A 
ATOM      2  C   UNL     1       5.822   3.616  15.498  0.00  0.00    +0.000 A 
ATOM      3  C   UNL     1       6.827   4.248  14.769  0.00  0.00    +0.000 A 
ATOM      4  C   UNL     1       7.255   5.530  15.122  0.00  0.00    +0.000 A 
ATOM      5  C   UNL     1       6.682   6.208  16.202  0.00  0.00    +0.000 A 
ATOM      6  C   UNL     1       5.666   5.562  16.929  0.00  0.00    +0.000 A 
ENDROOT
BRANCH   5   7
ATOM      7  N   UNL     1       7.093   7.497  16.630  0.00  0.00    +0.000 N 
ATOM      8  C   UNL     1       7.821   7.783  17.764  0.00  0.00    +0.000 C 
ATOM      9  O   UNL     1       8.295   6.959  18.544  0.00  0.00    +0.000 OA
ATOM     10  N   UNL     1       7.988   9.136  17.977  0.00  0.00    +0.000 N 
ATOM     11  H   UNL     1       6.851   8.267  16.036  0.00  0.00    +0.000 HD
ATOM     12  H   UNL     1       7.835   9.785  17.219  0.00  0.00    +0.000 HD
BRANCH  10  13
ATOM     13  C   UNL     1       8.804   9.551  19.109  0.00  0.00    +0.000 C 
BRANCH  13  14
ATOM     14  C   UNL     1      10.045  10.381  18.773  0.00  0.00    +0.000 C 
BRANCH  14  15
ATOM     15  C   UNL     1       9.979  11.838  19.161  0.00  0.00    +0.000 A 
ATOM     16  C   UNL     1      11.030  12.454  19.856  0.00  0.00    +0.000 A 
ATOM     17  C   UNL     1      10.958  13.807  20.196  0.00  0.00    +0.000 A 
ATOM     18  C   UNL     1       9.844  14.561  19.833  0.00  0.00    +0.000 A 
ATOM     19  C   UNL     1       8.807  13.967  19.119  0.00  0.00    +0.000 A 
ATOM     20  C   UNL     1       8.876  12.614  18.779  0.00  0.00    +0.000 A 
ENDBRANCH  14  15
ENDBRANCH  13  14
ENDBRANCH  10  13
ENDBRANCH   5   7
BRANCH   1  21
ATOM     21  C   UNL     1       4.203   3.528  17.436  0.00  0.00    +0.000 C 
BRANCH  21  24
ATOM     22  N   UNL     1       2.415   4.157  19.963  0.00  0.00    +0.000 NA
ATOM     23  C   UNL     1       3.761   4.647  19.584  0.00  0.00    +0.000 C 
ATOM     24  N   UNL     1       4.481   3.579  18.887  0.00  0.00    +0.000 NA
ATOM     25  S   UNL     1       4.045   2.201  19.772  0.00  0.00    +0.000 S 
ATOM     26  O   UNL     1       4.769   2.266  21.024  0.00  0.00    +0.000 OA
ATOM     27  O   UNL     1       4.093   1.047  18.910  0.00  0.00    +0.000 OA
ATOM     28  N   UNL     1       2.415   2.713  20.094  0.00  0.00    +0.000 NA
BRANCH  22  30
ATOM     29  C   UNL     1       1.482   6.248  20.984  0.00  0.00    +0.000 C 
ATOM     30  C   UNL     1       1.997   4.831  21.205  0.00  0.00    +0.000 C 
ENDBRANCH  22  30
BRANCH  28  31
ATOM     31  C   UNL     1       1.348   2.031  19.298  0.00  0.00    +0.000 C 
ATOM     32  C   UNL     1       0.615   2.995  18.378  0.00  0.00    +0.000 C 
ENDBRANCH  28  31
ENDBRANCH  21  24
ENDBRANCH   1  21
TORSDOF 8
ENDMDL
MODEL 7
REMARK VINA RESULT:      -7.3      7.363     11.128
REMARK  Name = 
REMARK  10 active torsions:
REMARK  status: ('A' for Active; 'I' for Inactive)
REMARK    1  A    between atoms: C_1  and  C_2
REMARK    2  A    between atoms: C_2  and  N_3
REMARK    3  A    between atoms: N_5  and  C_6
REMARK    4  A    between atoms: C_6  and  C_7
REMARK    5  A    between atoms: C_11  and  N_12
REMARK    6  A    between atoms: N_15  and  C_16
REMARK    7  A    between atoms: C_16  and  C_17
REMARK    8  A    between atoms: C_17  and  C_18
REMARK    9  A    between atoms: N_28  and  C_29
REMARK   10  A    between atoms: C_29  and  C_30
REMARK                            x       y       z     vdW  Elec       q    Type
REMARK                         _______ _______ _______ _____ _____    ______ ____
ROOT
ATOM      1  C   UNL     1       9.926  11.843  20.724  0.00  0.00    +0.000 A 
ATOM      2  C   UNL     1      11.173  12.195  20.188  0.00  0.00    +0.000 A 
ATOM      3  C   UNL     1      11.532  11.771  18.910  0.00  0.00    +0.000 A 
ATOM      4  C   UNL     1      10.649  11.001  18.149  0.00  0.00    +0.000 A 
ATOM      5  C   UNL     1       9.397  10.632  18.652  0.00  0.00    +0.000 A 
ATOM      6  C   UNL     1       9.048  11.062  19.945  0.00  0.00    +0.000 A 
ENDROOT
BRANCH   5   7
ATOM      7  N   UNL     1       8.445   9.878  17.918  0.00  0.00    +0.000 N 
ATOM      8  C   UNL     1       8.181   8.534  18.071  0.00  0.00    +0.000 C 
ATOM      9  O   UNL     1       8.674   7.794  18.920  0.00  0.00    +0.000 OA
ATOM     10  N   UNL     1       7.275   8.050  17.150  0.00  0.00    +0.000 N 
ATOM     11  H   UNL     1       7.898  10.377  17.244  0.00  0.00    +0.000 HD
ATOM     12  H   UNL     1       6.686   8.693  16.641  0.00  0.00    +0.000 HD
BRANCH  10  13
ATOM     13  C   UNL     1       6.867   6.657  17.265  0.00  0.00    +0.000 C 
BRANCH  13  14
ATOM     14  C   UNL     1       5.773   6.196  16.300  0.00  0.00    +0.000 C 
BRANCH  14  15
ATOM     15  C   UNL     1       4.530   5.633  16.945  0.00  0.00    +0.000 A 
ATOM     16  C   UNL     1       3.625   6.461  17.626  0.00  0.00    +0.000 A 
ATOM     17  C   UNL     1       2.473   5.925  18.206  0.00  0.00    +0.000 A 
ATOM     18  C   UNL     1       2.206   4.561  18.100  0.00  0.00    +0.000 A 
ATOM     19  C   UNL     1       3.083   3.735  17.402  0.00  0.00    +0.000 A 
ATOM     20  C   UNL     1       4.236   4.268  16.823  0.00  0.00    +0.000 A 
ENDBRANCH  14  15
ENDBRANCH  13  14
ENDBRANCH  10  13
ENDBRANCH   5   7
BRANCH   1  21
ATOM     21  C   UNL     1       9.507  12.396  22.076  0.00  0.00    +0.000 C 
BRANCH  21  24
ATOM     22  N   UNL     1       7.694  12.468  24.663  0.00  0.00    +0.000 NA
ATOM     23  C   UNL     1       7.612  11.625  23.447  0.00  0.00    +0.000 C 
ATOM     24  N   UNL     1       8.044  12.411  22.289  0.00  0.00    +0.000 NA
ATOM     25  S   UNL     1       7.357  13.930  22.596  0.00  0.00    +0.000 S 
ATOM     26  O   UNL     1       5.938  13.802  22.344  0.00  0.00    +0.000 OA
ATOM     27  O   UNL     1       8.164  14.951  21.978  0.00  0.00    +0.000 OA
ATOM     28  N   UNL     1       7.579  13.873  24.320  0.00  0.00    +0.000 NA
BRANCH  22  30
ATOM     29  C   UNL     1       7.127  11.991  27.058  0.00  0.00    +0.000 C 
ATOM     30  C   UNL     1       6.651  12.038  25.611  0.00  0.00    +0.000 C 
ENDBRANCH  22  30
BRANCH  28  31
ATOM     31  C   UNL     1       8.683  14.722  24.864  0.00  0.00    +0.000 C 
ATOM     32  C   UNL     1       8.171  16.045  25.415  0.00  0.00    +0.000 C 
ENDBRANCH  28  31
ENDBRANCH  21  24
ENDBRANCH   1  21
TORSDOF 8
ENDMDL
MODEL 8
REMARK VINA RESULT:      -7.3      4.680     10.312
REMARK  Name = 
REMARK  10 active torsions:
REMARK  status: ('A' for Active; 'I' for Inactive)
REMARK    1  A    between atoms: C_1  and  C_2
REMARK    2  A    between atoms: C_2  and  N_3
REMARK    3  A    between atoms: N_5  and  C_6
REMARK    4  A    between atoms: C_6  and  C_7
REMARK    5  A    between atoms: C_11  and  N_12
REMARK    6  A    between atoms: N_15  and  C_16
REMARK    7  A    between atoms: C_16  and  C_17
REMARK    8  A    between atoms: C_17  and  C_18
REMARK    9  A    between atoms: N_28  and  C_29
REMARK   10  A    between atoms: C_29  and  C_30
REMARK                            x       y       z     vdW  Elec       q    Type
REMARK                         _______ _______ _______ _____ _____    ______ ____
ROOT
ATOM      1  C   UNL     1       0.305  11.550  21.140  0.00  0.00    +0.000 A 
ATOM      2  C   UNL     1      -0.615  11.640  22.195  0.00  0.00    +0.000 A 
ATOM      3  C   UNL     1      -0.853  10.538  23.013  0.00  0.00    +0.000 A 
ATOM      4  C   UNL     1      -0.172   9.338  22.796  0.00  0.00    +0.000 A 
ATOM      5  C   UNL     1       0.752   9.213  21.754  0.00  0.00    +0.000 A 
ATOM      6  C   UNL     1       0.982  10.330  20.932  0.00  0.00    +0.000 A 
ENDROOT
BRANCH   5   7
ATOM      7  N   UNL     1       1.498   8.032  21.500  0.00  0.00    +0.000 N 
ATOM      8  C   UNL     1       1.941   7.600  20.269  0.00  0.00    +0.000 C 
ATOM      9  O   UNL     1       1.826   8.208  19.207  0.00  0.00    +0.000 OA
ATOM     10  N   UNL     1       2.555   6.365  20.315  0.00  0.00    +0.000 N 
ATOM     11  H   UNL     1       1.745   7.476  22.296  0.00  0.00    +0.000 HD
ATOM     12  H   UNL     1       2.879   6.000  21.198  0.00  0.00    +0.000 HD
BRANCH  10  13
ATOM     13  C   UNL     1       3.126   5.844  19.081  0.00  0.00    +0.000 C 
BRANCH  13  14
ATOM     14  C   UNL     1       4.312   4.889  19.241  0.00  0.00    +0.000 C 
BRANCH  14  15
ATOM     15  C   UNL     1       5.177   4.715  18.018  0.00  0.00    +0.000 A 
ATOM     16  C   UNL     1       6.577   4.760  18.104  0.00  0.00    +0.000 A 
ATOM     17  C   UNL     1       7.363   4.584  16.963  0.00  0.00    +0.000 A 
ATOM     18  C   UNL     1       6.761   4.345  15.729  0.00  0.00    +0.000 A 
ATOM     19  C   UNL     1       5.374   4.270  15.636  0.00  0.00    +0.000 A 
ATOM     20  C   UNL     1       4.586   4.448  16.775  0.00  0.00    +0.000 A 
ENDBRANCH  14  15
ENDBRANCH  13  14
ENDBRANCH  10  13
ENDBRANCH   5   7
BRANCH   1  21
ATOM     21  C   UNL     1       0.631  12.787  20.320  0.00  0.00    +0.000 C 
BRANCH  21  24
ATOM     22  N   UNL     1       2.318  14.869  18.647  0.00  0.00    +0.000 NA
ATOM     23  C   UNL     1       2.526  13.421  18.882  0.00  0.00    +0.000 C 
ATOM     24  N   UNL     1       2.076  13.085  20.234  0.00  0.00    +0.000 NA
ATOM     25  S   UNL     1       2.613  14.412  21.143  0.00  0.00    +0.000 S 
ATOM     26  O   UNL     1       4.047  14.272  21.274  0.00  0.00    +0.000 OA
ATOM     27  O   UNL     1       1.746  14.592  22.280  0.00  0.00    +0.000 OA
ATOM     28  N   UNL     1       2.324  15.596  19.903  0.00  0.00    +0.000 NA
BRANCH  22  30
ATOM     29  C   UNL     1       4.424  16.206  18.391  0.00  0.00    +0.000 C 
ATOM     30  C   UNL     1       3.354  15.354  17.718  0.00  0.00    +0.000 C 
ENDBRANCH  22  30
BRANCH  28  31
ATOM     31  C   UNL     1       1.127  16.470  20.102  0.00  0.00    +0.000 C 
ATOM     32  C   UNL     1       1.397  17.913  19.703  0.00  0.00    +0.000 C 
ENDBRANCH  28  31
ENDBRANCH  21  24
ENDBRANCH   1  21
TORSDOF 8
ENDMDL
MODEL 9
REMARK VINA RESULT:      -7.3      4.605     10.524
REMARK  Name = 
REMARK  10 active torsions:
REMARK  status: ('A' for Active; 'I' for Inactive)
REMARK    1  A    between atoms: C_1  and  C_2
REMARK    2  A    between atoms: C_2  and  N_3
REMARK    3  A    between atoms: N_5  and  C_6
REMARK    4  A    between atoms: C_6  and  C_7
REMARK    5  A    between atoms: C_11  and  N_12
REMARK    6  A    between atoms: N_15  and  C_16
REMARK    7  A    between atoms: C_16  and  C_17
REMARK    8  A    between atoms: C_17  and  C_18
REMARK    9  A    between atoms: N_28  and  C_29
REMARK   10  A    between atoms: C_29  and  C_30
REMARK                            x       y       z     vdW  Elec       q    Type
REMARK                         _______ _______ _______ _____ _____    ______ ____
ROOT
ATOM      1  C   UNL     1      -3.940  12.431  19.663  0.00  0.00    +0.000 A 
ATOM      2  C   UNL     1      -5.099  11.854  19.124  0.00  0.00    +0.000 A 
ATOM      3  C   UNL     1      -5.004  10.926  18.089  0.00  0.00    +0.000 A 
ATOM      4  C   UNL     1      -3.754  10.556  17.588  0.00  0.00    +0.000 A 
ATOM      5  C   UNL     1      -2.577  11.111  18.102  0.00  0.00    +0.000 A 
ATOM      6  C   UNL     1      -2.686  12.049  19.144  0.00  0.00    +0.000 A 
ENDROOT
BRANCH   5   7
ATOM      7  N   UNL     1      -1.278  10.753  17.657  0.00  0.00    +0.000 N 
ATOM      8  C   UNL     1      -0.275  10.212  18.431  0.00  0.00    +0.000 C 
ATOM      9  O   UNL     1      -0.372   9.883  19.611  0.00  0.00    +0.000 OA
ATOM     10  N   UNL     1       0.915  10.060  17.750  0.00  0.00    +0.000 N 
ATOM     11  H   UNL     1      -1.084  10.885  16.683  0.00  0.00    +0.000 HD
ATOM     12  H   UNL     1       0.921  10.079  16.741  0.00  0.00    +0.000 HD
BRANCH  10  13
ATOM     13  C   UNL     1       2.025   9.430  18.451  0.00  0.00    +0.000 C 
BRANCH  13  14
ATOM     14  C   UNL     1       2.589   8.159  17.811  0.00  0.00    +0.000 C 
BRANCH  14  15
ATOM     15  C   UNL     1       2.320   6.878  18.561  0.00  0.00    +0.000 A 
ATOM     16  C   UNL     1       2.370   5.633  17.916  0.00  0.00    +0.000 A 
ATOM     17  C   UNL     1       2.131   4.456  18.628  0.00  0.00    +0.000 A 
ATOM     18  C   UNL     1       1.855   4.508  19.992  0.00  0.00    +0.000 A 
ATOM     19  C   UNL     1       1.831   5.735  20.650  0.00  0.00    +0.000 A 
ATOM     20  C   UNL     1       2.067   6.913  19.940  0.00  0.00    +0.000 A 
ENDBRANCH  14  15
ENDBRANCH  13  14
ENDBRANCH  10  13
ENDBRANCH   5   7
BRANCH   1  21
ATOM     21  C   UNL     1      -4.051  13.364  20.858  0.00  0.00    +0.000 C 
BRANCH  21  24
ATOM     22  N   UNL     1      -2.638  14.548  23.424  0.00  0.00    +0.000 NA
ATOM     23  C   UNL     1      -2.338  13.336  22.626  0.00  0.00    +0.000 C 
ATOM     24  N   UNL     1      -3.591  12.765  22.129  0.00  0.00    +0.000 NA
ATOM     25  S   UNL     1      -4.633  12.953  23.454  0.00  0.00    +0.000 S 
ATOM     26  O   UNL     1      -4.236  11.966  24.436  0.00  0.00    +0.000 OA
ATOM     27  O   UNL     1      -5.988  13.072  22.981  0.00  0.00    +0.000 OA
ATOM     28  N   UNL     1      -3.981  14.480  23.970  0.00  0.00    +0.000 NA
BRANCH  22  30
ATOM     29  C   UNL     1      -0.869  16.018  24.419  0.00  0.00    +0.000 C 
ATOM     30  C   UNL     1      -1.616  14.691  24.475  0.00  0.00    +0.000 C 
ENDBRANCH  22  30
BRANCH  28  31
ATOM     31  C   UNL     1      -4.819  15.682  23.669  0.00  0.00    +0.000 C 
ATOM     32  C   UNL     1      -4.721  16.737  24.760  0.00  0.00    +0.000 C 
ENDBRANCH  28  31
ENDBRANCH  21  24
ENDBRANCH   1  21
TORSDOF 8
ENDMDL
