MODEL 1
REMARK VINA RESULT:      -7.5      0.000      0.000
REMARK  Name = 
REMARK  7 active torsions:
REMARK  status: ('A' for Active; 'I' for Inactive)
REMARK    1  A    between atoms: S_2  and  N_4
REMARK    2  A    between atoms: S_2  and  C_8
REMARK    3  A    between atoms: N_4  and  C_5
REMARK    4  A    between atoms: C_5  and  C_6
REMARK    5  A    between atoms: C_6  and  O_7
REMARK    6  A    between atoms: C_12  and  N_13
REMARK    7  A    between atoms: C_21  and  C_22
REMARK                            x       y       z     vdW  Elec       q    Type
REMARK                         _______ _______ _______ _____ _____    ______ ____
ROOT
ATOM      1  N   UNL     1       0.887   8.606  21.513  0.00  0.00    +0.000 N 
ATOM      2  C   UNL     1       0.262   9.768  21.999  0.00  0.00    +0.000 A 
ATOM      3  C   UNL     1      -0.679   9.688  23.005  0.00  0.00    +0.000 A 
ATOM      4  C   UNL     1      -1.372  10.848  23.356  0.00  0.00    +0.000 A 
ATOM      5  C   UNL     1      -1.106  12.063  22.741  0.00  0.00    +0.000 A 
ATOM      6  N   UNL     1      -1.832  13.142  23.077  0.00  0.00    +0.000 NA
ATOM      7  C   UNL     1      -1.538  14.299  22.459  0.00  0.00    +0.000 A 
ATOM      8  C   UNL     1      -0.520  14.434  21.531  0.00  0.00    +0.000 A 
ATOM      9  C   UNL     1       0.246  13.311  21.173  0.00  0.00    +0.000 A 
ATOM     10  C   UNL     1      -0.075  12.080  21.780  0.00  0.00    +0.000 A 
ATOM     11  N   UNL     1       0.568  10.947  21.433  0.00  0.00    +0.000 NA
ATOM     12  H   UNL     1       1.471   8.192  22.230  0.00  0.00    +0.000 HD
ENDROOT
BRANCH   1  17
ATOM     13  C   UNL     1       2.795   7.298  18.587  0.00  0.00    +0.000 A 
ATOM     14  C   UNL     1       2.553   8.283  17.631  0.00  0.00    +0.000 A 
ATOM     15  C   UNL     1       1.756   9.376  17.967  0.00  0.00    +0.000 A 
ATOM     16  C   UNL     1       1.198   9.477  19.250  0.00  0.00    +0.000 A 
ATOM     17  C   UNL     1       1.405   8.473  20.203  0.00  0.00    +0.000 A 
ATOM     18  C   UNL     1       2.230   7.390  19.858  0.00  0.00    +0.000 A 
BRANCH  13  20
ATOM     19  O   UNL     1       4.712   5.669  19.334  0.00  0.00    +0.000 OA
ATOM     20  S   UNL     1       3.840   5.921  18.211  0.00  0.00    +0.000 S 
ATOM     21  O   UNL     1       4.349   6.091  16.868  0.00  0.00    +0.000 OA
BRANCH  20  22
ATOM     22  N   UNL     1       2.745   4.631  18.118  0.00  0.00    +0.000 NA
ATOM     23  H   UNL     1       2.734   4.283  17.161  0.00  0.00    +0.000 HD
BRANCH  22  24
ATOM     24  C   UNL     1       2.813   3.621  19.194  0.00  0.00    +0.000 C 
BRANCH  24  25
ATOM     25  C   UNL     1       3.751   2.481  18.791  0.00  0.00    +0.000 C 
BRANCH  25  26
ATOM     26  O   UNL     1       5.038   2.648  19.384  0.00  0.00    +0.000 OA
ATOM     27  H   UNL     1       5.382   3.504  19.078  0.00  0.00    +0.000 HD
ENDBRANCH  25  26
ENDBRANCH  24  25
ENDBRANCH  22  24
ENDBRANCH  20  22
ENDBRANCH  13  20
ENDBRANCH   1  17
BRANCH   9  28
ATOM     28  C   UNL     1       1.354  13.449  20.175  0.00  0.00    +0.000 A 
ATOM     29  C   UNL     1       1.211  13.053  18.834  0.00  0.00    +0.000 A 
ATOM     30  C   UNL     1       2.261  13.221  17.941  0.00  0.00    +0.000 A 
ATOM     31  N   UNL     1       3.465  13.714  18.283  0.00  0.00    +0.000 NA
ATOM     32  C   UNL     1       3.604  14.092  19.569  0.00  0.00    +0.000 A 
ATOM     33  C   UNL     1       2.602  13.984  20.528  0.00  0.00    +0.000 A 
ENDBRANCH   9  28
TORSDOF 7
ENDMDL
MODEL 2
REMARK VINA RESULT:      -7.4      1.172      1.275
REMARK  Name = 
REMARK  7 active torsions:
REMARK  status: ('A' for Active; 'I' for Inactive)
REMARK    1  A    between atoms: S_2  and  N_4
REMARK    2  A    between atoms: S_2  and  C_8
REMARK    3  A    between atoms: N_4  and  C_5
REMARK    4  A    between atoms: C_5  and  C_6
REMARK    5  A    between atoms: C_6  and  O_7
REMARK    6  A    between atoms: C_12  and  N_13
REMARK    7  A    between atoms: C_21  and  C_22
REMARK                            x       y       z     vdW  Elec       q    Type
REMARK                         _______ _______ _______ _____ _____    ______ ____
ROOT
ATOM      1  N   UNL     1       0.651   8.985  21.622  0.00  0.00    +0.000 N 
ATOM      2  C   UNL     1       0.073  10.188  22.065  0.00  0.00    +0.000 A 
ATOM      3  C   UNL     1      -0.886  10.178  23.057  0.00  0.00    +0.000 A 
ATOM      4  C   UNL     1      -1.531  11.377  23.365  0.00  0.00    +0.000 A 
ATOM      5  C   UNL     1      -1.198  12.562  22.722  0.00  0.00    +0.000 A 
ATOM      6  N   UNL     1      -1.879  13.682  23.018  0.00  0.00    +0.000 NA
ATOM      7  C   UNL     1      -1.522  14.807  22.374  0.00  0.00    +0.000 A 
ATOM      8  C   UNL     1      -0.483  14.870  21.461  0.00  0.00    +0.000 A 
ATOM      9  C   UNL     1       0.235  13.704  21.146  0.00  0.00    +0.000 A 
ATOM     10  C   UNL     1      -0.152  12.505  21.780  0.00  0.00    +0.000 A 
ATOM     11  N   UNL     1       0.443  11.335  21.474  0.00  0.00    +0.000 NA
ATOM     12  H   UNL     1       1.205   8.564  22.358  0.00  0.00    +0.000 HD
ENDROOT
BRANCH   1  17
ATOM     13  C   UNL     1       2.517   7.493  18.755  0.00  0.00    +0.000 A 
ATOM     14  C   UNL     1       2.366   8.478  17.780  0.00  0.00    +0.000 A 
ATOM     15  C   UNL     1       1.644   9.631  18.083  0.00  0.00    +0.000 A 
ATOM     16  C   UNL     1       1.071   9.793  19.352  0.00  0.00    +0.000 A 
ATOM     17  C   UNL     1       1.185   8.792  20.324  0.00  0.00    +0.000 A 
ATOM     18  C   UNL     1       1.935   7.647  20.013  0.00  0.00    +0.000 A 
BRANCH  13  20
ATOM     19  O   UNL     1       4.792   6.424  18.005  0.00  0.00    +0.000 OA
ATOM     20  S   UNL     1       3.465   6.038  18.422  0.00  0.00    +0.000 S 
ATOM     21  O   UNL     1       2.650   5.133  17.643  0.00  0.00    +0.000 OA
BRANCH  20  22
ATOM     22  N   UNL     1       3.603   5.319  19.951  0.00  0.00    +0.000 NA
ATOM     23  H   UNL     1       3.391   6.020  20.660  0.00  0.00    +0.000 HD
BRANCH  22  24
ATOM     24  C   UNL     1       2.980   3.991  20.121  0.00  0.00    +0.000 C 
BRANCH  24  25
ATOM     25  C   UNL     1       1.791   4.083  21.079  0.00  0.00    +0.000 C 
BRANCH  25  26
ATOM     26  O   UNL     1       0.683   3.331  20.586  0.00  0.00    +0.000 OA
ATOM     27  H   UNL     1      -0.036   3.962  20.417  0.00  0.00    +0.000 HD
ENDBRANCH  25  26
ENDBRANCH  24  25
ENDBRANCH  22  24
ENDBRANCH  20  22
ENDBRANCH  13  20
ENDBRANCH   1  17
BRANCH   9  28
ATOM     28  C   UNL     1       1.364  13.763  20.164  0.00  0.00    +0.000 A 
ATOM     29  C   UNL     1       1.211  13.390  18.818  0.00  0.00    +0.000 A 
ATOM     30  C   UNL     1       2.283  13.484  17.941  0.00  0.00    +0.000 A 
ATOM     31  N   UNL     1       3.516  13.880  18.304  0.00  0.00    +0.000 NA
ATOM     32  C   UNL     1       3.665  14.236  19.595  0.00  0.00    +0.000 A 
ATOM     33  C   UNL     1       2.645  14.198  20.539  0.00  0.00    +0.000 A 
ENDBRANCH   9  28
TORSDOF 7
ENDMDL
MODEL 3
REMARK VINA RESULT:      -7.4      1.343      1.504
REMARK  Name = 
REMARK  7 active torsions:
REMARK  status: ('A' for Active; 'I' for Inactive)
REMARK    1  A    between atoms: S_2  and  N_4
REMARK    2  A    between atoms: S_2  and  C_8
REMARK    3  A    between atoms: N_4  and  C_5
REMARK    4  A    between atoms: C_5  and  C_6
REMARK    5  A    between atoms: C_6  and  O_7
REMARK    6  A    between atoms: C_12  and  N_13
REMARK    7  A    between atoms: C_21  and  C_22
REMARK                            x       y       z     vdW  Elec       q    Type
REMARK                         _______ _______ _______ _____ _____    ______ ____
ROOT
ATOM      1  N   UNL     1       0.683   8.902  21.601  0.00  0.00    +0.000 N 
ATOM      2  C   UNL     1       0.089  10.098  22.041  0.00  0.00    +0.000 A 
ATOM      3  C   UNL     1      -0.877  10.077  23.026  0.00  0.00    +0.000 A 
ATOM      4  C   UNL     1      -1.538  11.268  23.331  0.00  0.00    +0.000 A 
ATOM      5  C   UNL     1      -1.214  12.457  22.692  0.00  0.00    +0.000 A 
ATOM      6  N   UNL     1      -1.909  13.569  22.983  0.00  0.00    +0.000 NA
ATOM      7  C   UNL     1      -1.560  14.699  22.343  0.00  0.00    +0.000 A 
ATOM      8  C   UNL     1      -0.516  14.774  21.437  0.00  0.00    +0.000 A 
ATOM      9  C   UNL     1       0.218  13.616  21.126  0.00  0.00    +0.000 A 
ATOM     10  C   UNL     1      -0.161  12.413  21.756  0.00  0.00    +0.000 A 
ATOM     11  N   UNL     1       0.450  11.250  21.453  0.00  0.00    +0.000 NA
ATOM     12  H   UNL     1       1.236   8.487  22.341  0.00  0.00    +0.000 HD
ENDROOT
BRANCH   1  17
ATOM     13  C   UNL     1       2.573   7.426  18.742  0.00  0.00    +0.000 A 
ATOM     14  C   UNL     1       2.430   8.416  17.771  0.00  0.00    +0.000 A 
ATOM     15  C   UNL     1       1.705   9.567  18.074  0.00  0.00    +0.000 A 
ATOM     16  C   UNL     1       1.121   9.722  19.339  0.00  0.00    +0.000 A 
ATOM     17  C   UNL     1       1.228   8.717  20.307  0.00  0.00    +0.000 A 
ATOM     18  C   UNL     1       1.981   7.573  19.996  0.00  0.00    +0.000 A 
BRANCH  13  20
ATOM     19  O   UNL     1       2.730   5.055  17.630  0.00  0.00    +0.000 OA
ATOM     20  S   UNL     1       3.525   5.974  18.410  0.00  0.00    +0.000 S 
ATOM     21  O   UNL     1       4.182   5.571  19.634  0.00  0.00    +0.000 OA
BRANCH  20  22
ATOM     22  N   UNL     1       4.761   6.554  17.405  0.00  0.00    +0.000 NA
ATOM     23  H   UNL     1       5.301   7.246  17.921  0.00  0.00    +0.000 HD
BRANCH  22  24
ATOM     24  C   UNL     1       5.524   5.548  16.640  0.00  0.00    +0.000 C 
BRANCH  24  25
ATOM     25  C   UNL     1       6.811   5.183  17.383  0.00  0.00    +0.000 C 
BRANCH  25  26
ATOM     26  O   UNL     1       6.585   4.105  18.290  0.00  0.00    +0.000 OA
ATOM     27  H   UNL     1       5.976   3.488  17.852  0.00  0.00    +0.000 HD
ENDBRANCH  25  26
ENDBRANCH  24  25
ENDBRANCH  22  24
ENDBRANCH  20  22
ENDBRANCH  13  20
ENDBRANCH   1  17
BRANCH   9  28
ATOM     28  C   UNL     1       1.352  13.689  20.152  0.00  0.00    +0.000 A 
ATOM     29  C   UNL     1       1.218  13.293  18.810  0.00  0.00    +0.000 A 
ATOM     30  C   UNL     1       2.295  13.400  17.940  0.00  0.00    +0.000 A 
ATOM     31  N   UNL     1       3.515  13.832  18.306  0.00  0.00    +0.000 NA
ATOM     32  C   UNL     1       3.645  14.210  19.592  0.00  0.00    +0.000 A 
ATOM     33  C   UNL     1       2.619  14.161  20.529  0.00  0.00    +0.000 A 
ENDBRANCH   9  28
TORSDOF 7
ENDMDL
MODEL 4
REMARK VINA RESULT:      -7.3      0.945      1.331
REMARK  Name = 
REMARK  7 active torsions:
REMARK  status: ('A' for Active; 'I' for Inactive)
REMARK    1  A    between atoms: S_2  and  N_4
REMARK    2  A    between atoms: S_2  and  C_8
REMARK    3  A    between atoms: N_4  and  C_5
REMARK    4  A    between atoms: C_5  and  C_6
REMARK    5  A    between atoms: C_6  and  O_7
REMARK    6  A    between atoms: C_12  and  N_13
REMARK    7  A    between atoms: C_21  and  C_22
REMARK                            x       y       z     vdW  Elec       q    Type
REMARK                         _______ _______ _______ _____ _____    ______ ____
ROOT
ATOM      1  N   UNL     1       0.759   8.781  21.564  0.00  0.00    +0.000 N 
ATOM      2  C   UNL     1       0.160   9.963  22.035  0.00  0.00    +0.000 A 
ATOM      3  C   UNL     1      -0.787   9.916  23.037  0.00  0.00    +0.000 A 
ATOM      4  C   UNL     1      -1.455  11.095  23.374  0.00  0.00    +0.000 A 
ATOM      5  C   UNL     1      -1.155  12.298  22.748  0.00  0.00    +0.000 A 
ATOM      6  N   UNL     1      -1.857  13.397  23.071  0.00  0.00    +0.000 NA
ATOM      7  C   UNL     1      -1.532  14.541  22.443  0.00  0.00    +0.000 A 
ATOM      8  C   UNL     1      -0.506  14.642  21.520  0.00  0.00    +0.000 A 
ATOM      9  C   UNL     1       0.234  13.498  21.176  0.00  0.00    +0.000 A 
ATOM     10  C   UNL     1      -0.119  12.280  21.793  0.00  0.00    +0.000 A 
ATOM     11  N   UNL     1       0.498  11.129  21.460  0.00  0.00    +0.000 NA
ATOM     12  H   UNL     1       1.330   8.361  22.287  0.00  0.00    +0.000 HD
ENDROOT
BRANCH   1  17
ATOM     13  C   UNL     1       2.624   7.382  18.652  0.00  0.00    +0.000 A 
ATOM     14  C   UNL     1       2.439   8.378  17.695  0.00  0.00    +0.000 A 
ATOM     15  C   UNL     1       1.693   9.509  18.026  0.00  0.00    +0.000 A 
ATOM     16  C   UNL     1       1.132   9.637  19.304  0.00  0.00    +0.000 A 
ATOM     17  C   UNL     1       1.281   8.623  20.258  0.00  0.00    +0.000 A 
ATOM     18  C   UNL     1       2.054   7.501  19.919  0.00  0.00    +0.000 A 
BRANCH  13  20
ATOM     19  O   UNL     1       4.329   5.562  19.468  0.00  0.00    +0.000 OA
ATOM     20  S   UNL     1       3.603   5.956  18.284  0.00  0.00    +0.000 S 
ATOM     21  O   UNL     1       4.264   6.174  17.016  0.00  0.00    +0.000 OA
BRANCH  20  22
ATOM     22  N   UNL     1       2.435   4.764  17.985  0.00  0.00    +0.000 NA
ATOM     23  H   UNL     1       2.372   4.618  16.979  0.00  0.00    +0.000 HD
BRANCH  22  24
ATOM     24  C   UNL     1       2.485   3.556  18.832  0.00  0.00    +0.000 C 
BRANCH  24  25
ATOM     25  C   UNL     1       1.068   3.074  19.151  0.00  0.00    +0.000 C 
BRANCH  25  26
ATOM     26  O   UNL     1       0.543   3.757  20.288  0.00  0.00    +0.000 OA
ATOM     27  H   UNL     1       1.099   3.514  21.047  0.00  0.00    +0.000 HD
ENDBRANCH  25  26
ENDBRANCH  24  25
ENDBRANCH  22  24
ENDBRANCH  20  22
ENDBRANCH  13  20
ENDBRANCH   1  17
BRANCH   9  28
ATOM     28  C   UNL     1       1.350  13.599  20.183  0.00  0.00    +0.000 A 
ATOM     29  C   UNL     1       2.632  14.054  20.535  0.00  0.00    +0.000 A 
ATOM     30  C   UNL     1       3.640  14.109  19.582  0.00  0.00    +0.000 A 
ATOM     31  N   UNL     1       3.466  13.787  18.287  0.00  0.00    +0.000 NA
ATOM     32  C   UNL     1       2.237  13.352  17.948  0.00  0.00    +0.000 A 
ATOM     33  C   UNL     1       1.174  13.241  18.837  0.00  0.00    +0.000 A 
ENDBRANCH   9  28
TORSDOF 7
ENDMDL
MODEL 5
REMARK VINA RESULT:      -7.3      0.529      1.002
REMARK  Name = 
REMARK  7 active torsions:
REMARK  status: ('A' for Active; 'I' for Inactive)
REMARK    1  A    between atoms: S_2  and  N_4
REMARK    2  A    between atoms: S_2  and  C_8
REMARK    3  A    between atoms: N_4  and  C_5
REMARK    4  A    between atoms: C_5  and  C_6
REMARK    5  A    between atoms: C_6  and  O_7
REMARK    6  A    between atoms: C_12  and  N_13
REMARK    7  A    between atoms: C_21  and  C_22
REMARK                            x       y       z     vdW  Elec       q    Type
REMARK                         _______ _______ _______ _____ _____    ______ ____
ROOT
ATOM      1  N   UNL     1       0.615   9.006  21.600  0.00  0.00    +0.000 N 
ATOM      2  C   UNL     1       0.047  10.209  22.056  0.00  0.00    +0.000 A 
ATOM      3  C   UNL     1      -0.912  10.197  23.047  0.00  0.00    +0.000 A 
ATOM      4  C   UNL     1      -1.547  11.399  23.369  0.00  0.00    +0.000 A 
ATOM      5  C   UNL     1      -1.203  12.588  22.739  0.00  0.00    +0.000 A 
ATOM      6  N   UNL     1      -1.873  13.710  23.046  0.00  0.00    +0.000 NA
ATOM      7  C   UNL     1      -1.505  14.839  22.415  0.00  0.00    +0.000 A 
ATOM      8  C   UNL     1      -0.465  14.903  21.504  0.00  0.00    +0.000 A 
ATOM      9  C   UNL     1       0.243  13.733  21.176  0.00  0.00    +0.000 A 
ATOM     10  C   UNL     1      -0.156  12.531  21.796  0.00  0.00    +0.000 A 
ATOM     11  N   UNL     1       0.428  11.360  21.478  0.00  0.00    +0.000 NA
ATOM     12  H   UNL     1       1.163   8.572  22.332  0.00  0.00    +0.000 HD
ENDROOT
BRANCH   1  17
ATOM     13  C   UNL     1       2.502   7.551  18.729  0.00  0.00    +0.000 A 
ATOM     14  C   UNL     1       2.325   8.529  17.752  0.00  0.00    +0.000 A 
ATOM     15  C   UNL     1       1.577   9.666  18.056  0.00  0.00    +0.000 A 
ATOM     16  C   UNL     1       1.005   9.818  19.326  0.00  0.00    +0.000 A 
ATOM     17  C   UNL     1       1.147   8.823  20.301  0.00  0.00    +0.000 A 
ATOM     18  C   UNL     1       1.922   7.694  19.989  0.00  0.00    +0.000 A 
BRANCH  13  20
ATOM     19  O   UNL     1       4.024   5.616  19.636  0.00  0.00    +0.000 OA
ATOM     20  S   UNL     1       3.483   6.118  18.395  0.00  0.00    +0.000 S 
ATOM     21  O   UNL     1       4.322   6.398  17.251  0.00  0.00    +0.000 OA
BRANCH  20  22
ATOM     22  N   UNL     1       2.336   4.994  17.850  0.00  0.00    +0.000 NA
ATOM     23  H   UNL     1       2.246   5.088  16.840  0.00  0.00    +0.000 HD
BRANCH  22  24
ATOM     24  C   UNL     1       2.441   3.623  18.386  0.00  0.00    +0.000 C 
BRANCH  24  25
ATOM     25  C   UNL     1       3.622   2.892  17.742  0.00  0.00    +0.000 C 
BRANCH  25  26
ATOM     26  O   UNL     1       4.708   2.776  18.659  0.00  0.00    +0.000 OA
ATOM     27  H   UNL     1       4.665   1.883  19.040  0.00  0.00    +0.000 HD
ENDBRANCH  25  26
ENDBRANCH  24  25
ENDBRANCH  22  24
ENDBRANCH  20  22
ENDBRANCH  13  20
ENDBRANCH   1  17
BRANCH   9  28
ATOM     28  C   UNL     1       1.373  13.793  20.196  0.00  0.00    +0.000 A 
ATOM     29  C   UNL     1       2.657  14.238  20.554  0.00  0.00    +0.000 A 
ATOM     30  C   UNL     1       3.678  14.254  19.613  0.00  0.00    +0.000 A 
ATOM     31  N   UNL     1       3.516  13.903  18.325  0.00  0.00    +0.000 NA
ATOM     32  C   UNL     1       2.285  13.478  17.980  0.00  0.00    +0.000 A 
ATOM     33  C   UNL     1       1.209  13.405  18.857  0.00  0.00    +0.000 A 
ENDBRANCH   9  28
TORSDOF 7
ENDMDL
MODEL 6
REMARK VINA RESULT:      -7.2      0.615      1.076
REMARK  Name = 
REMARK  7 active torsions:
REMARK  status: ('A' for Active; 'I' for Inactive)
REMARK    1  A    between atoms: S_2  and  N_4
REMARK    2  A    between atoms: S_2  and  C_8
REMARK    3  A    between atoms: N_4  and  C_5
REMARK    4  A    between atoms: C_5  and  C_6
REMARK    5  A    between atoms: C_6  and  O_7
REMARK    6  A    between atoms: C_12  and  N_13
REMARK    7  A    between atoms: C_21  and  C_22
REMARK                            x       y       z     vdW  Elec       q    Type
REMARK                         _______ _______ _______ _____ _____    ______ ____
ROOT
ATOM      1  N   UNL     1       0.959   8.517  21.485  0.00  0.00    +0.000 N 
ATOM      2  C   UNL     1       0.309   9.656  21.992  0.00  0.00    +0.000 A 
ATOM      3  C   UNL     1      -0.625   9.536  23.000  0.00  0.00    +0.000 A 
ATOM      4  C   UNL     1      -1.345  10.673  23.374  0.00  0.00    +0.000 A 
ATOM      5  C   UNL     1      -1.109  11.905  22.778  0.00  0.00    +0.000 A 
ATOM      6  N   UNL     1      -1.860  12.960  23.135  0.00  0.00    +0.000 NA
ATOM      7  C   UNL     1      -1.595  14.134  22.536  0.00  0.00    +0.000 A 
ATOM      8  C   UNL     1      -0.584  14.309  21.607  0.00  0.00    +0.000 A 
ATOM      9  C   UNL     1       0.207  13.211  21.227  0.00  0.00    +0.000 A 
ATOM     10  C   UNL     1      -0.083  11.962  21.814  0.00  0.00    +0.000 A 
ATOM     11  N   UNL     1       0.585  10.851  21.446  0.00  0.00    +0.000 NA
ATOM     12  H   UNL     1       1.556   8.105  22.192  0.00  0.00    +0.000 HD
ENDROOT
BRANCH   1  17
ATOM     13  C   UNL     1       2.851   7.277  18.518  0.00  0.00    +0.000 A 
ATOM     14  C   UNL     1       2.621   8.295  17.593  0.00  0.00    +0.000 A 
ATOM     15  C   UNL     1       1.837   9.387  17.964  0.00  0.00    +0.000 A 
ATOM     16  C   UNL     1       1.282   9.454  19.249  0.00  0.00    +0.000 A 
ATOM     17  C   UNL     1       1.476   8.418  20.171  0.00  0.00    +0.000 A 
ATOM     18  C   UNL     1       2.287   7.336  19.791  0.00  0.00    +0.000 A 
BRANCH  13  20
ATOM     19  O   UNL     1       5.163   6.387  17.655  0.00  0.00    +0.000 OA
ATOM     20  S   UNL     1       3.878   5.900  18.099  0.00  0.00    +0.000 S 
ATOM     21  O   UNL     1       3.096   4.973  17.311  0.00  0.00    +0.000 OA
BRANCH  20  22
ATOM     22  N   UNL     1       4.113   5.136  19.593  0.00  0.00    +0.000 NA
ATOM     23  H   UNL     1       4.098   5.844  20.325  0.00  0.00    +0.000 HD
BRANCH  22  24
ATOM     24  C   UNL     1       3.337   3.904  19.840  0.00  0.00    +0.000 C 
BRANCH  24  25
ATOM     25  C   UNL     1       4.063   2.694  19.249  0.00  0.00    +0.000 C 
BRANCH  25  26
ATOM     26  O   UNL     1       5.129   2.275  20.100  0.00  0.00    +0.000 OA
ATOM     27  H   UNL     1       5.624   3.074  20.349  0.00  0.00    +0.000 HD
ENDBRANCH  25  26
ENDBRANCH  24  25
ENDBRANCH  22  24
ENDBRANCH  20  22
ENDBRANCH  13  20
ENDBRANCH   1  17
BRANCH   9  28
ATOM     28  C   UNL     1       1.307  13.391  20.228  0.00  0.00    +0.000 A 
ATOM     29  C   UNL     1       2.553  13.943  20.572  0.00  0.00    +0.000 A 
ATOM     30  C   UNL     1       3.549  14.070  19.613  0.00  0.00    +0.000 A 
ATOM     31  N   UNL     1       3.394  13.731  18.321  0.00  0.00    +0.000 NA
ATOM     32  C   UNL     1       2.200  13.203  17.989  0.00  0.00    +0.000 A 
ATOM     33  C   UNL     1       1.152  13.016  18.884  0.00  0.00    +0.000 A 
ENDBRANCH   9  28
TORSDOF 7
ENDMDL
MODEL 7
REMARK VINA RESULT:      -7.0      1.496      1.890
REMARK  Name = 
REMARK  7 active torsions:
REMARK  status: ('A' for Active; 'I' for Inactive)
REMARK    1  A    between atoms: S_2  and  N_4
REMARK    2  A    between atoms: S_2  and  C_8
REMARK    3  A    between atoms: N_4  and  C_5
REMARK    4  A    between atoms: C_5  and  C_6
REMARK    5  A    between atoms: C_6  and  O_7
REMARK    6  A    between atoms: C_12  and  N_13
REMARK    7  A    between atoms: C_21  and  C_22
REMARK                            x       y       z     vdW  Elec       q    Type
REMARK                         _______ _______ _______ _____ _____    ______ ____
ROOT
ATOM      1  N   UNL     1       0.623   8.934  21.811  0.00  0.00    +0.000 N 
ATOM      2  C   UNL     1       0.012  10.151  22.163  0.00  0.00    +0.000 A 
ATOM      3  C   UNL     1      -0.967  10.186  23.135  0.00  0.00    +0.000 A 
ATOM      4  C   UNL     1      -1.642  11.388  23.351  0.00  0.00    +0.000 A 
ATOM      5  C   UNL     1      -1.322  12.535  22.637  0.00  0.00    +0.000 A 
ATOM      6  N   UNL     1      -2.032  13.657  22.845  0.00  0.00    +0.000 NA
ATOM      7  C   UNL     1      -1.685  14.745  22.135  0.00  0.00    +0.000 A 
ATOM      8  C   UNL     1      -0.630  14.770  21.239  0.00  0.00    +0.000 A 
ATOM      9  C   UNL     1       0.119  13.601  21.015  0.00  0.00    +0.000 A 
ATOM     10  C   UNL     1      -0.256  12.439  21.720  0.00  0.00    +0.000 A 
ATOM     11  N   UNL     1       0.369  11.265  21.504  0.00  0.00    +0.000 NA
ATOM     12  H   UNL     1       1.170   8.576  22.584  0.00  0.00    +0.000 HD
ENDROOT
BRANCH   1  17
ATOM     13  C   UNL     1       2.499   7.248  19.062  0.00  0.00    +0.000 A 
ATOM     14  C   UNL     1       2.428   8.202  18.047  0.00  0.00    +0.000 A 
ATOM     15  C   UNL     1       1.755   9.400  18.286  0.00  0.00    +0.000 A 
ATOM     16  C   UNL     1       1.152   9.637  19.529  0.00  0.00    +0.000 A 
ATOM     17  C   UNL     1       1.186   8.669  20.540  0.00  0.00    +0.000 A 
ATOM     18  C   UNL     1       1.887   7.477  20.293  0.00  0.00    +0.000 A 
BRANCH  13  20
ATOM     19  O   UNL     1       3.250   5.335  17.432  0.00  0.00    +0.000 OA
ATOM     20  S   UNL     1       3.383   5.738  18.812  0.00  0.00    +0.000 S 
ATOM     21  O   UNL     1       3.072   4.843  19.905  0.00  0.00    +0.000 OA
BRANCH  20  22
ATOM     22  N   UNL     1       4.996   6.200  19.052  0.00  0.00    +0.000 NA
ATOM     23  H   UNL     1       5.024   6.910  19.782  0.00  0.00    +0.000 HD
BRANCH  22  24
ATOM     24  C   UNL     1       5.994   5.115  19.139  0.00  0.00    +0.000 C 
BRANCH  24  25
ATOM     25  C   UNL     1       7.404   5.700  19.237  0.00  0.00    +0.000 C 
BRANCH  25  26
ATOM     26  O   UNL     1       7.983   5.421  20.511  0.00  0.00    +0.000 OA
ATOM     27  H   UNL     1       7.525   5.982  21.160  0.00  0.00    +0.000 HD
ENDBRANCH  25  26
ENDBRANCH  24  25
ENDBRANCH  22  24
ENDBRANCH  20  22
ENDBRANCH  13  20
ENDBRANCH   1  17
BRANCH   9  28
ATOM     28  C   UNL     1       1.265  13.621  20.052  0.00  0.00    +0.000 A 
ATOM     29  C   UNL     1       2.539  14.096  20.409  0.00  0.00    +0.000 A 
ATOM     30  C   UNL     1       3.576  14.073  19.486  0.00  0.00    +0.000 A 
ATOM     31  N   UNL     1       3.440  13.653  18.216  0.00  0.00    +0.000 NA
ATOM     32  C   UNL     1       2.220  13.198  17.872  0.00  0.00    +0.000 A 
ATOM     33  C   UNL     1       1.129  13.160  18.734  0.00  0.00    +0.000 A 
ENDBRANCH   9  28
TORSDOF 7
ENDMDL
MODEL 8
REMARK VINA RESULT:      -7.0      1.435      1.828
REMARK  Name = 
REMARK  7 active torsions:
REMARK  status: ('A' for Active; 'I' for Inactive)
REMARK    1  A    between atoms: S_2  and  N_4
REMARK    2  A    between atoms: S_2  and  C_8
REMARK    3  A    between atoms: N_4  and  C_5
REMARK    4  A    between atoms: C_5  and  C_6
REMARK    5  A    between atoms: C_6  and  O_7
REMARK    6  A    between atoms: C_12  and  N_13
REMARK    7  A    between atoms: C_21  and  C_22
REMARK                            x       y       z     vdW  Elec       q    Type
REMARK                         _______ _______ _______ _____ _____    ______ ____
ROOT
ATOM      1  N   UNL     1       0.641   9.008  21.608  0.00  0.00    +0.000 N 
ATOM      2  C   UNL     1       0.065  10.210  22.057  0.00  0.00    +0.000 A 
ATOM      3  C   UNL     1      -0.895  10.197  23.048  0.00  0.00    +0.000 A 
ATOM      4  C   UNL     1      -1.538  11.396  23.362  0.00  0.00    +0.000 A 
ATOM      5  C   UNL     1      -1.203  12.584  22.725  0.00  0.00    +0.000 A 
ATOM      6  N   UNL     1      -1.882  13.703  23.026  0.00  0.00    +0.000 NA
ATOM      7  C   UNL     1      -1.523  14.831  22.387  0.00  0.00    +0.000 A 
ATOM      8  C   UNL     1      -0.484  14.896  21.475  0.00  0.00    +0.000 A 
ATOM      9  C   UNL     1       0.233  13.730  21.154  0.00  0.00    +0.000 A 
ATOM     10  C   UNL     1      -0.157  12.529  21.782  0.00  0.00    +0.000 A 
ATOM     11  N   UNL     1       0.437  11.360  21.471  0.00  0.00    +0.000 NA
ATOM     12  H   UNL     1       1.194   8.584  22.343  0.00  0.00    +0.000 HD
ENDROOT
BRANCH   1  17
ATOM     13  C   UNL     1       2.494   7.520  18.732  0.00  0.00    +0.000 A 
ATOM     14  C   UNL     1       2.356   8.515  17.764  0.00  0.00    +0.000 A 
ATOM     15  C   UNL     1       1.647   9.674  18.077  0.00  0.00    +0.000 A 
ATOM     16  C   UNL     1       1.073   9.832  19.346  0.00  0.00    +0.000 A 
ATOM     17  C   UNL     1       1.174   8.821  20.310  0.00  0.00    +0.000 A 
ATOM     18  C   UNL     1       1.912   7.670  19.990  0.00  0.00    +0.000 A 
BRANCH  13  20
ATOM     19  O   UNL     1       2.582   5.110  17.700  0.00  0.00    +0.000 OA
ATOM     20  S   UNL     1       3.426   6.058  18.387  0.00  0.00    +0.000 S 
ATOM     21  O   UNL     1       4.169   5.702  19.577  0.00  0.00    +0.000 OA
BRANCH  20  22
ATOM     22  N   UNL     1       4.586   6.602  17.278  0.00  0.00    +0.000 NA
ATOM     23  H   UNL     1       4.508   7.615  17.197  0.00  0.00    +0.000 HD
BRANCH  22  24
ATOM     24  C   UNL     1       5.948   6.047  17.412  0.00  0.00    +0.000 C 
BRANCH  24  25
ATOM     25  C   UNL     1       6.216   5.028  16.302  0.00  0.00    +0.000 C 
BRANCH  25  26
ATOM     26  O   UNL     1       5.064   4.220  16.066  0.00  0.00    +0.000 OA
ATOM     27  H   UNL     1       5.354   3.463  15.529  0.00  0.00    +0.000 HD
ENDBRANCH  25  26
ENDBRANCH  24  25
ENDBRANCH  22  24
ENDBRANCH  20  22
ENDBRANCH  13  20
ENDBRANCH   1  17
BRANCH   9  28
ATOM     28  C   UNL     1       1.362  13.793  20.173  0.00  0.00    +0.000 A 
ATOM     29  C   UNL     1       2.654  14.207  20.539  0.00  0.00    +0.000 A 
ATOM     30  C   UNL     1       3.674  14.227  19.596  0.00  0.00    +0.000 A 
ATOM     31  N   UNL     1       3.503  13.907  18.301  0.00  0.00    +0.000 NA
ATOM     32  C   UNL     1       2.265  13.512  17.949  0.00  0.00    +0.000 A 
ATOM     33  C   UNL     1       1.189  13.437  18.827  0.00  0.00    +0.000 A 
ENDBRANCH   9  28
TORSDOF 7
ENDMDL
MODEL 9
REMARK VINA RESULT:      -6.9      4.590      6.434
REMARK  Name = 
REMARK  7 active torsions:
REMARK  status: ('A' for Active; 'I' for Inactive)
REMARK    1  A    between atoms: S_2  and  N_4
REMARK    2  A    between atoms: S_2  and  C_8
REMARK    3  A    between atoms: N_4  and  C_5
REMARK    4  A    between atoms: C_5  and  C_6
REMARK    5  A    between atoms: C_6  and  O_7
REMARK    6  A    between atoms: C_12  and  N_13
REMARK    7  A    between atoms: C_21  and  C_22
REMARK                            x       y       z     vdW  Elec       q    Type
REMARK                         _______ _______ _______ _____ _____    ______ ____
ROOT
ATOM      1  N   UNL     1      -2.493  10.852  17.984  0.00  0.00    +0.000 N 
ATOM      2  C   UNL     1      -3.755  11.471  18.017  0.00  0.00    +0.000 A 
ATOM      3  C   UNL     1      -4.483  11.637  16.857  0.00  0.00    +0.000 A 
ATOM      4  C   UNL     1      -5.663  12.380  16.917  0.00  0.00    +0.000 A 
ATOM      5  C   UNL     1      -6.122  12.912  18.114  0.00  0.00    +0.000 A 
ATOM      6  N   UNL     1      -7.237  13.661  18.114  0.00  0.00    +0.000 NA
ATOM      7  C   UNL     1      -7.647  14.154  19.297  0.00  0.00    +0.000 A 
ATOM      8  C   UNL     1      -7.001  13.904  20.495  0.00  0.00    +0.000 A 
ATOM      9  C   UNL     1      -5.834  13.122  20.505  0.00  0.00    +0.000 A 
ATOM     10  C   UNL     1      -5.365  12.630  19.269  0.00  0.00    +0.000 A 
ATOM     11  N   UNL     1      -4.214  11.934  19.192  0.00  0.00    +0.000 NA
ATOM     12  H   UNL     1      -2.583   9.877  17.726  0.00  0.00    +0.000 HD
ENDROOT
BRANCH   1  17
ATOM     13  C   UNL     1      -0.189  10.454  20.892  0.00  0.00    +0.000 A 
ATOM     14  C   UNL     1       0.498  11.667  20.874  0.00  0.00    +0.000 A 
ATOM     15  C   UNL     1       0.189  12.609  19.893  0.00  0.00    +0.000 A 
ATOM     16  C   UNL     1      -0.794  12.334  18.933  0.00  0.00    +0.000 A 
ATOM     17  C   UNL     1      -1.462  11.103  18.921  0.00  0.00    +0.000 A 
ATOM     18  C   UNL     1      -1.158  10.174  19.929  0.00  0.00    +0.000 A 
BRANCH  13  20
ATOM     19  O   UNL     1      -0.828   8.189  22.053  0.00  0.00    +0.000 OA
ATOM     20  S   UNL     1       0.142   9.255  22.148  0.00  0.00    +0.000 S 
ATOM     21  O   UNL     1       0.392   9.954  23.389  0.00  0.00    +0.000 OA
BRANCH  20  22
ATOM     22  N   UNL     1       1.642   8.620  21.678  0.00  0.00    +0.000 NA
ATOM     23  H   UNL     1       2.042   8.115  22.468  0.00  0.00    +0.000 HD
BRANCH  22  24
ATOM     24  C   UNL     1       1.700   7.953  20.362  0.00  0.00    +0.000 C 
BRANCH  24  25
ATOM     25  C   UNL     1       1.836   6.440  20.541  0.00  0.00    +0.000 C 
BRANCH  25  26
ATOM     26  O   UNL     1       3.150   6.004  20.196  0.00  0.00    +0.000 OA
ATOM     27  H   UNL     1       3.753   6.355  20.873  0.00  0.00    +0.000 HD
ENDBRANCH  25  26
ENDBRANCH  24  25
ENDBRANCH  22  24
ENDBRANCH  20  22
ENDBRANCH  13  20
ENDBRANCH   1  17
BRANCH   9  28
ATOM     28  C   UNL     1      -5.132  12.841  21.798  0.00  0.00    +0.000 A 
ATOM     29  C   UNL     1      -3.753  12.578  21.863  0.00  0.00    +0.000 A 
ATOM     30  C   UNL     1      -3.144  12.344  23.089  0.00  0.00    +0.000 A 
ATOM     31  N   UNL     1      -3.805  12.309  24.260  0.00  0.00    +0.000 NA
ATOM     32  C   UNL     1      -5.128  12.560  24.199  0.00  0.00    +0.000 A 
ATOM     33  C   UNL     1      -5.819  12.827  23.022  0.00  0.00    +0.000 A 
ENDBRANCH   9  28
TORSDOF 7
ENDMDL
