MODEL 1
REMARK VINA RESULT:      -8.1      0.000      0.000
REMARK  Name = 
REMARK  12 active torsions:
REMARK  status: ('A' for Active; 'I' for Inactive)
REMARK    1  A    between atoms: C_1  and  C_2
REMARK    2  A    between atoms: C_5  and  S_6
REMARK    3  A    between atoms: S_6  and  N_9
REMARK    4  A    between atoms: N_9  and  C_10
REMARK    5  A    between atoms: C_10  and  C_11
REMARK    6  A    between atoms: C_10  and  C_15
REMARK    7  A    between atoms: C_11  and  C_12
REMARK    8  A    between atoms: C_12  and  C_13
REMARK    9  A    between atoms: C_12  and  C_14
REMARK   10  A    between atoms: N_20  and  C_21
REMARK   11  A    between atoms: C_21  and  C_22
REMARK   12  A    between atoms: C_23  and  C_24
REMARK                            x       y       z     vdW  Elec       q    Type
REMARK                         _______ _______ _______ _____ _____    ______ ____
ROOT
ATOM      1  C   UNL     1       3.020   5.933  18.394  0.00  0.00    +0.000 C 
ENDROOT
BRANCH   1   2
ATOM      2  C   UNL     1       2.705   7.444  18.267  0.00  0.00    +0.000 C 
ATOM      3  O   UNL     1       3.015   8.051  17.236  0.00  0.00    +0.000 OA
ATOM      4  N   UNL     1       2.094   8.089  19.332  0.00  0.00    +0.000 N 
ATOM      5  C   UNL     1       1.490   9.405  19.111  0.00  0.00    +0.000 C 
ATOM      6  C   UNL     1       0.037   9.417  19.632  0.00  0.00    +0.000 C 
ATOM      7  N   UNL     1      -0.124   8.983  21.047  0.00  0.00    +0.000 NA
ATOM      8  C   UNL     1       0.540   7.676  21.228  0.00  0.00    +0.000 C 
ATOM      9  C   UNL     1       1.988   7.609  20.710  0.00  0.00    +0.000 C 
BRANCH   7  10
ATOM     10  C   UNL     1       0.385   9.972  22.004  0.00  0.00    +0.000 C 
BRANCH  10  11
ATOM     11  C   UNL     1      -0.729  10.762  22.622  0.00  0.00    +0.000 C 
ATOM     12  C   UNL     1      -0.822  12.099  22.554  0.00  0.00    +0.000 C 
BRANCH  12  13
ATOM     13  C   UNL     1      -1.894  12.891  23.172  0.00  0.00    +0.000 A 
ATOM     14  C   UNL     1      -3.091  12.249  23.514  0.00  0.00    +0.000 A 
ATOM     15  C   UNL     1      -4.141  12.960  24.099  0.00  0.00    +0.000 A 
ATOM     16  C   UNL     1      -4.000  14.320  24.361  0.00  0.00    +0.000 A 
ATOM     17  C   UNL     1      -2.805  14.966  24.053  0.00  0.00    +0.000 A 
ATOM     18  C   UNL     1      -1.755  14.253  23.470  0.00  0.00    +0.000 A 
ENDBRANCH  12  13
ENDBRANCH  10  11
ENDBRANCH   7  10
ENDBRANCH   1   2
BRANCH   1  19
ATOM     19  N   UNL     1       3.976   5.693  19.517  0.00  0.00    +0.000 NA
ATOM     20  H   UNL     1       4.325   6.566  19.923  0.00  0.00    +0.000 HD
BRANCH  19  21
ATOM     21  S   UNL     1       5.343   4.744  19.224  0.00  0.00    +0.000 S 
ATOM     22  O   UNL     1       4.974   3.393  19.590  0.00  0.00    +0.000 OA
ATOM     23  O   UNL     1       6.508   5.404  19.772  0.00  0.00    +0.000 OA
BRANCH  21  28
ATOM     24  C   UNL     1       6.654   4.263  13.336  0.00  0.00    +0.000 C 
ATOM     25  C   UNL     1       6.207   4.487  14.752  0.00  0.00    +0.000 A 
ATOM     26  C   UNL     1       6.799   5.485  15.533  0.00  0.00    +0.000 A 
ATOM     27  C   UNL     1       6.467   5.618  16.881  0.00  0.00    +0.000 A 
ATOM     28  C   UNL     1       5.540   4.746  17.458  0.00  0.00    +0.000 A 
ATOM     29  C   UNL     1       4.904   3.770  16.681  0.00  0.00    +0.000 A 
ATOM     30  C   UNL     1       5.237   3.650  15.329  0.00  0.00    +0.000 A 
ENDBRANCH  21  28
ENDBRANCH  19  21
ENDBRANCH   1  19
BRANCH   1  31
ATOM     31  C   UNL     1       1.697   5.206  18.721  0.00  0.00    +0.000 C 
BRANCH  31  32
ATOM     32  C   UNL     1       1.805   3.812  19.368  0.00  0.00    +0.000 C 
ATOM     33  C   UNL     1       1.120   3.844  20.741  0.00  0.00    +0.000 C 
ATOM     34  C   UNL     1       1.192   2.696  18.522  0.00  0.00    +0.000 C 
ENDBRANCH  31  32
ENDBRANCH   1  31
TORSDOF 9
ENDMDL
MODEL 2
REMARK VINA RESULT:      -8.0      2.629     10.577
REMARK  Name = 
REMARK  12 active torsions:
REMARK  status: ('A' for Active; 'I' for Inactive)
REMARK    1  A    between atoms: C_1  and  C_2
REMARK    2  A    between atoms: C_5  and  S_6
REMARK    3  A    between atoms: S_6  and  N_9
REMARK    4  A    between atoms: N_9  and  C_10
REMARK    5  A    between atoms: C_10  and  C_11
REMARK    6  A    between atoms: C_10  and  C_15
REMARK    7  A    between atoms: C_11  and  C_12
REMARK    8  A    between atoms: C_12  and  C_13
REMARK    9  A    between atoms: C_12  and  C_14
REMARK   10  A    between atoms: N_20  and  C_21
REMARK   11  A    between atoms: C_21  and  C_22
REMARK   12  A    between atoms: C_23  and  C_24
REMARK                            x       y       z     vdW  Elec       q    Type
REMARK                         _______ _______ _______ _____ _____    ______ ____
ROOT
ATOM      1  C   UNL     1       0.899   9.271  19.184  0.00  0.00    +0.000 C 
ENDROOT
BRANCH   1   2
ATOM      2  C   UNL     1       1.953   8.893  18.114  0.00  0.00    +0.000 C 
ATOM      3  O   UNL     1       2.270   9.715  17.247  0.00  0.00    +0.000 OA
ATOM      4  N   UNL     1       2.507   7.622  18.145  0.00  0.00    +0.000 N 
ATOM      5  C   UNL     1       3.725   7.361  17.375  0.00  0.00    +0.000 C 
ATOM      6  C   UNL     1       4.793   6.706  18.277  0.00  0.00    +0.000 C 
ATOM      7  N   UNL     1       4.341   5.484  18.997  0.00  0.00    +0.000 NA
ATOM      8  C   UNL     1       3.088   5.787  19.718  0.00  0.00    +0.000 C 
ATOM      9  C   UNL     1       1.995   6.455  18.864  0.00  0.00    +0.000 C 
BRANCH   7  10
ATOM     10  C   UNL     1       4.173   4.331  18.106  0.00  0.00    +0.000 C 
BRANCH  10  11
ATOM     11  C   UNL     1       5.142   4.375  16.962  0.00  0.00    +0.000 C 
ATOM     12  C   UNL     1       4.775   4.325  15.672  0.00  0.00    +0.000 C 
BRANCH  12  13
ATOM     13  C   UNL     1       5.712   4.345  14.540  0.00  0.00    +0.000 A 
ATOM     14  C   UNL     1       5.406   3.583  13.404  0.00  0.00    +0.000 A 
ATOM     15  C   UNL     1       6.267   3.565  12.304  0.00  0.00    +0.000 A 
ATOM     16  C   UNL     1       7.438   4.320  12.324  0.00  0.00    +0.000 A 
ATOM     17  C   UNL     1       7.740   5.103  13.435  0.00  0.00    +0.000 A 
ATOM     18  C   UNL     1       6.877   5.122  14.533  0.00  0.00    +0.000 A 
ENDBRANCH  12  13
ENDBRANCH  10  11
ENDBRANCH   7  10
ENDBRANCH   1   2
BRANCH   1  19
ATOM     19  N   UNL     1       1.570   9.684  20.454  0.00  0.00    +0.000 NA
ATOM     20  H   UNL     1       2.504   9.274  20.550  0.00  0.00    +0.000 HD
BRANCH  19  21
ATOM     21  S   UNL     1       0.783   9.383  21.917  0.00  0.00    +0.000 S 
ATOM     22  O   UNL     1       1.828   9.262  22.913  0.00  0.00    +0.000 OA
ATOM     23  O   UNL     1      -0.218   8.358  21.718  0.00  0.00    +0.000 OA
BRANCH  21  28
ATOM     24  C   UNL     1      -2.628  14.344  22.523  0.00  0.00    +0.000 C 
ATOM     25  C   UNL     1      -1.699  13.164  22.508  0.00  0.00    +0.000 A 
ATOM     26  C   UNL     1      -0.520  13.199  21.756  0.00  0.00    +0.000 A 
ATOM     27  C   UNL     1       0.283  12.065  21.649  0.00  0.00    +0.000 A 
ATOM     28  C   UNL     1      -0.092  10.883  22.293  0.00  0.00    +0.000 A 
ATOM     29  C   UNL     1      -1.243  10.842  23.087  0.00  0.00    +0.000 A 
ATOM     30  C   UNL     1      -2.039  11.987  23.195  0.00  0.00    +0.000 A 
ENDBRANCH  21  28
ENDBRANCH  19  21
ENDBRANCH   1  19
BRANCH   1  31
ATOM     31  C   UNL     1       0.098  10.477  18.646  0.00  0.00    +0.000 C 
BRANCH  31  32
ATOM     32  C   UNL     1      -1.432  10.324  18.568  0.00  0.00    +0.000 C 
ATOM     33  C   UNL     1      -2.086  11.668  18.915  0.00  0.00    +0.000 C 
ATOM     34  C   UNL     1      -1.931   9.855  17.201  0.00  0.00    +0.000 C 
ENDBRANCH  31  32
ENDBRANCH   1  31
TORSDOF 9
ENDMDL
MODEL 3
REMARK VINA RESULT:      -7.8      0.817      1.023
REMARK  Name = 
REMARK  12 active torsions:
REMARK  status: ('A' for Active; 'I' for Inactive)
REMARK    1  A    between atoms: C_1  and  C_2
REMARK    2  A    between atoms: C_5  and  S_6
REMARK    3  A    between atoms: S_6  and  N_9
REMARK    4  A    between atoms: N_9  and  C_10
REMARK    5  A    between atoms: C_10  and  C_11
REMARK    6  A    between atoms: C_10  and  C_15
REMARK    7  A    between atoms: C_11  and  C_12
REMARK    8  A    between atoms: C_12  and  C_13
REMARK    9  A    between atoms: C_12  and  C_14
REMARK   10  A    between atoms: N_20  and  C_21
REMARK   11  A    between atoms: C_21  and  C_22
REMARK   12  A    between atoms: C_23  and  C_24
REMARK                            x       y       z     vdW  Elec       q    Type
REMARK                         _______ _______ _______ _____ _____    ______ ____
ROOT
ATOM      1  C   UNL     1       2.846   5.806  19.004  0.00  0.00    +0.000 C 
ENDROOT
BRANCH   1   2
ATOM      2  C   UNL     1       2.651   7.227  18.419  0.00  0.00    +0.000 C 
ATOM      3  O   UNL     1       3.024   7.472  17.266  0.00  0.00    +0.000 OA
ATOM      4  N   UNL     1       2.073   8.203  19.217  0.00  0.00    +0.000 N 
ATOM      5  C   UNL     1       1.576   9.429  18.589  0.00  0.00    +0.000 C 
ATOM      6  C   UNL     1       0.120   9.697  19.026  0.00  0.00    +0.000 C 
ATOM      7  N   UNL     1      -0.097   9.722  20.498  0.00  0.00    +0.000 NA
ATOM      8  C   UNL     1       0.461   8.487  21.088  0.00  0.00    +0.000 C 
ATOM      9  C   UNL     1       1.908   8.168  20.670  0.00  0.00    +0.000 C 
BRANCH   7  10
ATOM     10  C   UNL     1       0.470  10.915  21.135  0.00  0.00    +0.000 C 
BRANCH  10  11
ATOM     11  C   UNL     1      -0.540  11.610  21.998  0.00  0.00    +0.000 C 
ATOM     12  C   UNL     1      -1.749  12.000  21.564  0.00  0.00    +0.000 C 
BRANCH  12  13
ATOM     13  C   UNL     1      -2.742  12.702  22.388  0.00  0.00    +0.000 A 
ATOM     14  C   UNL     1      -4.084  12.681  21.984  0.00  0.00    +0.000 A 
ATOM     15  C   UNL     1      -5.064  13.336  22.732  0.00  0.00    +0.000 A 
ATOM     16  C   UNL     1      -4.715  14.010  23.900  0.00  0.00    +0.000 A 
ATOM     17  C   UNL     1      -3.390  14.016  24.328  0.00  0.00    +0.000 A 
ATOM     18  C   UNL     1      -2.410  13.358  23.581  0.00  0.00    +0.000 A 
ENDBRANCH  12  13
ENDBRANCH  10  11
ENDBRANCH   7  10
ENDBRANCH   1   2
BRANCH   1  19
ATOM     19  N   UNL     1       4.107   5.741  19.803  0.00  0.00    +0.000 NA
ATOM     20  H   UNL     1       4.607   6.634  19.811  0.00  0.00    +0.000 HD
BRANCH  19  21
ATOM     21  S   UNL     1       5.258   4.572  19.400  0.00  0.00    +0.000 S 
ATOM     22  O   UNL     1       4.617   3.292  19.616  0.00  0.00    +0.000 OA
ATOM     23  O   UNL     1       6.523   4.918  20.011  0.00  0.00    +0.000 OA
BRANCH  21  28
ATOM     24  C   UNL     1       6.598   4.529  13.499  0.00  0.00    +0.000 C 
ATOM     25  C   UNL     1       6.158   4.663  14.928  0.00  0.00    +0.000 A 
ATOM     26  C   UNL     1       6.851   5.500  15.809  0.00  0.00    +0.000 A 
ATOM     27  C   UNL     1       6.515   5.536  17.162  0.00  0.00    +0.000 A 
ATOM     28  C   UNL     1       5.482   4.727  17.644  0.00  0.00    +0.000 A 
ATOM     29  C   UNL     1       4.748   3.917  16.770  0.00  0.00    +0.000 A 
ATOM     30  C   UNL     1       5.087   3.894  15.414  0.00  0.00    +0.000 A 
ENDBRANCH  21  28
ENDBRANCH  19  21
ENDBRANCH   1  19
BRANCH   1  31
ATOM     31  C   UNL     1       1.658   5.523  19.950  0.00  0.00    +0.000 C 
BRANCH  31  32
ATOM     32  C   UNL     1       1.031   4.118  19.886  0.00  0.00    +0.000 C 
ATOM     33  C   UNL     1       1.398   3.467  18.547  0.00  0.00    +0.000 C 
ATOM     34  C   UNL     1       1.463   3.203  21.031  0.00  0.00    +0.000 C 
ENDBRANCH  31  32
ENDBRANCH   1  31
TORSDOF 9
ENDMDL
MODEL 4
REMARK VINA RESULT:      -7.8      1.594      2.400
REMARK  Name = 
REMARK  12 active torsions:
REMARK  status: ('A' for Active; 'I' for Inactive)
REMARK    1  A    between atoms: C_1  and  C_2
REMARK    2  A    between atoms: C_5  and  S_6
REMARK    3  A    between atoms: S_6  and  N_9
REMARK    4  A    between atoms: N_9  and  C_10
REMARK    5  A    between atoms: C_10  and  C_11
REMARK    6  A    between atoms: C_10  and  C_15
REMARK    7  A    between atoms: C_11  and  C_12
REMARK    8  A    between atoms: C_12  and  C_13
REMARK    9  A    between atoms: C_12  and  C_14
REMARK   10  A    between atoms: N_20  and  C_21
REMARK   11  A    between atoms: C_21  and  C_22
REMARK   12  A    between atoms: C_23  and  C_24
REMARK                            x       y       z     vdW  Elec       q    Type
REMARK                         _______ _______ _______ _____ _____    ______ ____
ROOT
ATOM      1  C   UNL     1       2.406   5.637  19.178  0.00  0.00    +0.000 C 
ENDROOT
BRANCH   1   2
ATOM      2  C   UNL     1       2.278   7.113  18.725  0.00  0.00    +0.000 C 
ATOM      3  O   UNL     1       2.624   7.437  17.584  0.00  0.00    +0.000 OA
ATOM      4  N   UNL     1       1.790   8.047  19.627  0.00  0.00    +0.000 N 
ATOM      5  C   UNL     1       1.347   9.350  19.128  0.00  0.00    +0.000 C 
ATOM      6  C   UNL     1      -0.074   9.662  19.645  0.00  0.00    +0.000 C 
ATOM      7  N   UNL     1      -0.236   9.570  21.122  0.00  0.00    +0.000 NA
ATOM      8  C   UNL     1       0.266   8.258  21.580  0.00  0.00    +0.000 C 
ATOM      9  C   UNL     1       1.675   7.894  21.078  0.00  0.00    +0.000 C 
BRANCH   7  10
ATOM     10  C   UNL     1       0.426  10.668  21.835  0.00  0.00    +0.000 C 
BRANCH  10  11
ATOM     11  C   UNL     1      -0.541  11.762  22.178  0.00  0.00    +0.000 C 
ATOM     12  C   UNL     1      -1.570  11.608  23.026  0.00  0.00    +0.000 C 
BRANCH  12  13
ATOM     13  C   UNL     1      -2.539  12.662  23.357  0.00  0.00    +0.000 A 
ATOM     14  C   UNL     1      -2.057  13.906  23.785  0.00  0.00    +0.000 A 
ATOM     15  C   UNL     1      -2.939  14.937  24.116  0.00  0.00    +0.000 A 
ATOM     16  C   UNL     1      -4.313  14.739  24.010  0.00  0.00    +0.000 A 
ATOM     17  C   UNL     1      -4.805  13.517  23.559  0.00  0.00    +0.000 A 
ATOM     18  C   UNL     1      -3.923  12.487  23.226  0.00  0.00    +0.000 A 
ENDBRANCH  12  13
ENDBRANCH  10  11
ENDBRANCH   7  10
ENDBRANCH   1   2
BRANCH   1  19
ATOM     19  N   UNL     1       3.769   5.381  19.736  0.00  0.00    +0.000 NA
ATOM     20  H   UNL     1       4.241   6.244  20.020  0.00  0.00    +0.000 HD
BRANCH  19  21
ATOM     21  S   UNL     1       4.883   4.538  18.787  0.00  0.00    +0.000 S 
ATOM     22  O   UNL     1       4.187   4.200  17.563  0.00  0.00    +0.000 OA
ATOM     23  O   UNL     1       5.547   3.542  19.601  0.00  0.00    +0.000 OA
BRANCH  21  28
ATOM     24  C   UNL     1       8.713   9.118  17.798  0.00  0.00    +0.000 C 
ATOM     25  C   UNL     1       7.847   7.898  17.927  0.00  0.00    +0.000 A 
ATOM     26  C   UNL     1       6.669   7.783  17.181  0.00  0.00    +0.000 A 
ATOM     27  C   UNL     1       5.807   6.706  17.385  0.00  0.00    +0.000 A 
ATOM     28  C   UNL     1       6.117   5.737  18.343  0.00  0.00    +0.000 A 
ATOM     29  C   UNL     1       7.314   5.811  19.065  0.00  0.00    +0.000 A 
ATOM     30  C   UNL     1       8.176   6.890  18.849  0.00  0.00    +0.000 A 
ENDBRANCH  21  28
ENDBRANCH  19  21
ENDBRANCH   1  19
BRANCH   1  31
ATOM     31  C   UNL     1       1.372   5.401  20.300  0.00  0.00    +0.000 C 
BRANCH  31  32
ATOM     32  C   UNL     1       0.943   3.945  20.563  0.00  0.00    +0.000 C 
ATOM     33  C   UNL     1       0.944   3.176  19.236  0.00  0.00    +0.000 C 
ATOM     34  C   UNL     1       1.834   3.218  21.571  0.00  0.00    +0.000 C 
ENDBRANCH  31  32
ENDBRANCH   1  31
TORSDOF 9
ENDMDL
MODEL 5
REMARK VINA RESULT:      -7.5      1.863      2.586
REMARK  Name = 
REMARK  12 active torsions:
REMARK  status: ('A' for Active; 'I' for Inactive)
REMARK    1  A    between atoms: C_1  and  C_2
REMARK    2  A    between atoms: C_5  and  S_6
REMARK    3  A    between atoms: S_6  and  N_9
REMARK    4  A    between atoms: N_9  and  C_10
REMARK    5  A    between atoms: C_10  and  C_11
REMARK    6  A    between atoms: C_10  and  C_15
REMARK    7  A    between atoms: C_11  and  C_12
REMARK    8  A    between atoms: C_12  and  C_13
REMARK    9  A    between atoms: C_12  and  C_14
REMARK   10  A    between atoms: N_20  and  C_21
REMARK   11  A    between atoms: C_21  and  C_22
REMARK   12  A    between atoms: C_23  and  C_24
REMARK                            x       y       z     vdW  Elec       q    Type
REMARK                         _______ _______ _______ _____ _____    ______ ____
ROOT
ATOM      1  C   UNL     1       4.292   5.418  18.729  0.00  0.00    +0.000 C 
ENDROOT
BRANCH   1   2
ATOM      2  C   UNL     1       3.091   5.792  19.633  0.00  0.00    +0.000 C 
ATOM      3  O   UNL     1       2.834   5.106  20.629  0.00  0.00    +0.000 OA
ATOM      4  N   UNL     1       2.313   6.887  19.288  0.00  0.00    +0.000 N 
ATOM      5  C   UNL     1       1.402   7.453  20.286  0.00  0.00    +0.000 C 
ATOM      6  C   UNL     1       1.627   8.976  20.407  0.00  0.00    +0.000 C 
ATOM      7  N   UNL     1       1.548   9.724  19.123  0.00  0.00    +0.000 NA
ATOM      8  C   UNL     1       2.447   9.088  18.138  0.00  0.00    +0.000 C 
ATOM      9  C   UNL     1       2.272   7.566  17.992  0.00  0.00    +0.000 C 
BRANCH   7  10
ATOM     10  C   UNL     1       0.178   9.817  18.605  0.00  0.00    +0.000 C 
BRANCH  10  11
ATOM     11  C   UNL     1      -0.778  10.282  19.662  0.00  0.00    +0.000 C 
ATOM     12  C   UNL     1      -1.032  11.575  19.920  0.00  0.00    +0.000 C 
BRANCH  12  13
ATOM     13  C   UNL     1      -1.949  12.050  20.966  0.00  0.00    +0.000 A 
ATOM     14  C   UNL     1      -3.058  12.819  20.587  0.00  0.00    +0.000 A 
ATOM     15  C   UNL     1      -3.955  13.297  21.544  0.00  0.00    +0.000 A 
ATOM     16  C   UNL     1      -3.760  13.000  22.890  0.00  0.00    +0.000 A 
ATOM     17  C   UNL     1      -2.678  12.214  23.279  0.00  0.00    +0.000 A 
ATOM     18  C   UNL     1      -1.783  11.734  22.320  0.00  0.00    +0.000 A 
ENDBRANCH  12  13
ENDBRANCH  10  11
ENDBRANCH   7  10
ENDBRANCH   1   2
BRANCH   1  19
ATOM     19  N   UNL     1       5.487   6.242  19.085  0.00  0.00    +0.000 NA
ATOM     20  H   UNL     1       5.336   7.240  18.910  0.00  0.00    +0.000 HD
BRANCH  19  21
ATOM     21  S   UNL     1       6.968   5.867  18.366  0.00  0.00    +0.000 S 
ATOM     22  O   UNL     1       7.436   4.666  19.025  0.00  0.00    +0.000 OA
ATOM     23  O   UNL     1       7.774   7.066  18.279  0.00  0.00    +0.000 OA
BRANCH  21  28
ATOM     24  C   UNL     1       4.999   3.850  13.011  0.00  0.00    +0.000 C 
ATOM     25  C   UNL     1       5.612   4.423  14.257  0.00  0.00    +0.000 A 
ATOM     26  C   UNL     1       6.528   3.676  15.005  0.00  0.00    +0.000 A 
ATOM     27  C   UNL     1       7.010   4.160  16.220  0.00  0.00    +0.000 A 
ATOM     28  C   UNL     1       6.571   5.398  16.699  0.00  0.00    +0.000 A 
ATOM     29  C   UNL     1       5.690   6.180  15.942  0.00  0.00    +0.000 A 
ATOM     30  C   UNL     1       5.219   5.689  14.721  0.00  0.00    +0.000 A 
ENDBRANCH  21  28
ENDBRANCH  19  21
ENDBRANCH   1  19
BRANCH   1  31
ATOM     31  C   UNL     1       4.631   3.935  18.992  0.00  0.00    +0.000 C 
BRANCH  31  32
ATOM     32  C   UNL     1       4.120   2.906  17.967  0.00  0.00    +0.000 C 
ATOM     33  C   UNL     1       3.574   1.683  18.715  0.00  0.00    +0.000 C 
ATOM     34  C   UNL     1       3.039   3.456  17.036  0.00  0.00    +0.000 C 
ENDBRANCH  31  32
ENDBRANCH   1  31
TORSDOF 9
ENDMDL
MODEL 6
REMARK VINA RESULT:      -7.4      0.860      1.433
REMARK  Name = 
REMARK  12 active torsions:
REMARK  status: ('A' for Active; 'I' for Inactive)
REMARK    1  A    between atoms: C_1  and  C_2
REMARK    2  A    between atoms: C_5  and  S_6
REMARK    3  A    between atoms: S_6  and  N_9
REMARK    4  A    between atoms: N_9  and  C_10
REMARK    5  A    between atoms: C_10  and  C_11
REMARK    6  A    between atoms: C_10  and  C_15
REMARK    7  A    between atoms: C_11  and  C_12
REMARK    8  A    between atoms: C_12  and  C_13
REMARK    9  A    between atoms: C_12  and  C_14
REMARK   10  A    between atoms: N_20  and  C_21
REMARK   11  A    between atoms: C_21  and  C_22
REMARK   12  A    between atoms: C_23  and  C_24
REMARK                            x       y       z     vdW  Elec       q    Type
REMARK                         _______ _______ _______ _____ _____    ______ ____
ROOT
ATOM      1  C   UNL     1       3.379   5.757  18.001  0.00  0.00    +0.000 C 
ENDROOT
BRANCH   1   2
ATOM      2  C   UNL     1       3.234   7.247  17.601  0.00  0.00    +0.000 C 
ATOM      3  O   UNL     1       3.690   7.640  16.522  0.00  0.00    +0.000 OA
ATOM      4  N   UNL     1       2.607   8.115  18.482  0.00  0.00    +0.000 N 
ATOM      5  C   UNL     1       2.164   9.423  17.994  0.00  0.00    +0.000 C 
ATOM      6  C   UNL     1       0.682   9.651  18.361  0.00  0.00    +0.000 C 
ATOM      7  N   UNL     1       0.360   9.481  19.804  0.00  0.00    +0.000 NA
ATOM      8  C   UNL     1       0.868   8.170  20.258  0.00  0.00    +0.000 C 
ATOM      9  C   UNL     1       2.339   7.887  19.902  0.00  0.00    +0.000 C 
BRANCH   7  10
ATOM     10  C   UNL     1       0.889  10.568  20.634  0.00  0.00    +0.000 C 
BRANCH  10  11
ATOM     11  C   UNL     1      -0.199  11.503  21.073  0.00  0.00    +0.000 C 
ATOM     12  C   UNL     1      -0.824  11.416  22.258  0.00  0.00    +0.000 C 
BRANCH  12  13
ATOM     13  C   UNL     1      -1.906  12.308  22.695  0.00  0.00    +0.000 A 
ATOM     14  C   UNL     1      -1.980  13.594  22.141  0.00  0.00    +0.000 A 
ATOM     15  C   UNL     1      -2.988  14.480  22.528  0.00  0.00    +0.000 A 
ATOM     16  C   UNL     1      -3.940  14.086  23.465  0.00  0.00    +0.000 A 
ATOM     17  C   UNL     1      -3.895  12.802  24.002  0.00  0.00    +0.000 A 
ATOM     18  C   UNL     1      -2.889  11.915  23.613  0.00  0.00    +0.000 A 
ENDBRANCH  12  13
ENDBRANCH  10  11
ENDBRANCH   7  10
ENDBRANCH   1   2
BRANCH   1  19
ATOM     19  N   UNL     1       4.169   5.631  19.263  0.00  0.00    +0.000 NA
ATOM     20  H   UNL     1       4.491   6.538  19.611  0.00  0.00    +0.000 HD
BRANCH  19  21
ATOM     21  S   UNL     1       5.528   4.628  19.267  0.00  0.00    +0.000 S 
ATOM     22  O   UNL     1       5.071   3.343  19.755  0.00  0.00    +0.000 OA
ATOM     23  O   UNL     1       6.639   5.333  19.868  0.00  0.00    +0.000 OA
BRANCH  21  28
ATOM     24  C   UNL     1       6.424   4.451  13.285  0.00  0.00    +0.000 C 
ATOM     25  C   UNL     1       6.301   4.361  14.780  0.00  0.00    +0.000 A 
ATOM     26  C   UNL     1       5.253   3.641  15.363  0.00  0.00    +0.000 A 
ATOM     27  C   UNL     1       5.072   3.653  16.746  0.00  0.00    +0.000 A 
ATOM     28  C   UNL     1       5.938   4.393  17.555  0.00  0.00    +0.000 A 
ATOM     29  C   UNL     1       7.019   5.083  16.993  0.00  0.00    +0.000 A 
ATOM     30  C   UNL     1       7.198   5.058  15.606  0.00  0.00    +0.000 A 
ENDBRANCH  21  28
ENDBRANCH  19  21
ENDBRANCH   1  19
BRANCH   1  31
ATOM     31  C   UNL     1       1.961   5.203  18.260  0.00  0.00    +0.000 C 
BRANCH  31  32
ATOM     32  C   UNL     1       1.846   3.972  19.178  0.00  0.00    +0.000 C 
ATOM     33  C   UNL     1       1.004   4.343  20.406  0.00  0.00    +0.000 C 
ATOM     34  C   UNL     1       1.233   2.752  18.492  0.00  0.00    +0.000 C 
ENDBRANCH  31  32
ENDBRANCH   1  31
TORSDOF 9
ENDMDL
MODEL 7
REMARK VINA RESULT:      -7.4      0.992      1.611
REMARK  Name = 
REMARK  12 active torsions:
REMARK  status: ('A' for Active; 'I' for Inactive)
REMARK    1  A    between atoms: C_1  and  C_2
REMARK    2  A    between atoms: C_5  and  S_6
REMARK    3  A    between atoms: S_6  and  N_9
REMARK    4  A    between atoms: N_9  and  C_10
REMARK    5  A    between atoms: C_10  and  C_11
REMARK    6  A    between atoms: C_10  and  C_15
REMARK    7  A    between atoms: C_11  and  C_12
REMARK    8  A    between atoms: C_12  and  C_13
REMARK    9  A    between atoms: C_12  and  C_14
REMARK   10  A    between atoms: N_20  and  C_21
REMARK   11  A    between atoms: C_21  and  C_22
REMARK   12  A    between atoms: C_23  and  C_24
REMARK                            x       y       z     vdW  Elec       q    Type
REMARK                         _______ _______ _______ _____ _____    ______ ____
ROOT
ATOM      1  C   UNL     1       2.236   5.724  18.930  0.00  0.00    +0.000 C 
ENDROOT
BRANCH   1   2
ATOM      2  C   UNL     1       2.458   7.255  18.852  0.00  0.00    +0.000 C 
ATOM      3  O   UNL     1       3.208   7.724  17.987  0.00  0.00    +0.000 OA
ATOM      4  N   UNL     1       1.819   8.069  19.775  0.00  0.00    +0.000 N 
ATOM      5  C   UNL     1       1.742   9.509  19.517  0.00  0.00    +0.000 C 
ATOM      6  C   UNL     1       0.282   9.994  19.650  0.00  0.00    +0.000 C 
ATOM      7  N   UNL     1      -0.379   9.644  20.937  0.00  0.00    +0.000 NA
ATOM      8  C   UNL     1      -0.233   8.192  21.173  0.00  0.00    +0.000 C 
ATOM      9  C   UNL     1       1.203   7.656  21.036  0.00  0.00    +0.000 C 
BRANCH   7  10
ATOM     10  C   UNL     1       0.139  10.418  22.070  0.00  0.00    +0.000 C 
BRANCH  10  11
ATOM     11  C   UNL     1      -0.708  11.624  22.344  0.00  0.00    +0.000 C 
ATOM     12  C   UNL     1      -1.817  11.600  23.101  0.00  0.00    +0.000 C 
BRANCH  12  13
ATOM     13  C   UNL     1      -2.670  12.766  23.363  0.00  0.00    +0.000 A 
ATOM     14  C   UNL     1      -2.060  13.987  23.682  0.00  0.00    +0.000 A 
ATOM     15  C   UNL     1      -2.829  15.123  23.944  0.00  0.00    +0.000 A 
ATOM     16  C   UNL     1      -4.219  15.053  23.877  0.00  0.00    +0.000 A 
ATOM     17  C   UNL     1      -4.838  13.854  23.534  0.00  0.00    +0.000 A 
ATOM     18  C   UNL     1      -4.068  12.719  23.270  0.00  0.00    +0.000 A 
ENDBRANCH  12  13
ENDBRANCH  10  11
ENDBRANCH   7  10
ENDBRANCH   1   2
BRANCH   1  19
ATOM     19  N   UNL     1       3.068   5.024  17.905  0.00  0.00    +0.000 NA
ATOM     20  H   UNL     1       2.571   4.242  17.471  0.00  0.00    +0.000 HD
BRANCH  19  21
ATOM     21  S   UNL     1       4.574   4.415  18.367  0.00  0.00    +0.000 S 
ATOM     22  O   UNL     1       4.347   3.031  18.729  0.00  0.00    +0.000 OA
ATOM     23  O   UNL     1       5.214   5.354  19.263  0.00  0.00    +0.000 OA
BRANCH  21  28
ATOM     24  C   UNL     1       7.572   5.067  13.152  0.00  0.00    +0.000 C 
ATOM     25  C   UNL     1       6.894   4.751  14.454  0.00  0.00    +0.000 A 
ATOM     26  C   UNL     1       5.601   4.216  14.469  0.00  0.00    +0.000 A 
ATOM     27  C   UNL     1       4.927   4.032  15.675  0.00  0.00    +0.000 A 
ATOM     28  C   UNL     1       5.543   4.388  16.878  0.00  0.00    +0.000 A 
ATOM     29  C   UNL     1       6.852   4.883  16.886  0.00  0.00    +0.000 A 
ATOM     30  C   UNL     1       7.524   5.056  15.672  0.00  0.00    +0.000 A 
ENDBRANCH  21  28
ENDBRANCH  19  21
ENDBRANCH   1  19
BRANCH   1  31
ATOM     31  C   UNL     1       2.696   5.256  20.328  0.00  0.00    +0.000 C 
BRANCH  31  32
ATOM     32  C   UNL     1       1.824   4.202  21.036  0.00  0.00    +0.000 C 
ATOM     33  C   UNL     1       0.749   3.706  20.061  0.00  0.00    +0.000 C 
ATOM     34  C   UNL     1       2.618   3.008  21.566  0.00  0.00    +0.000 C 
ENDBRANCH  31  32
ENDBRANCH   1  31
TORSDOF 9
ENDMDL
MODEL 8
REMARK VINA RESULT:      -7.4      2.573      4.023
REMARK  Name = 
REMARK  12 active torsions:
REMARK  status: ('A' for Active; 'I' for Inactive)
REMARK    1  A    between atoms: C_1  and  C_2
REMARK    2  A    between atoms: C_5  and  S_6
REMARK    3  A    between atoms: S_6  and  N_9
REMARK    4  A    between atoms: N_9  and  C_10
REMARK    5  A    between atoms: C_10  and  C_11
REMARK    6  A    between atoms: C_10  and  C_15
REMARK    7  A    between atoms: C_11  and  C_12
REMARK    8  A    between atoms: C_12  and  C_13
REMARK    9  A    between atoms: C_12  and  C_14
REMARK   10  A    between atoms: N_20  and  C_21
REMARK   11  A    between atoms: C_21  and  C_22
REMARK   12  A    between atoms: C_23  and  C_24
REMARK                            x       y       z     vdW  Elec       q    Type
REMARK                         _______ _______ _______ _____ _____    ______ ____
ROOT
ATOM      1  C   UNL     1       2.765   5.815  18.608  0.00  0.00    +0.000 C 
ENDROOT
BRANCH   1   2
ATOM      2  C   UNL     1       2.211   6.174  20.009  0.00  0.00    +0.000 C 
ATOM      3  O   UNL     1       2.372   5.391  20.952  0.00  0.00    +0.000 OA
ATOM      4  N   UNL     1       1.526   7.369  20.168  0.00  0.00    +0.000 N 
ATOM      5  C   UNL     1       1.297   7.880  21.522  0.00  0.00    +0.000 C 
ATOM      6  C   UNL     1       1.763   9.348  21.621  0.00  0.00    +0.000 C 
ATOM      7  N   UNL     1       1.182  10.260  20.598  0.00  0.00    +0.000 NA
ATOM      8  C   UNL     1       1.399   9.678  19.257  0.00  0.00    +0.000 C 
ATOM      9  C   UNL     1       0.963   8.209  19.111  0.00  0.00    +0.000 C 
BRANCH   7  10
ATOM     10  C   UNL     1      -0.239  10.540  20.830  0.00  0.00    +0.000 C 
BRANCH  10  11
ATOM     11  C   UNL     1      -1.056  10.290  19.597  0.00  0.00    +0.000 C 
ATOM     12  C   UNL     1      -1.666  11.261  18.899  0.00  0.00    +0.000 C 
BRANCH  12  13
ATOM     13  C   UNL     1      -2.488  11.033  17.702  0.00  0.00    +0.000 A 
ATOM     14  C   UNL     1      -1.973  10.225  16.679  0.00  0.00    +0.000 A 
ATOM     15  C   UNL     1      -2.714   9.983  15.520  0.00  0.00    +0.000 A 
ATOM     16  C   UNL     1      -3.984  10.537  15.377  0.00  0.00    +0.000 A 
ATOM     17  C   UNL     1      -4.519  11.319  16.398  0.00  0.00    +0.000 A 
ATOM     18  C   UNL     1      -3.778  11.559  17.557  0.00  0.00    +0.000 A 
ENDBRANCH  12  13
ENDBRANCH  10  11
ENDBRANCH   7  10
ENDBRANCH   1   2
BRANCH   1  19
ATOM     19  N   UNL     1       4.159   5.288  18.718  0.00  0.00    +0.000 NA
ATOM     20  H   UNL     1       4.451   5.164  19.692  0.00  0.00    +0.000 HD
BRANCH  19  21
ATOM     21  S   UNL     1       5.407   6.146  17.971  0.00  0.00    +0.000 S 
ATOM     22  O   UNL     1       6.553   6.025  18.847  0.00  0.00    +0.000 OA
ATOM     23  O   UNL     1       4.905   7.428  17.526  0.00  0.00    +0.000 OA
BRANCH  21  28
ATOM     24  C   UNL     1       6.453   3.622  12.571  0.00  0.00    +0.000 C 
ATOM     25  C   UNL     1       6.248   4.105  13.978  0.00  0.00    +0.000 A 
ATOM     26  C   UNL     1       5.010   3.946  14.610  0.00  0.00    +0.000 A 
ATOM     27  C   UNL     1       4.784   4.496  15.871  0.00  0.00    +0.000 A 
ATOM     28  C   UNL     1       5.799   5.218  16.507  0.00  0.00    +0.000 A 
ATOM     29  C   UNL     1       7.058   5.349  15.910  0.00  0.00    +0.000 A 
ATOM     30  C   UNL     1       7.278   4.786  14.650  0.00  0.00    +0.000 A 
ENDBRANCH  21  28
ENDBRANCH  19  21
ENDBRANCH   1  19
BRANCH   1  31
ATOM     31  C   UNL     1       1.871   4.699  18.024  0.00  0.00    +0.000 C 
BRANCH  31  32
ATOM     32  C   UNL     1       2.022   3.291  18.628  0.00  0.00    +0.000 C 
ATOM     33  C   UNL     1       0.676   2.854  19.220  0.00  0.00    +0.000 C 
ATOM     34  C   UNL     1       2.499   2.242  17.623  0.00  0.00    +0.000 C 
ENDBRANCH  31  32
ENDBRANCH   1  31
TORSDOF 9
ENDMDL
MODEL 9
REMARK VINA RESULT:      -7.4      2.389      3.164
REMARK  Name = 
REMARK  12 active torsions:
REMARK  status: ('A' for Active; 'I' for Inactive)
REMARK    1  A    between atoms: C_1  and  C_2
REMARK    2  A    between atoms: C_5  and  S_6
REMARK    3  A    between atoms: S_6  and  N_9
REMARK    4  A    between atoms: N_9  and  C_10
REMARK    5  A    between atoms: C_10  and  C_11
REMARK    6  A    between atoms: C_10  and  C_15
REMARK    7  A    between atoms: C_11  and  C_12
REMARK    8  A    between atoms: C_12  and  C_13
REMARK    9  A    between atoms: C_12  and  C_14
REMARK   10  A    between atoms: N_20  and  C_21
REMARK   11  A    between atoms: C_21  and  C_22
REMARK   12  A    between atoms: C_23  and  C_24
REMARK                            x       y       z     vdW  Elec       q    Type
REMARK                         _______ _______ _______ _____ _____    ______ ____
ROOT
ATOM      1  C   UNL     1       4.200   5.242  18.892  0.00  0.00    +0.000 C 
ENDROOT
BRANCH   1   2
ATOM      2  C   UNL     1       3.010   5.751  19.744  0.00  0.00    +0.000 C 
ATOM      3  O   UNL     1       2.715   5.171  20.795  0.00  0.00    +0.000 OA
ATOM      4  N   UNL     1       2.286   6.843  19.291  0.00  0.00    +0.000 N 
ATOM      5  C   UNL     1       1.395   7.539  20.223  0.00  0.00    +0.000 C 
ATOM      6  C   UNL     1       1.689   9.054  20.207  0.00  0.00    +0.000 C 
ATOM      7  N   UNL     1       1.653   9.685  18.859  0.00  0.00    +0.000 NA
ATOM      8  C   UNL     1       2.530   8.921  17.947  0.00  0.00    +0.000 C 
ATOM      9  C   UNL     1       2.286   7.401  17.938  0.00  0.00    +0.000 C 
BRANCH   7  10
ATOM     10  C   UNL     1       0.294   9.791  18.319  0.00  0.00    +0.000 C 
BRANCH  10  11
ATOM     11  C   UNL     1      -0.396  11.030  18.806  0.00  0.00    +0.000 C 
ATOM     12  C   UNL     1       0.195  12.234  18.876  0.00  0.00    +0.000 C 
BRANCH  12  13
ATOM     13  C   UNL     1      -0.457  13.453  19.371  0.00  0.00    +0.000 A 
ATOM     14  C   UNL     1      -0.043  14.691  18.860  0.00  0.00    +0.000 A 
ATOM     15  C   UNL     1      -0.630  15.878  19.302  0.00  0.00    +0.000 A 
ATOM     16  C   UNL     1      -1.647  15.840  20.252  0.00  0.00    +0.000 A 
ATOM     17  C   UNL     1      -2.088  14.616  20.749  0.00  0.00    +0.000 A 
ATOM     18  C   UNL     1      -1.502  13.429  20.304  0.00  0.00    +0.000 A 
ENDBRANCH  12  13
ENDBRANCH  10  11
ENDBRANCH   7  10
ENDBRANCH   1   2
BRANCH   1  19
ATOM     19  N   UNL     1       5.477   5.861  19.360  0.00  0.00    +0.000 NA
ATOM     20  H   UNL     1       5.363   6.849  19.600  0.00  0.00    +0.000 HD
BRANCH  19  21
ATOM     21  S   UNL     1       6.828   5.786  18.348  0.00  0.00    +0.000 S 
ATOM     22  O   UNL     1       7.681   4.755  18.901  0.00  0.00    +0.000 OA
ATOM     23  O   UNL     1       7.303   7.127  18.087  0.00  0.00    +0.000 OA
BRANCH  21  28
ATOM     24  C   UNL     1       5.437   3.918  12.763  0.00  0.00    +0.000 C 
ATOM     25  C   UNL     1       5.633   4.324  14.195  0.00  0.00    +0.000 A 
ATOM     26  C   UNL     1       5.283   5.609  14.623  0.00  0.00    +0.000 A 
ATOM     27  C   UNL     1       5.571   6.024  15.923  0.00  0.00    +0.000 A 
ATOM     28  C   UNL     1       6.218   5.153  16.804  0.00  0.00    +0.000 A 
ATOM     29  C   UNL     1       6.534   3.848  16.408  0.00  0.00    +0.000 A 
ATOM     30  C   UNL     1       6.234   3.438  15.105  0.00  0.00    +0.000 A 
ENDBRANCH  21  28
ENDBRANCH  19  21
ENDBRANCH   1  19
BRANCH   1  31
ATOM     31  C   UNL     1       4.300   3.714  19.095  0.00  0.00    +0.000 C 
BRANCH  31  32
ATOM     32  C   UNL     1       3.213   2.847  18.433  0.00  0.00    +0.000 C 
ATOM     33  C   UNL     1       2.892   3.420  17.046  0.00  0.00    +0.000 C 
ATOM     34  C   UNL     1       3.605   1.375  18.295  0.00  0.00    +0.000 C 
ENDBRANCH  31  32
ENDBRANCH   1  31
TORSDOF 9
ENDMDL
