MODEL 1
REMARK VINA RESULT:      -9.2      0.000      0.000
REMARK  Name = 
REMARK  3 active torsions:
REMARK  status: ('A' for Active; 'I' for Inactive)
REMARK    1  A    between atoms: C_1  and  C_2
REMARK    2  A    between atoms: C_10  and  C_12
REMARK    3  A    between atoms: C_12  and  N_13
REMARK                            x       y       z     vdW  Elec       q    Type
REMARK                         _______ _______ _______ _____ _____    ______ ____
ROOT
ATOM      1  C   UNL     1      -0.262   9.086  22.544  0.00  0.00    +0.000 C 
ATOM      2  C   UNL     1       0.043   9.695  21.206  0.00  0.00    +0.000 A 
ATOM      3  C   UNL     1      -0.525  10.920  20.821  0.00  0.00    +0.000 A 
ATOM      4  C   UNL     1      -0.244  11.482  19.576  0.00  0.00    +0.000 A 
ATOM      5  C   UNL     1       0.620  10.849  18.676  0.00  0.00    +0.000 A 
ATOM      6  C   UNL     1       1.185   9.620  19.055  0.00  0.00    +0.000 A 
ATOM      7  S   UNL     1       2.275   8.580  18.195  0.00  0.00    +0.000 S 
ATOM      8  C   UNL     1       2.182   7.451  19.467  0.00  0.00    +0.000 A 
ATOM      9  N   UNL     1       2.844   6.264  19.283  0.00  0.00    +0.000 N 
ATOM     10  C   UNL     1       2.581   5.191  20.119  0.00  0.00    +0.000 C 
ATOM     11  O   UNL     1       1.677   5.125  20.949  0.00  0.00    +0.000 OA
ATOM     12  N   UNL     1       1.499   7.815  20.516  0.00  0.00    +0.000 NA
ATOM     13  C   UNL     1       0.902   9.039  20.293  0.00  0.00    +0.000 A 
ATOM     14  H   UNL     1       3.388   6.147  18.437  0.00  0.00    +0.000 HD
ENDROOT
BRANCH  10  15
ATOM     15  C   UNL     1       3.469   3.979  19.865  0.00  0.00    +0.000 C 
BRANCH  15  16
ATOM     16  N   UNL     1       4.257   4.187  18.670  0.00  0.00    +0.000 N 
ATOM     17  C   UNL     1       5.553   4.610  18.695  0.00  0.00    +0.000 C 
ATOM     18  O   UNL     1       6.211   4.937  19.670  0.00  0.00    +0.000 OA
ATOM     19  C   UNL     1       6.021   4.616  17.311  0.00  0.00    +0.000 A 
ATOM     20  C   UNL     1       7.262   4.910  16.780  0.00  0.00    +0.000 A 
ATOM     21  C   UNL     1       7.398   4.827  15.389  0.00  0.00    +0.000 A 
ATOM     22  C   UNL     1       6.304   4.467  14.574  0.00  0.00    +0.000 A 
ATOM     23  C   UNL     1       5.062   4.157  15.137  0.00  0.00    +0.000 A 
ATOM     24  C   UNL     1       4.956   4.232  16.513  0.00  0.00    +0.000 A 
ATOM     25  C   UNL     1       3.834   3.916  17.397  0.00  0.00    +0.000 C 
ATOM     26  O   UNL     1       2.781   3.441  17.018  0.00  0.00    +0.000 OA
ENDBRANCH  15  16
ENDBRANCH  10  15
TORSDOF 2
ENDMDL
MODEL 2
REMARK VINA RESULT:      -9.2      0.187      1.754
REMARK  Name = 
REMARK  3 active torsions:
REMARK  status: ('A' for Active; 'I' for Inactive)
REMARK    1  A    between atoms: C_1  and  C_2
REMARK    2  A    between atoms: C_10  and  C_12
REMARK    3  A    between atoms: C_12  and  N_13
REMARK                            x       y       z     vdW  Elec       q    Type
REMARK                         _______ _______ _______ _____ _____    ______ ____
ROOT
ATOM      1  C   UNL     1      -0.028   9.161  22.520  0.00  0.00    +0.000 C 
ATOM      2  C   UNL     1       0.251   9.706  21.148  0.00  0.00    +0.000 A 
ATOM      3  C   UNL     1      -0.290  10.934  20.734  0.00  0.00    +0.000 A 
ATOM      4  C   UNL     1      -0.034  11.436  19.459  0.00  0.00    +0.000 A 
ATOM      5  C   UNL     1       0.777  10.740  18.556  0.00  0.00    +0.000 A 
ATOM      6  C   UNL     1       1.314   9.508  18.966  0.00  0.00    +0.000 A 
ATOM      7  S   UNL     1       2.339   8.398  18.113  0.00  0.00    +0.000 S 
ATOM      8  C   UNL     1       2.254   7.324  19.432  0.00  0.00    +0.000 A 
ATOM      9  N   UNL     1       2.869   6.109  19.274  0.00  0.00    +0.000 N 
ATOM     10  C   UNL     1       2.601   5.079  20.160  0.00  0.00    +0.000 C 
ATOM     11  O   UNL     1       1.724   5.076  21.022  0.00  0.00    +0.000 OA
ATOM     12  N   UNL     1       1.619   7.752  20.487  0.00  0.00    +0.000 NA
ATOM     13  C   UNL     1       1.055   8.986  20.235  0.00  0.00    +0.000 A 
ATOM     14  H   UNL     1       3.380   5.941  18.415  0.00  0.00    +0.000 HD
ENDROOT
BRANCH  10  15
ATOM     15  C   UNL     1       3.439   3.828  19.927  0.00  0.00    +0.000 C 
BRANCH  15  16
ATOM     16  N   UNL     1       4.282   4.010  18.765  0.00  0.00    +0.000 N 
ATOM     17  C   UNL     1       3.885   3.696  17.499  0.00  0.00    +0.000 C 
ATOM     18  O   UNL     1       2.838   3.172  17.155  0.00  0.00    +0.000 OA
ATOM     19  C   UNL     1       4.970   4.097  16.606  0.00  0.00    +0.000 A 
ATOM     20  C   UNL     1       5.068   4.053  15.229  0.00  0.00    +0.000 A 
ATOM     21  C   UNL     1       6.259   4.515  14.657  0.00  0.00    +0.000 A 
ATOM     22  C   UNL     1       7.311   4.995  15.465  0.00  0.00    +0.000 A 
ATOM     23  C   UNL     1       7.182   5.046  16.856  0.00  0.00    +0.000 A 
ATOM     24  C   UNL     1       5.992   4.598  17.396  0.00  0.00    +0.000 A 
ATOM     25  C   UNL     1       5.527   4.578  18.783  0.00  0.00    +0.000 C 
ATOM     26  O   UNL     1       6.145   5.054  19.716  0.00  0.00    +0.000 OA
ENDBRANCH  15  16
ENDBRANCH  10  15
TORSDOF 2
ENDMDL
MODEL 3
REMARK VINA RESULT:      -8.3      1.449      2.060
REMARK  Name = 
REMARK  3 active torsions:
REMARK  status: ('A' for Active; 'I' for Inactive)
REMARK    1  A    between atoms: C_1  and  C_2
REMARK    2  A    between atoms: C_10  and  C_12
REMARK    3  A    between atoms: C_12  and  N_13
REMARK                            x       y       z     vdW  Elec       q    Type
REMARK                         _______ _______ _______ _____ _____    ______ ____
ROOT
ATOM      1  C   UNL     1      -1.082  10.304  17.925  0.00  0.00    +0.000 C 
ATOM      2  C   UNL     1      -0.860  10.744  19.344  0.00  0.00    +0.000 A 
ATOM      3  C   UNL     1      -1.388  11.956  19.817  0.00  0.00    +0.000 A 
ATOM      4  C   UNL     1      -1.177  12.365  21.133  0.00  0.00    +0.000 A 
ATOM      5  C   UNL     1      -0.441  11.577  22.026  0.00  0.00    +0.000 A 
ATOM      6  C   UNL     1       0.094  10.368  21.553  0.00  0.00    +0.000 A 
ATOM      7  S   UNL     1       1.045   9.171  22.374  0.00  0.00    +0.000 S 
ATOM      8  C   UNL     1       1.188   8.302  20.917  0.00  0.00    +0.000 A 
ATOM      9  N   UNL     1       1.989   7.189  20.943  0.00  0.00    +0.000 N 
ATOM     10  C   UNL     1       2.395   6.603  19.756  0.00  0.00    +0.000 C 
ATOM     11  O   UNL     1       2.240   7.069  18.629  0.00  0.00    +0.000 OA
ATOM     12  N   UNL     1       0.514   8.761  19.900  0.00  0.00    +0.000 NA
ATOM     13  C   UNL     1      -0.098   9.952  20.234  0.00  0.00    +0.000 A 
ATOM     14  H   UNL     1       2.401   6.918  21.828  0.00  0.00    +0.000 HD
ENDROOT
BRANCH  10  15
ATOM     15  C   UNL     1       3.185   5.314  19.941  0.00  0.00    +0.000 C 
BRANCH  15  16
ATOM     16  N   UNL     1       4.024   5.079  18.785  0.00  0.00    +0.000 N 
ATOM     17  C   UNL     1       5.373   5.269  18.791  0.00  0.00    +0.000 C 
ATOM     18  O   UNL     1       6.059   5.712  19.699  0.00  0.00    +0.000 OA
ATOM     19  C   UNL     1       5.864   4.850  17.480  0.00  0.00    +0.000 A 
ATOM     20  C   UNL     1       7.148   4.786  16.975  0.00  0.00    +0.000 A 
ATOM     21  C   UNL     1       7.296   4.337  15.657  0.00  0.00    +0.000 A 
ATOM     22  C   UNL     1       6.173   3.977  14.885  0.00  0.00    +0.000 A 
ATOM     23  C   UNL     1       4.883   4.033  15.424  0.00  0.00    +0.000 A 
ATOM     24  C   UNL     1       4.764   4.465  16.731  0.00  0.00    +0.000 A 
ATOM     25  C   UNL     1       3.585   4.576  17.590  0.00  0.00    +0.000 C 
ATOM     26  O   UNL     1       2.471   4.208  17.269  0.00  0.00    +0.000 OA
ENDBRANCH  15  16
ENDBRANCH  10  15
TORSDOF 2
ENDMDL
MODEL 4
REMARK VINA RESULT:      -8.3      1.414      2.654
REMARK  Name = 
REMARK  3 active torsions:
REMARK  status: ('A' for Active; 'I' for Inactive)
REMARK    1  A    between atoms: C_1  and  C_2
REMARK    2  A    between atoms: C_10  and  C_12
REMARK    3  A    between atoms: C_12  and  N_13
REMARK                            x       y       z     vdW  Elec       q    Type
REMARK                         _______ _______ _______ _____ _____    ______ ____
ROOT
ATOM      1  C   UNL     1      -0.931  10.291  17.869  0.00  0.00    +0.000 C 
ATOM      2  C   UNL     1      -0.686  10.739  19.282  0.00  0.00    +0.000 A 
ATOM      3  C   UNL     1      -1.161  11.978  19.742  0.00  0.00    +0.000 A 
ATOM      4  C   UNL     1      -0.929  12.394  21.051  0.00  0.00    +0.000 A 
ATOM      5  C   UNL     1      -0.225  11.587  21.953  0.00  0.00    +0.000 A 
ATOM      6  C   UNL     1       0.257  10.350  21.495  0.00  0.00    +0.000 A 
ATOM      7  S   UNL     1       1.158   9.125  22.329  0.00  0.00    +0.000 S 
ATOM      8  C   UNL     1       1.260   8.232  20.882  0.00  0.00    +0.000 A 
ATOM      9  N   UNL     1       2.013   7.086  20.921  0.00  0.00    +0.000 N 
ATOM     10  C   UNL     1       2.391   6.469  19.740  0.00  0.00    +0.000 C 
ATOM     11  O   UNL     1       2.253   6.927  18.608  0.00  0.00    +0.000 OA
ATOM     12  N   UNL     1       0.604   8.707  19.861  0.00  0.00    +0.000 NA
ATOM     13  C   UNL     1       0.044   9.926  20.181  0.00  0.00    +0.000 A 
ATOM     14  H   UNL     1       2.415   6.809  21.808  0.00  0.00    +0.000 HD
ENDROOT
BRANCH  10  15
ATOM     15  C   UNL     1       3.126   5.149  19.940  0.00  0.00    +0.000 C 
BRANCH  15  16
ATOM     16  N   UNL     1       4.016   4.907  18.824  0.00  0.00    +0.000 N 
ATOM     17  C   UNL     1       3.592   4.421  17.624  0.00  0.00    +0.000 C 
ATOM     18  O   UNL     1       2.465   4.060  17.322  0.00  0.00    +0.000 OA
ATOM     19  C   UNL     1       4.758   4.397  16.744  0.00  0.00    +0.000 A 
ATOM     20  C   UNL     1       4.877   4.045  15.413  0.00  0.00    +0.000 A 
ATOM     21  C   UNL     1       6.152   4.125  14.841  0.00  0.00    +0.000 A 
ATOM     22  C   UNL     1       7.263   4.540  15.605  0.00  0.00    +0.000 A 
ATOM     23  C   UNL     1       7.114   4.909  16.946  0.00  0.00    +0.000 A 
ATOM     24  C   UNL     1       5.844   4.835  17.484  0.00  0.00    +0.000 A 
ATOM     25  C   UNL     1       5.352   5.202  18.812  0.00  0.00    +0.000 C 
ATOM     26  O   UNL     1       6.035   5.728  19.669  0.00  0.00    +0.000 OA
ENDBRANCH  15  16
ENDBRANCH  10  15
TORSDOF 2
ENDMDL
MODEL 5
REMARK VINA RESULT:      -7.9      2.971      7.997
REMARK  Name = 
REMARK  3 active torsions:
REMARK  status: ('A' for Active; 'I' for Inactive)
REMARK    1  A    between atoms: C_1  and  C_2
REMARK    2  A    between atoms: C_10  and  C_12
REMARK    3  A    between atoms: C_12  and  N_13
REMARK                            x       y       z     vdW  Elec       q    Type
REMARK                         _______ _______ _______ _____ _____    ______ ____
ROOT
ATOM      1  C   UNL     1       1.195   3.440  20.912  0.00  0.00    +0.000 C 
ATOM      2  C   UNL     1       2.320   3.572  19.926  0.00  0.00    +0.000 A 
ATOM      3  C   UNL     1       3.107   2.464  19.572  0.00  0.00    +0.000 A 
ATOM      4  C   UNL     1       4.153   2.590  18.660  0.00  0.00    +0.000 A 
ATOM      5  C   UNL     1       4.448   3.820  18.061  0.00  0.00    +0.000 A 
ATOM      6  C   UNL     1       3.668   4.932  18.419  0.00  0.00    +0.000 A 
ATOM      7  S   UNL     1       3.760   6.579  17.883  0.00  0.00    +0.000 S 
ATOM      8  C   UNL     1       2.515   6.990  18.970  0.00  0.00    +0.000 A 
ATOM      9  N   UNL     1       2.190   8.319  19.055  0.00  0.00    +0.000 N 
ATOM     10  C   UNL     1       1.413   8.773  20.109  0.00  0.00    +0.000 C 
ATOM     11  O   UNL     1       1.091   8.125  21.102  0.00  0.00    +0.000 OA
ATOM     12  N   UNL     1       1.967   6.003  19.622  0.00  0.00    +0.000 NA
ATOM     13  C   UNL     1       2.624   4.824  19.341  0.00  0.00    +0.000 A 
ATOM     14  H   UNL     1       2.663   8.967  18.437  0.00  0.00    +0.000 HD
ENDROOT
BRANCH  10  15
ATOM     15  C   UNL     1       1.041  10.248  20.011  0.00  0.00    +0.000 C 
BRANCH  15  16
ATOM     16  N   UNL     1      -0.200  10.395  19.282  0.00  0.00    +0.000 N 
ATOM     17  C   UNL     1      -1.258  11.119  19.747  0.00  0.00    +0.000 C 
ATOM     18  O   UNL     1      -1.361  11.676  20.828  0.00  0.00    +0.000 OA
ATOM     19  C   UNL     1      -2.276  11.097  18.699  0.00  0.00    +0.000 A 
ATOM     20  C   UNL     1      -3.512  11.710  18.630  0.00  0.00    +0.000 A 
ATOM     21  C   UNL     1      -4.272  11.490  17.474  0.00  0.00    +0.000 A 
ATOM     22  C   UNL     1      -3.787  10.669  16.435  0.00  0.00    +0.000 A 
ATOM     23  C   UNL     1      -2.524  10.074  16.520  0.00  0.00    +0.000 A 
ATOM     24  C   UNL     1      -1.788  10.316  17.664  0.00  0.00    +0.000 A 
ATOM     25  C   UNL     1      -0.433   9.901  18.027  0.00  0.00    +0.000 C 
ATOM     26  O   UNL     1       0.315   9.295  17.284  0.00  0.00    +0.000 OA
ENDBRANCH  15  16
ENDBRANCH  10  15
TORSDOF 2
ENDMDL
MODEL 6
REMARK VINA RESULT:      -7.8      2.869      8.006
REMARK  Name = 
REMARK  3 active torsions:
REMARK  status: ('A' for Active; 'I' for Inactive)
REMARK    1  A    between atoms: C_1  and  C_2
REMARK    2  A    between atoms: C_10  and  C_12
REMARK    3  A    between atoms: C_12  and  N_13
REMARK                            x       y       z     vdW  Elec       q    Type
REMARK                         _______ _______ _______ _____ _____    ______ ____
ROOT
ATOM      1  C   UNL     1       0.717   3.167  20.429  0.00  0.00    +0.000 C 
ATOM      2  C   UNL     1       1.931   3.267  19.550  0.00  0.00    +0.000 A 
ATOM      3  C   UNL     1       2.638   2.118  19.158  0.00  0.00    +0.000 A 
ATOM      4  C   UNL     1       3.766   2.213  18.346  0.00  0.00    +0.000 A 
ATOM      5  C   UNL     1       4.225   3.452  17.887  0.00  0.00    +0.000 A 
ATOM      6  C   UNL     1       3.525   4.604  18.282  0.00  0.00    +0.000 A 
ATOM      7  S   UNL     1       3.817   6.272  17.907  0.00  0.00    +0.000 S 
ATOM      8  C   UNL     1       2.527   6.715  18.927  0.00  0.00    +0.000 A 
ATOM      9  N   UNL     1       2.322   8.059  19.108  0.00  0.00    +0.000 N 
ATOM     10  C   UNL     1       1.503   8.500  20.134  0.00  0.00    +0.000 C 
ATOM     11  O   UNL     1       1.037   7.807  21.036  0.00  0.00    +0.000 OA
ATOM     12  N   UNL     1       1.835   5.738  19.442  0.00  0.00    +0.000 NA
ATOM     13  C   UNL     1       2.400   4.526  19.107  0.00  0.00    +0.000 A 
ATOM     14  H   UNL     1       2.905   8.704  18.589  0.00  0.00    +0.000 HD
ENDROOT
BRANCH  10  15
ATOM     15  C   UNL     1       1.281  10.007  20.143  0.00  0.00    +0.000 C 
BRANCH  15  16
ATOM     16  N   UNL     1       0.073  10.331  19.415  0.00  0.00    +0.000 N 
ATOM     17  C   UNL     1      -0.155   9.930  18.132  0.00  0.00    +0.000 C 
ATOM     18  O   UNL     1       0.606   9.323  17.395  0.00  0.00    +0.000 OA
ATOM     19  C   UNL     1      -1.502  10.377  17.784  0.00  0.00    +0.000 A 
ATOM     20  C   UNL     1      -2.245  10.192  16.634  0.00  0.00    +0.000 A 
ATOM     21  C   UNL     1      -3.526  10.756  16.602  0.00  0.00    +0.000 A 
ATOM     22  C   UNL     1      -4.022  11.488  17.701  0.00  0.00    +0.000 A 
ATOM     23  C   UNL     1      -3.257  11.647  18.861  0.00  0.00    +0.000 A 
ATOM     24  C   UNL     1      -2.002  11.069  18.875  0.00  0.00    +0.000 A 
ATOM     25  C   UNL     1      -0.999  11.001  19.938  0.00  0.00    +0.000 C 
ATOM     26  O   UNL     1      -1.175  11.416  21.067  0.00  0.00    +0.000 OA
ENDBRANCH  15  16
ENDBRANCH  10  15
TORSDOF 2
ENDMDL
MODEL 7
REMARK VINA RESULT:      -7.8      3.235      8.471
REMARK  Name = 
REMARK  3 active torsions:
REMARK  status: ('A' for Active; 'I' for Inactive)
REMARK    1  A    between atoms: C_1  and  C_2
REMARK    2  A    between atoms: C_10  and  C_12
REMARK    3  A    between atoms: C_12  and  N_13
REMARK                            x       y       z     vdW  Elec       q    Type
REMARK                         _______ _______ _______ _____ _____    ______ ____
ROOT
ATOM      1  C   UNL     1       1.138   4.270  20.546  0.00  0.00    +0.000 C 
ATOM      2  C   UNL     1       2.387   4.291  19.712  0.00  0.00    +0.000 A 
ATOM      3  C   UNL     1       3.233   3.171  19.648  0.00  0.00    +0.000 A 
ATOM      4  C   UNL     1       4.394   3.193  18.877  0.00  0.00    +0.000 A 
ATOM      5  C   UNL     1       4.749   4.326  18.135  0.00  0.00    +0.000 A 
ATOM      6  C   UNL     1       3.908   5.449  18.202  0.00  0.00    +0.000 A 
ATOM      7  S   UNL     1       4.046   6.995  17.428  0.00  0.00    +0.000 S 
ATOM      8  C   UNL     1       2.656   7.522  18.258  0.00  0.00    +0.000 A 
ATOM      9  N   UNL     1       2.300   8.835  18.086  0.00  0.00    +0.000 N 
ATOM     10  C   UNL     1       1.377   9.418  18.939  0.00  0.00    +0.000 C 
ATOM     11  O   UNL     1       0.931   8.920  19.970  0.00  0.00    +0.000 OA
ATOM     12  N   UNL     1       2.039   6.629  18.979  0.00  0.00    +0.000 NA
ATOM     13  C   UNL     1       2.749   5.446  18.981  0.00  0.00    +0.000 A 
ATOM     14  H   UNL     1       2.844   9.397  17.441  0.00  0.00    +0.000 HD
ENDROOT
BRANCH  10  15
ATOM     15  C   UNL     1       0.998  10.843  18.559  0.00  0.00    +0.000 C 
BRANCH  15  16
ATOM     16  N   UNL     1      -0.436  11.014  18.657  0.00  0.00    +0.000 N 
ATOM     17  C   UNL     1      -1.026  11.881  19.527  0.00  0.00    +0.000 C 
ATOM     18  O   UNL     1      -0.483  12.571  20.375  0.00  0.00    +0.000 OA
ATOM     19  C   UNL     1      -2.464  11.826  19.267  0.00  0.00    +0.000 A 
ATOM     20  C   UNL     1      -3.509  12.535  19.825  0.00  0.00    +0.000 A 
ATOM     21  C   UNL     1      -4.798  12.248  19.359  0.00  0.00    +0.000 A 
ATOM     22  C   UNL     1      -5.007  11.268  18.367  0.00  0.00    +0.000 A 
ATOM     23  C   UNL     1      -3.930  10.575  17.804  0.00  0.00    +0.000 A 
ATOM     24  C   UNL     1      -2.667  10.886  18.270  0.00  0.00    +0.000 A 
ATOM     25  C   UNL     1      -1.354  10.396  17.852  0.00  0.00    +0.000 C 
ATOM     26  O   UNL     1      -1.176   9.641  16.916  0.00  0.00    +0.000 OA
ENDBRANCH  15  16
ENDBRANCH  10  15
TORSDOF 2
ENDMDL
MODEL 8
REMARK VINA RESULT:      -7.8      2.431      4.162
REMARK  Name = 
REMARK  3 active torsions:
REMARK  status: ('A' for Active; 'I' for Inactive)
REMARK    1  A    between atoms: C_1  and  C_2
REMARK    2  A    between atoms: C_10  and  C_12
REMARK    3  A    between atoms: C_12  and  N_13
REMARK                            x       y       z     vdW  Elec       q    Type
REMARK                         _______ _______ _______ _____ _____    ______ ____
ROOT
ATOM      1  C   UNL     1      -2.710  10.264  16.849  0.00  0.00    +0.000 C 
ATOM      2  C   UNL     1      -2.484  10.951  18.166  0.00  0.00    +0.000 A 
ATOM      3  C   UNL     1      -3.392  11.908  18.648  0.00  0.00    +0.000 A 
ATOM      4  C   UNL     1      -3.179  12.548  19.868  0.00  0.00    +0.000 A 
ATOM      5  C   UNL     1      -2.061  12.251  20.655  0.00  0.00    +0.000 A 
ATOM      6  C   UNL     1      -1.148  11.299  20.173  0.00  0.00    +0.000 A 
ATOM      7  S   UNL     1       0.322  10.705  20.877  0.00  0.00    +0.000 S 
ATOM      8  C   UNL     1       0.598   9.768  19.482  0.00  0.00    +0.000 A 
ATOM      9  N   UNL     1       1.783   9.079  19.430  0.00  0.00    +0.000 N 
ATOM     10  C   UNL     1       2.216   8.542  18.230  0.00  0.00    +0.000 C 
ATOM     11  O   UNL     1       1.719   8.745  17.124  0.00  0.00    +0.000 OA
ATOM     12  N   UNL     1      -0.347   9.775  18.584  0.00  0.00    +0.000 NA
ATOM     13  C   UNL     1      -1.341  10.660  18.946  0.00  0.00    +0.000 A 
ATOM     14  H   UNL     1       2.395   9.121  20.236  0.00  0.00    +0.000 HD
ENDROOT
BRANCH  10  15
ATOM     15  C   UNL     1       3.488   7.711  18.348  0.00  0.00    +0.000 C 
BRANCH  15  16
ATOM     16  N   UNL     1       3.153   6.306  18.434  0.00  0.00    +0.000 N 
ATOM     17  C   UNL     1       3.666   5.364  17.593  0.00  0.00    +0.000 C 
ATOM     18  O   UNL     1       4.398   5.542  16.632  0.00  0.00    +0.000 OA
ATOM     19  C   UNL     1       3.159   4.071  18.049  0.00  0.00    +0.000 A 
ATOM     20  C   UNL     1       3.406   2.792  17.590  0.00  0.00    +0.000 A 
ATOM     21  C   UNL     1       2.755   1.740  18.245  0.00  0.00    +0.000 A 
ATOM     22  C   UNL     1       1.881   1.989  19.323  0.00  0.00    +0.000 A 
ATOM     23  C   UNL     1       1.661   3.292  19.782  0.00  0.00    +0.000 A 
ATOM     24  C   UNL     1       2.324   4.312  19.128  0.00  0.00    +0.000 A 
ATOM     25  C   UNL     1       2.357   5.750  19.398  0.00  0.00    +0.000 C 
ATOM     26  O   UNL     1       1.817   6.276  20.352  0.00  0.00    +0.000 OA
ENDBRANCH  15  16
ENDBRANCH  10  15
TORSDOF 2
ENDMDL
MODEL 9
REMARK VINA RESULT:      -7.7      4.187      6.391
REMARK  Name = 
REMARK  3 active torsions:
REMARK  status: ('A' for Active; 'I' for Inactive)
REMARK    1  A    between atoms: C_1  and  C_2
REMARK    2  A    between atoms: C_10  and  C_12
REMARK    3  A    between atoms: C_12  and  N_13
REMARK                            x       y       z     vdW  Elec       q    Type
REMARK                         _______ _______ _______ _____ _____    ______ ____
ROOT
ATOM      1  C   UNL     1      -5.292  13.018  21.450  0.00  0.00    +0.000 C 
ATOM      2  C   UNL     1      -5.530  12.548  20.044  0.00  0.00    +0.000 A 
ATOM      3  C   UNL     1      -6.824  12.517  19.500  0.00  0.00    +0.000 A 
ATOM      4  C   UNL     1      -7.044  12.075  18.197  0.00  0.00    +0.000 A 
ATOM      5  C   UNL     1      -5.983  11.659  17.385  0.00  0.00    +0.000 A 
ATOM      6  C   UNL     1      -4.688  11.683  17.928  0.00  0.00    +0.000 A 
ATOM      7  S   UNL     1      -3.170  11.238  17.215  0.00  0.00    +0.000 S 
ATOM      8  C   UNL     1      -2.395  11.548  18.700  0.00  0.00    +0.000 A 
ATOM      9  N   UNL     1      -1.056  11.258  18.765  0.00  0.00    +0.000 N 
ATOM     10  C   UNL     1      -0.423  11.197  19.995  0.00  0.00    +0.000 C 
ATOM     11  O   UNL     1      -0.972  11.225  21.094  0.00  0.00    +0.000 OA
ATOM     12  N   UNL     1      -3.138  12.046  19.648  0.00  0.00    +0.000 NA
ATOM     13  C   UNL     1      -4.454  12.109  19.237  0.00  0.00    +0.000 A 
ATOM     14  H   UNL     1      -0.597  10.932  17.923  0.00  0.00    +0.000 HD
ENDROOT
BRANCH  10  15
ATOM     15  C   UNL     1       1.082  10.976  19.905  0.00  0.00    +0.000 C 
BRANCH  15  16
ATOM     16  N   UNL     1       1.364   9.567  19.733  0.00  0.00    +0.000 N 
ATOM     17  C   UNL     1       1.808   9.034  18.559  0.00  0.00    +0.000 C 
ATOM     18  O   UNL     1       1.967   9.607  17.493  0.00  0.00    +0.000 OA
ATOM     19  C   UNL     1       2.053   7.615  18.808  0.00  0.00    +0.000 A 
ATOM     20  C   UNL     1       2.555   6.628  17.982  0.00  0.00    +0.000 A 
ATOM     21  C   UNL     1       2.670   5.341  18.520  0.00  0.00    +0.000 A 
ATOM     22  C   UNL     1       2.279   5.074  19.849  0.00  0.00    +0.000 A 
ATOM     23  C   UNL     1       1.790   6.094  20.672  0.00  0.00    +0.000 A 
ATOM     24  C   UNL     1       1.699   7.358  20.123  0.00  0.00    +0.000 A 
ATOM     25  C   UNL     1       1.295   8.629  20.726  0.00  0.00    +0.000 C 
ATOM     26  O   UNL     1       1.029   8.769  21.904  0.00  0.00    +0.000 OA
ENDBRANCH  15  16
ENDBRANCH  10  15
TORSDOF 2
ENDMDL
