MODEL 1
REMARK VINA RESULT:      -7.6      0.000      0.000
REMARK  Name = 
REMARK  5 active torsions:
REMARK  status: ('A' for Active; 'I' for Inactive)
REMARK    1  A    between atoms: C_1  and  O_2
REMARK    2  A    between atoms: O_2  and  C_3
REMARK    3  A    between atoms: C_10  and  C_11
REMARK    4  A    between atoms: C_14  and  C_15
REMARK    5  A    between atoms: C_27  and  C_28
REMARK                            x       y       z     vdW  Elec       q    Type
REMARK                         _______ _______ _______ _____ _____    ______ ____
ROOT
ATOM      1  C   UNL     1      -2.374  10.551  17.202  0.00  0.00    +0.000 A 
ATOM      2  C   UNL     1      -3.607  11.127  17.489  0.00  0.00    +0.000 A 
ATOM      3  C   UNL     1      -3.797  11.842  18.685  0.00  0.00    +0.000 A 
ATOM      4  C   UNL     1      -2.768  11.973  19.614  0.00  0.00    +0.000 A 
ATOM      5  C   UNL     1      -1.671  11.034  19.453  0.00  0.00    +0.000 A 
ATOM      6  C   UNL     1      -1.465  10.371  18.227  0.00  0.00    +0.000 A 
ATOM      7  S   UNL     1      -0.363  10.699  20.673  0.00  0.00    +0.000 S 
ATOM      8  C   UNL     1      -0.543  12.323  21.505  0.00  0.00    +0.000 C 
ATOM      9  C   UNL     1      -2.152  11.944  22.305  0.00  0.00    +0.000 C 
ATOM     10  C   UNL     1      -2.310  13.200  21.689  0.00  0.00    +0.000 C 
ATOM     11  N   UNL     1      -2.789  13.189  20.468  0.00  0.00    +0.000 NA
ATOM     12  C   UNL     1      -1.982  14.178  22.902  0.00  0.00    +0.000 A 
ATOM     13  C   UNL     1      -1.010  15.083  23.304  0.00  0.00    +0.000 A 
ATOM     14  C   UNL     1      -1.162  15.757  24.526  0.00  0.00    +0.000 A 
ATOM     15  C   UNL     1      -2.218  15.443  25.389  0.00  0.00    +0.000 A 
ATOM     16  C   UNL     1      -3.042  14.367  25.099  0.00  0.00    +0.000 A 
ATOM     17  C   UNL     1      -2.827  13.727  23.894  0.00  0.00    +0.000 A 
ATOM     18  C   UNL     1      -3.540  12.633  23.198  0.00  0.00    +0.000 C 
ENDROOT
BRANCH   8  19
ATOM     19  C   UNL     1      -0.172  13.515  20.257  0.00  0.00    +0.000 A 
ATOM     20  C   UNL     1       0.677  13.246  19.148  0.00  0.00    +0.000 A 
ATOM     21  C   UNL     1       1.511  14.181  18.525  0.00  0.00    +0.000 A 
ATOM     22  C   UNL     1       1.479  15.500  18.904  0.00  0.00    +0.000 A 
ATOM     23  C   UNL     1       2.505  16.430  18.330  0.00  0.00    +0.000 C 
ATOM     24  C   UNL     1       0.473  15.873  19.800  0.00  0.00    +0.000 A 
ATOM     25  C   UNL     1      -0.363  14.904  20.441  0.00  0.00    +0.000 A 
ENDBRANCH   8  19
BRANCH  18  26
ATOM     26  C   UNL     1      -4.776  13.403  22.442  0.00  0.00    +0.000 A 
ATOM     27  C   UNL     1      -5.778  12.665  21.699  0.00  0.00    +0.000 A 
ATOM     28  C   UNL     1      -7.014  13.179  21.314  0.00  0.00    +0.000 A 
ATOM     29  C   UNL     1      -7.254  14.508  21.534  0.00  0.00    +0.000 A 
ATOM     30  C   UNL     1      -6.257  15.298  22.122  0.00  0.00    +0.000 A 
ATOM     31  C   UNL     1      -5.031  14.759  22.592  0.00  0.00    +0.000 A 
ENDBRANCH  18  26
BRANCH   1  33
ATOM     32  C   UNL     1      -3.042  10.381  14.970  0.00  0.00    +0.000 C 
ATOM     33  O   UNL     1      -2.028  10.123  15.950  0.00  0.00    +0.000 OA
ENDBRANCH   1  33
TORSDOF 3
ENDMDL
MODEL 2
REMARK VINA RESULT:      -7.3      1.520      1.736
REMARK  Name = 
REMARK  5 active torsions:
REMARK  status: ('A' for Active; 'I' for Inactive)
REMARK    1  A    between atoms: C_1  and  O_2
REMARK    2  A    between atoms: O_2  and  C_3
REMARK    3  A    between atoms: C_10  and  C_11
REMARK    4  A    between atoms: C_14  and  C_15
REMARK    5  A    between atoms: C_27  and  C_28
REMARK                            x       y       z     vdW  Elec       q    Type
REMARK                         _______ _______ _______ _____ _____    ______ ____
ROOT
ATOM      1  C   UNL     1      -3.892  11.537  17.782  0.00  0.00    +0.000 A 
ATOM      2  C   UNL     1      -5.029  11.901  18.496  0.00  0.00    +0.000 A 
ATOM      3  C   UNL     1      -4.911  12.554  19.737  0.00  0.00    +0.000 A 
ATOM      4  C   UNL     1      -3.661  12.832  20.286  0.00  0.00    +0.000 A 
ATOM      5  C   UNL     1      -2.557  12.084  19.708  0.00  0.00    +0.000 A 
ATOM      6  C   UNL     1      -2.678  11.486  18.439  0.00  0.00    +0.000 A 
ATOM      7  S   UNL     1      -0.883  11.942  20.407  0.00  0.00    +0.000 S 
ATOM      8  C   UNL     1      -1.009  13.500  21.366  0.00  0.00    +0.000 C 
ATOM      9  C   UNL     1      -2.186  12.852  22.619  0.00  0.00    +0.000 C 
ATOM     10  C   UNL     1      -2.721  14.077  22.178  0.00  0.00    +0.000 C 
ATOM     11  N   UNL     1      -3.573  14.012  21.184  0.00  0.00    +0.000 NA
ATOM     12  C   UNL     1      -2.153  15.072  23.284  0.00  0.00    +0.000 A 
ATOM     13  C   UNL     1      -1.245  16.114  23.411  0.00  0.00    +0.000 A 
ATOM     14  C   UNL     1      -1.077  16.732  24.659  0.00  0.00    +0.000 A 
ATOM     15  C   UNL     1      -1.727  16.237  25.795  0.00  0.00    +0.000 A 
ATOM     16  C   UNL     1      -2.434  15.048  25.715  0.00  0.00    +0.000 A 
ATOM     17  C   UNL     1      -2.544  14.473  24.463  0.00  0.00    +0.000 A 
ATOM     18  C   UNL     1      -3.281  13.292  23.963  0.00  0.00    +0.000 C 
ENDROOT
BRANCH   8  19
ATOM     19  C   UNL     1      -1.253  14.759  20.154  0.00  0.00    +0.000 A 
ATOM     20  C   UNL     1      -0.491  14.848  18.956  0.00  0.00    +0.000 A 
ATOM     21  C   UNL     1      -0.145  16.038  18.307  0.00  0.00    +0.000 A 
ATOM     22  C   UNL     1      -0.631  17.241  18.757  0.00  0.00    +0.000 A 
ATOM     23  C   UNL     1      -0.102  18.499  18.138  0.00  0.00    +0.000 C 
ATOM     24  C   UNL     1      -1.600  17.190  19.762  0.00  0.00    +0.000 A 
ATOM     25  C   UNL     1      -1.934  15.967  20.428  0.00  0.00    +0.000 A 
ENDBRANCH   8  19
BRANCH  18  26
ATOM     26  C   UNL     1      -4.796  13.867  23.708  0.00  0.00    +0.000 A 
ATOM     27  C   UNL     1      -5.906  12.971  23.452  0.00  0.00    +0.000 A 
ATOM     28  C   UNL     1      -7.248  13.327  23.551  0.00  0.00    +0.000 A 
ATOM     29  C   UNL     1      -7.549  14.643  23.780  0.00  0.00    +0.000 A 
ATOM     30  C   UNL     1      -6.509  15.575  23.893  0.00  0.00    +0.000 A 
ATOM     31  C   UNL     1      -5.140  15.201  23.877  0.00  0.00    +0.000 A 
ENDBRANCH  18  26
BRANCH   1  33
ATOM     32  C   UNL     1      -2.653  10.763  15.960  0.00  0.00    +0.000 C 
ATOM     33  O   UNL     1      -3.926  11.193  16.459  0.00  0.00    +0.000 OA
ENDBRANCH   1  33
TORSDOF 3
ENDMDL
MODEL 3
REMARK VINA RESULT:      -7.2      1.905      2.755
REMARK  Name = 
REMARK  5 active torsions:
REMARK  status: ('A' for Active; 'I' for Inactive)
REMARK    1  A    between atoms: C_1  and  O_2
REMARK    2  A    between atoms: O_2  and  C_3
REMARK    3  A    between atoms: C_10  and  C_11
REMARK    4  A    between atoms: C_14  and  C_15
REMARK    5  A    between atoms: C_27  and  C_28
REMARK                            x       y       z     vdW  Elec       q    Type
REMARK                         _______ _______ _______ _____ _____    ______ ____
ROOT
ATOM      1  C   UNL     1       0.100   9.841  18.196  0.00  0.00    +0.000 A 
ATOM      2  C   UNL     1      -1.176   9.873  17.643  0.00  0.00    +0.000 A 
ATOM      3  C   UNL     1      -2.158  10.732  18.170  0.00  0.00    +0.000 A 
ATOM      4  C   UNL     1      -1.884  11.552  19.262  0.00  0.00    +0.000 A 
ATOM      5  C   UNL     1      -0.703  11.183  20.026  0.00  0.00    +0.000 A 
ATOM      6  C   UNL     1       0.295  10.367  19.458  0.00  0.00    +0.000 A 
ATOM      7  S   UNL     1      -0.262  11.805  21.678  0.00  0.00    +0.000 S 
ATOM      8  C   UNL     1      -1.240  13.346  21.501  0.00  0.00    +0.000 C 
ATOM      9  C   UNL     1      -2.885  12.539  21.638  0.00  0.00    +0.000 C 
ATOM     10  C   UNL     1      -2.954  13.374  20.507  0.00  0.00    +0.000 C 
ATOM     11  N   UNL     1      -2.654  12.818  19.357  0.00  0.00    +0.000 NA
ATOM     12  C   UNL     1      -3.591  14.690  21.139  0.00  0.00    +0.000 A 
ATOM     13  C   UNL     1      -3.246  16.001  21.436  0.00  0.00    +0.000 A 
ATOM     14  C   UNL     1      -4.201  16.848  22.017  0.00  0.00    +0.000 A 
ATOM     15  C   UNL     1      -5.454  16.356  22.401  0.00  0.00    +0.000 A 
ATOM     16  C   UNL     1      -5.705  14.995  22.333  0.00  0.00    +0.000 A 
ATOM     17  C   UNL     1      -4.715  14.208  21.775  0.00  0.00    +0.000 A 
ATOM     18  C   UNL     1      -4.648  12.768  21.443  0.00  0.00    +0.000 C 
ENDROOT
BRANCH   8  19
ATOM     19  C   UNL     1      -0.521  14.184  20.124  0.00  0.00    +0.000 A 
ATOM     20  C   UNL     1       0.681  13.759  19.493  0.00  0.00    +0.000 A 
ATOM     21  C   UNL     1       1.625  14.607  18.903  0.00  0.00    +0.000 A 
ATOM     22  C   UNL     1       1.383  15.956  18.808  0.00  0.00    +0.000 A 
ATOM     23  C   UNL     1       2.489  16.844  18.325  0.00  0.00    +0.000 C 
ATOM     24  C   UNL     1       0.105  16.391  19.165  0.00  0.00    +0.000 A 
ATOM     25  C   UNL     1      -0.847  15.517  19.781  0.00  0.00    +0.000 A 
ENDBRANCH   8  19
BRANCH  18  26
ATOM     26  C   UNL     1      -5.388  12.678  19.982  0.00  0.00    +0.000 A 
ATOM     27  C   UNL     1      -5.622  11.401  19.336  0.00  0.00    +0.000 A 
ATOM     28  C   UNL     1      -6.513  11.198  18.285  0.00  0.00    +0.000 A 
ATOM     29  C   UNL     1      -7.116  12.296  17.733  0.00  0.00    +0.000 A 
ATOM     30  C   UNL     1      -6.812  13.570  18.232  0.00  0.00    +0.000 A 
ATOM     31  C   UNL     1      -5.971  13.771  19.358  0.00  0.00    +0.000 A 
ENDBRANCH  18  26
BRANCH   1  33
ATOM     32  C   UNL     1       2.027   8.543  18.441  0.00  0.00    +0.000 C 
ATOM     33  O   UNL     1       1.171   9.279  17.558  0.00  0.00    +0.000 OA
ENDBRANCH   1  33
TORSDOF 3
ENDMDL
MODEL 4
REMARK VINA RESULT:      -6.9      1.758      2.087
REMARK  Name = 
REMARK  5 active torsions:
REMARK  status: ('A' for Active; 'I' for Inactive)
REMARK    1  A    between atoms: C_1  and  O_2
REMARK    2  A    between atoms: O_2  and  C_3
REMARK    3  A    between atoms: C_10  and  C_11
REMARK    4  A    between atoms: C_14  and  C_15
REMARK    5  A    between atoms: C_27  and  C_28
REMARK                            x       y       z     vdW  Elec       q    Type
REMARK                         _______ _______ _______ _____ _____    ______ ____
ROOT
ATOM      1  C   UNL     1      -0.296  10.016  18.339  0.00  0.00    +0.000 A 
ATOM      2  C   UNL     1      -1.488  10.548  17.857  0.00  0.00    +0.000 A 
ATOM      3  C   UNL     1      -2.246  11.427  18.651  0.00  0.00    +0.000 A 
ATOM      4  C   UNL     1      -1.836  11.769  19.937  0.00  0.00    +0.000 A 
ATOM      5  C   UNL     1      -0.835  10.889  20.516  0.00  0.00    +0.000 A 
ATOM      6  C   UNL     1      -0.047  10.057  19.697  0.00  0.00    +0.000 A 
ATOM      7  S   UNL     1      -0.346  10.834  22.268  0.00  0.00    +0.000 S 
ATOM      8  C   UNL     1      -0.887  12.553  22.607  0.00  0.00    +0.000 C 
ATOM      9  C   UNL     1      -2.688  12.200  22.527  0.00  0.00    +0.000 C 
ATOM     10  C   UNL     1      -2.476  13.331  21.717  0.00  0.00    +0.000 C 
ATOM     11  N   UNL     1      -2.262  13.099  20.444  0.00  0.00    +0.000 NA
ATOM     12  C   UNL     1      -2.792  14.505  22.745  0.00  0.00    +0.000 A 
ATOM     13  C   UNL     1      -2.141  15.523  23.428  0.00  0.00    +0.000 A 
ATOM     14  C   UNL     1      -2.881  16.368  24.269  0.00  0.00    +0.000 A 
ATOM     15  C   UNL     1      -4.237  16.126  24.513  0.00  0.00    +0.000 A 
ATOM     16  C   UNL     1      -4.823  14.967  24.029  0.00  0.00    +0.000 A 
ATOM     17  C   UNL     1      -4.037  14.161  23.227  0.00  0.00    +0.000 A 
ATOM     18  C   UNL     1      -4.319  12.928  22.460  0.00  0.00    +0.000 C 
ENDROOT
BRANCH   8  19
ATOM     19  C   UNL     1       0.101  13.556  21.544  0.00  0.00    +0.000 A 
ATOM     20  C   UNL     1       1.287  13.092  20.911  0.00  0.00    +0.000 A 
ATOM     21  C   UNL     1       2.409  13.877  20.624  0.00  0.00    +0.000 A 
ATOM     22  C   UNL     1       2.388  15.230  20.859  0.00  0.00    +0.000 A 
ATOM     23  C   UNL     1       3.664  15.999  20.697  0.00  0.00    +0.000 C 
ATOM     24  C   UNL     1       1.159  15.784  21.226  0.00  0.00    +0.000 A 
ATOM     25  C   UNL     1       0.023  14.968  21.530  0.00  0.00    +0.000 A 
ENDBRANCH   8  19
BRANCH  18  26
ATOM     26  C   UNL     1      -4.973  13.489  21.063  0.00  0.00    +0.000 A 
ATOM     27  C   UNL     1      -5.483  12.582  20.055  0.00  0.00    +0.000 A 
ATOM     28  C   UNL     1      -6.334  12.951  19.016  0.00  0.00    +0.000 A 
ATOM     29  C   UNL     1      -6.608  14.282  18.853  0.00  0.00    +0.000 A 
ATOM     30  C   UNL     1      -6.022  15.215  19.719  0.00  0.00    +0.000 A 
ATOM     31  C   UNL     1      -5.224  14.834  20.829  0.00  0.00    +0.000 A 
ENDBRANCH  18  26
BRANCH   1  33
ATOM     32  C   UNL     1       1.907   9.260  18.163  0.00  0.00    +0.000 C 
ATOM     33  O   UNL     1       0.631   9.421  17.529  0.00  0.00    +0.000 OA
ENDBRANCH   1  33
TORSDOF 3
ENDMDL
MODEL 5
REMARK VINA RESULT:      -6.8      1.842      2.978
REMARK  Name = 
REMARK  5 active torsions:
REMARK  status: ('A' for Active; 'I' for Inactive)
REMARK    1  A    between atoms: C_1  and  O_2
REMARK    2  A    between atoms: O_2  and  C_3
REMARK    3  A    between atoms: C_10  and  C_11
REMARK    4  A    between atoms: C_14  and  C_15
REMARK    5  A    between atoms: C_27  and  C_28
REMARK                            x       y       z     vdW  Elec       q    Type
REMARK                         _______ _______ _______ _____ _____    ______ ____
ROOT
ATOM      1  C   UNL     1      -0.272  10.186  18.404  0.00  0.00    +0.000 A 
ATOM      2  C   UNL     1      -1.547  10.129  17.849  0.00  0.00    +0.000 A 
ATOM      3  C   UNL     1      -2.590  10.906  18.382  0.00  0.00    +0.000 A 
ATOM      4  C   UNL     1      -2.380  11.732  19.484  0.00  0.00    +0.000 A 
ATOM      5  C   UNL     1      -1.177  11.445  20.246  0.00  0.00    +0.000 A 
ATOM      6  C   UNL     1      -0.119  10.712  19.673  0.00  0.00    +0.000 A 
ATOM      7  S   UNL     1      -0.786  12.081  21.905  0.00  0.00    +0.000 S 
ATOM      8  C   UNL     1      -1.876  13.547  21.742  0.00  0.00    +0.000 C 
ATOM      9  C   UNL     1      -3.456  12.617  21.867  0.00  0.00    +0.000 C 
ATOM     10  C   UNL     1      -3.585  13.457  20.745  0.00  0.00    +0.000 C 
ATOM     11  N   UNL     1      -3.243  12.937  19.590  0.00  0.00    +0.000 NA
ATOM     12  C   UNL     1      -4.320  14.714  21.389  0.00  0.00    +0.000 A 
ATOM     13  C   UNL     1      -4.075  16.044  21.701  0.00  0.00    +0.000 A 
ATOM     14  C   UNL     1      -5.092  16.812  22.288  0.00  0.00    +0.000 A 
ATOM     15  C   UNL     1      -6.305  16.223  22.664  0.00  0.00    +0.000 A 
ATOM     16  C   UNL     1      -6.453  14.848  22.582  0.00  0.00    +0.000 A 
ATOM     17  C   UNL     1      -5.407  14.143  22.018  0.00  0.00    +0.000 A 
ATOM     18  C   UNL     1      -5.231  12.716  21.671  0.00  0.00    +0.000 C 
ENDROOT
BRANCH   8  19
ATOM     19  C   UNL     1      -1.220  14.450  20.376  0.00  0.00    +0.000 A 
ATOM     20  C   UNL     1      -0.036  14.070  19.685  0.00  0.00    +0.000 A 
ATOM     21  C   UNL     1       0.875  14.956  19.097  0.00  0.00    +0.000 A 
ATOM     22  C   UNL     1       0.610  16.303  19.066  0.00  0.00    +0.000 A 
ATOM     23  C   UNL     1       1.685  17.227  18.580  0.00  0.00    +0.000 C 
ATOM     24  C   UNL     1      -0.660  16.704  19.486  0.00  0.00    +0.000 A 
ATOM     25  C   UNL     1      -1.576  15.791  20.099  0.00  0.00    +0.000 A 
ENDBRANCH   8  19
BRANCH  18  26
ATOM     26  C   UNL     1      -5.961  12.586  20.207  0.00  0.00    +0.000 A 
ATOM     27  C   UNL     1      -6.346  13.762  19.453  0.00  0.00    +0.000 A 
ATOM     28  C   UNL     1      -6.658  13.764  18.096  0.00  0.00    +0.000 A 
ATOM     29  C   UNL     1      -6.734  12.558  17.452  0.00  0.00    +0.000 A 
ATOM     30  C   UNL     1      -6.508  11.379  18.175  0.00  0.00    +0.000 A 
ATOM     31  C   UNL     1      -6.107  11.380  19.536  0.00  0.00    +0.000 A 
ENDBRANCH  18  26
BRANCH   1  33
ATOM     32  C   UNL     1       1.699   8.952  18.620  0.00  0.00    +0.000 C 
ATOM     33  O   UNL     1       0.838   9.713  17.763  0.00  0.00    +0.000 OA
ENDBRANCH   1  33
TORSDOF 3
ENDMDL
MODEL 6
REMARK VINA RESULT:      -6.7      3.064      5.811
REMARK  Name = 
REMARK  5 active torsions:
REMARK  status: ('A' for Active; 'I' for Inactive)
REMARK    1  A    between atoms: C_1  and  O_2
REMARK    2  A    between atoms: O_2  and  C_3
REMARK    3  A    between atoms: C_10  and  C_11
REMARK    4  A    between atoms: C_14  and  C_15
REMARK    5  A    between atoms: C_27  and  C_28
REMARK                            x       y       z     vdW  Elec       q    Type
REMARK                         _______ _______ _______ _____ _____    ______ ____
ROOT
ATOM      1  C   UNL     1       3.552  14.941  19.958  0.00  0.00    +0.000 A 
ATOM      2  C   UNL     1       3.535  15.537  21.214  0.00  0.00    +0.000 A 
ATOM      3  C   UNL     1       2.374  15.494  22.007  0.00  0.00    +0.000 A 
ATOM      4  C   UNL     1       1.214  14.874  21.548  0.00  0.00    +0.000 A 
ATOM      5  C   UNL     1       1.169  14.641  20.114  0.00  0.00    +0.000 A 
ATOM      6  C   UNL     1       2.351  14.632  19.348  0.00  0.00    +0.000 A 
ATOM      7  S   UNL     1      -0.308  14.185  19.153  0.00  0.00    +0.000 S 
ATOM      8  C   UNL     1      -1.184  13.465  20.594  0.00  0.00    +0.000 C 
ATOM      9  C   UNL     1      -1.537  15.070  21.417  0.00  0.00    +0.000 C 
ATOM     10  C   UNL     1      -0.992  14.234  22.409  0.00  0.00    +0.000 C 
ATOM     11  N   UNL     1       0.307  14.307  22.579  0.00  0.00    +0.000 NA
ATOM     12  C   UNL     1      -2.315  13.648  23.073  0.00  0.00    +0.000 A 
ATOM     13  C   UNL     1      -3.007  12.450  23.186  0.00  0.00    +0.000 A 
ATOM     14  C   UNL     1      -4.199  12.411  23.925  0.00  0.00    +0.000 A 
ATOM     15  C   UNL     1      -4.752  13.584  24.451  0.00  0.00    +0.000 A 
ATOM     16  C   UNL     1      -4.194  14.810  24.126  0.00  0.00    +0.000 A 
ATOM     17  C   UNL     1      -3.035  14.785  23.374  0.00  0.00    +0.000 A 
ATOM     18  C   UNL     1      -2.109  15.847  22.922  0.00  0.00    +0.000 C 
ENDROOT
BRANCH   8  19
ATOM     19  C   UNL     1      -0.154  12.138  21.134  0.00  0.00    +0.000 A 
ATOM     20  C   UNL     1       0.821  11.519  20.304  0.00  0.00    +0.000 A 
ATOM     21  C   UNL     1       1.190  10.170  20.361  0.00  0.00    +0.000 A 
ATOM     22  C   UNL     1       0.679   9.352  21.339  0.00  0.00    +0.000 A 
ATOM     23  C   UNL     1       0.969   7.884  21.260  0.00  0.00    +0.000 C 
ATOM     24  C   UNL     1      -0.072   9.967  22.344  0.00  0.00    +0.000 A 
ATOM     25  C   UNL     1      -0.455  11.344  22.265  0.00  0.00    +0.000 A 
ENDBRANCH   8  19
BRANCH  18  26
ATOM     26  C   UNL     1      -1.130  16.077  24.218  0.00  0.00    +0.000 A 
ATOM     27  C   UNL     1      -0.074  17.070  24.195  0.00  0.00    +0.000 A 
ATOM     28  C   UNL     1       0.576  17.560  25.324  0.00  0.00    +0.000 A 
ATOM     29  C   UNL     1       0.295  16.977  26.531  0.00  0.00    +0.000 A 
ATOM     30  C   UNL     1      -0.617  15.914  26.584  0.00  0.00    +0.000 A 
ATOM     31  C   UNL     1      -1.343  15.470  25.448  0.00  0.00    +0.000 A 
ENDBRANCH  18  26
BRANCH   1  33
ATOM     32  C   UNL     1       4.643  15.044  17.896  0.00  0.00    +0.000 C 
ATOM     33  O   UNL     1       4.708  14.673  19.279  0.00  0.00    +0.000 OA
ENDBRANCH   1  33
TORSDOF 3
ENDMDL
MODEL 7
REMARK VINA RESULT:      -6.7     10.244     13.670
REMARK  Name = 
REMARK  5 active torsions:
REMARK  status: ('A' for Active; 'I' for Inactive)
REMARK    1  A    between atoms: C_1  and  O_2
REMARK    2  A    between atoms: O_2  and  C_3
REMARK    3  A    between atoms: C_10  and  C_11
REMARK    4  A    between atoms: C_14  and  C_15
REMARK    5  A    between atoms: C_27  and  C_28
REMARK                            x       y       z     vdW  Elec       q    Type
REMARK                         _______ _______ _______ _____ _____    ______ ____
ROOT
ATOM      1  C   UNL     1       7.239  12.712  23.985  0.00  0.00    +0.000 A 
ATOM      2  C   UNL     1       7.866  11.890  23.054  0.00  0.00    +0.000 A 
ATOM      3  C   UNL     1       8.570  12.449  21.972  0.00  0.00    +0.000 A 
ATOM      4  C   UNL     1       8.641  13.829  21.797  0.00  0.00    +0.000 A 
ATOM      5  C   UNL     1       7.655  14.594  22.542  0.00  0.00    +0.000 A 
ATOM      6  C   UNL     1       7.001  14.033  23.658  0.00  0.00    +0.000 A 
ATOM      7  S   UNL     1       7.242  16.346  22.280  0.00  0.00    +0.000 S 
ATOM      8  C   UNL     1       8.860  16.748  21.516  0.00  0.00    +0.000 C 
ATOM      9  C   UNL     1       8.542  15.866  19.936  0.00  0.00    +0.000 C 
ATOM     10  C   UNL     1       9.813  15.444  20.370  0.00  0.00    +0.000 C 
ATOM     11  N   UNL     1       9.843  14.354  21.100  0.00  0.00    +0.000 NA
ATOM     12  C   UNL     1      10.756  16.450  19.573  0.00  0.00    +0.000 A 
ATOM     13  C   UNL     1      11.610  17.518  19.809  0.00  0.00    +0.000 A 
ATOM     14  C   UNL     1      12.271  18.121  18.728  0.00  0.00    +0.000 A 
ATOM     15  C   UNL     1      11.993  17.731  17.413  0.00  0.00    +0.000 A 
ATOM     16  C   UNL     1      10.961  16.841  17.167  0.00  0.00    +0.000 A 
ATOM     17  C   UNL     1      10.330  16.300  18.271  0.00  0.00    +0.000 A 
ATOM     18  C   UNL     1       9.280  15.268  18.421  0.00  0.00    +0.000 C 
ENDROOT
BRANCH   8  19
ATOM     19  C   UNL     1      10.052  16.397  22.769  0.00  0.00    +0.000 A 
ATOM     20  C   UNL     1       9.703  16.013  24.093  0.00  0.00    +0.000 A 
ATOM     21  C   UNL     1      10.434  16.331  25.244  0.00  0.00    +0.000 A 
ATOM     22  C   UNL     1      11.642  16.976  25.143  0.00  0.00    +0.000 A 
ATOM     23  C   UNL     1      12.305  17.444  26.402  0.00  0.00    +0.000 C 
ATOM     24  C   UNL     1      12.163  17.136  23.856  0.00  0.00    +0.000 A 
ATOM     25  C   UNL     1      11.399  16.821  22.687  0.00  0.00    +0.000 A 
ENDBRANCH   8  19
BRANCH  18  26
ATOM     26  C   UNL     1      10.118  13.859  18.349  0.00  0.00    +0.000 A 
ATOM     27  C   UNL     1      11.566  13.842  18.406  0.00  0.00    +0.000 A 
ATOM     28  C   UNL     1      12.333  12.714  18.680  0.00  0.00    +0.000 A 
ATOM     29  C   UNL     1      11.692  11.508  18.776  0.00  0.00    +0.000 A 
ATOM     30  C   UNL     1      10.304  11.452  18.587  0.00  0.00    +0.000 A 
ATOM     31  C   UNL     1       9.510  12.612  18.392  0.00  0.00    +0.000 A 
ENDBRANCH  18  26
BRANCH   1  33
ATOM     32  C   UNL     1       5.922  11.145  25.109  0.00  0.00    +0.000 C 
ATOM     33  O   UNL     1       6.814  12.263  25.204  0.00  0.00    +0.000 OA
ENDBRANCH   1  33
TORSDOF 3
ENDMDL
MODEL 8
REMARK VINA RESULT:      -6.6      1.963      3.039
REMARK  Name = 
REMARK  5 active torsions:
REMARK  status: ('A' for Active; 'I' for Inactive)
REMARK    1  A    between atoms: C_1  and  O_2
REMARK    2  A    between atoms: O_2  and  C_3
REMARK    3  A    between atoms: C_10  and  C_11
REMARK    4  A    between atoms: C_14  and  C_15
REMARK    5  A    between atoms: C_27  and  C_28
REMARK                            x       y       z     vdW  Elec       q    Type
REMARK                         _______ _______ _______ _____ _____    ______ ____
ROOT
ATOM      1  C   UNL     1      -0.136  11.029  18.949  0.00  0.00    +0.000 A 
ATOM      2  C   UNL     1      -1.338  11.063  18.251  0.00  0.00    +0.000 A 
ATOM      3  C   UNL     1      -2.470  11.681  18.813  0.00  0.00    +0.000 A 
ATOM      4  C   UNL     1      -2.420  12.253  20.082  0.00  0.00    +0.000 A 
ATOM      5  C   UNL     1      -1.293  11.836  20.899  0.00  0.00    +0.000 A 
ATOM      6  C   UNL     1      -0.145  11.271  20.309  0.00  0.00    +0.000 A 
ATOM      7  S   UNL     1      -1.114  12.106  22.690  0.00  0.00    +0.000 S 
ATOM      8  C   UNL     1      -2.250  13.546  22.718  0.00  0.00    +0.000 C 
ATOM      9  C   UNL     1      -3.787  12.573  22.459  0.00  0.00    +0.000 C 
ATOM     10  C   UNL     1      -3.836  13.633  21.534  0.00  0.00    +0.000 C 
ATOM     11  N   UNL     1      -3.347  13.385  20.342  0.00  0.00    +0.000 NA
ATOM     12  C   UNL     1      -4.696  14.703  22.342  0.00  0.00    +0.000 A 
ATOM     13  C   UNL     1      -4.550  15.939  22.956  0.00  0.00    +0.000 A 
ATOM     14  C   UNL     1      -5.660  16.536  23.572  0.00  0.00    +0.000 A 
ATOM     15  C   UNL     1      -6.876  15.851  23.671  0.00  0.00    +0.000 A 
ATOM     16  C   UNL     1      -6.948  14.523  23.281  0.00  0.00    +0.000 A 
ATOM     17  C   UNL     1      -5.814  13.983  22.704  0.00  0.00    +0.000 A 
ATOM     18  C   UNL     1      -5.533  12.670  22.084  0.00  0.00    +0.000 C 
ENDROOT
BRANCH   8  19
ATOM     19  C   UNL     1      -1.495  14.740  21.661  0.00  0.00    +0.000 A 
ATOM     20  C   UNL     1      -0.151  14.641  21.206  0.00  0.00    +0.000 A 
ATOM     21  C   UNL     1       0.698  15.725  20.955  0.00  0.00    +0.000 A 
ATOM     22  C   UNL     1       0.224  17.011  21.041  0.00  0.00    +0.000 A 
ATOM     23  C   UNL     1       1.205  18.139  20.930  0.00  0.00    +0.000 C 
ATOM     24  C   UNL     1      -1.154  17.163  21.218  0.00  0.00    +0.000 A 
ATOM     25  C   UNL     1      -2.008  16.046  21.489  0.00  0.00    +0.000 A 
ENDBRANCH   8  19
BRANCH  18  26
ATOM     26  C   UNL     1      -6.094  12.843  20.552  0.00  0.00    +0.000 A 
ATOM     27  C   UNL     1      -6.104  11.729  19.625  0.00  0.00    +0.000 A 
ATOM     28  C   UNL     1      -6.844  11.687  18.447  0.00  0.00    +0.000 A 
ATOM     29  C   UNL     1      -7.509  12.821  18.065  0.00  0.00    +0.000 A 
ATOM     30  C   UNL     1      -7.414  13.972  18.858  0.00  0.00    +0.000 A 
ATOM     31  C   UNL     1      -6.730  13.991  20.102  0.00  0.00    +0.000 A 
ENDBRANCH  18  26
BRANCH   1  33
ATOM     32  C   UNL     1       1.285   9.325  18.219  0.00  0.00    +0.000 C 
ATOM     33  O   UNL     1       1.059  10.734  18.354  0.00  0.00    +0.000 OA
ENDBRANCH   1  33
TORSDOF 3
ENDMDL
MODEL 9
REMARK VINA RESULT:      -6.6      2.180      5.876
REMARK  Name = 
REMARK  5 active torsions:
REMARK  status: ('A' for Active; 'I' for Inactive)
REMARK    1  A    between atoms: C_1  and  O_2
REMARK    2  A    between atoms: O_2  and  C_3
REMARK    3  A    between atoms: C_10  and  C_11
REMARK    4  A    between atoms: C_14  and  C_15
REMARK    5  A    between atoms: C_27  and  C_28
REMARK                            x       y       z     vdW  Elec       q    Type
REMARK                         _______ _______ _______ _____ _____    ______ ____
ROOT
ATOM      1  C   UNL     1      -4.940  13.047  22.676  0.00  0.00    +0.000 A 
ATOM      2  C   UNL     1      -4.914  14.259  21.994  0.00  0.00    +0.000 A 
ATOM      3  C   UNL     1      -3.753  14.665  21.310  0.00  0.00    +0.000 A 
ATOM      4  C   UNL     1      -2.604  13.878  21.315  0.00  0.00    +0.000 A 
ATOM      5  C   UNL     1      -2.562  12.859  22.351  0.00  0.00    +0.000 A 
ATOM      6  C   UNL     1      -3.745  12.427  22.984  0.00  0.00    +0.000 A 
ATOM      7  S   UNL     1      -1.094  11.912  22.859  0.00  0.00    +0.000 S 
ATOM      8  C   UNL     1      -0.231  12.143  21.257  0.00  0.00    +0.000 C 
ATOM      9  C   UNL     1       0.149  13.923  21.507  0.00  0.00    +0.000 C 
ATOM     10  C   UNL     1      -0.410  13.821  20.220  0.00  0.00    +0.000 C 
ATOM     11  N   UNL     1      -1.707  13.996  20.137  0.00  0.00    +0.000 NA
ATOM     12  C   UNL     1       0.903  13.707  19.326  0.00  0.00    +0.000 A 
ATOM     13  C   UNL     1       1.574  12.783  18.536  0.00  0.00    +0.000 A 
ATOM     14  C   UNL     1       2.765  13.162  17.898  0.00  0.00    +0.000 A 
ATOM     15  C   UNL     1       3.338  14.415  18.139  0.00  0.00    +0.000 A 
ATOM     16  C   UNL     1       2.801  15.237  19.117  0.00  0.00    +0.000 A 
ATOM     17  C   UNL     1       1.642  14.799  19.729  0.00  0.00    +0.000 A 
ATOM     18  C   UNL     1       0.735  15.418  20.720  0.00  0.00    +0.000 C 
ENDROOT
BRANCH   8  19
ATOM     19  C   UNL     1      -1.283  11.385  20.062  0.00  0.00    +0.000 A 
ATOM     20  C   UNL     1      -0.903  10.251  19.293  0.00  0.00    +0.000 A 
ATOM     21  C   UNL     1      -1.315   9.989  17.981  0.00  0.00    +0.000 A 
ATOM     22  C   UNL     1      -2.237  10.802  17.369  0.00  0.00    +0.000 A 
ATOM     23  C   UNL     1      -2.521  10.584  15.914  0.00  0.00    +0.000 C 
ATOM     24  C   UNL     1      -2.848  11.772  18.168  0.00  0.00    +0.000 A 
ATOM     25  C   UNL     1      -2.406  12.039  19.503  0.00  0.00    +0.000 A 
ENDBRANCH   8  19
BRANCH  18  26
ATOM     26  C   UNL     1      -0.240  16.368  19.804  0.00  0.00    +0.000 A 
ATOM     27  C   UNL     1      -1.245  17.218  20.411  0.00  0.00    +0.000 A 
ATOM     28  C   UNL     1      -1.877  18.278  19.767  0.00  0.00    +0.000 A 
ATOM     29  C   UNL     1      -1.635  18.455  18.431  0.00  0.00    +0.000 A 
ATOM     30  C   UNL     1      -0.777  17.568  17.766  0.00  0.00    +0.000 A 
ATOM     31  C   UNL     1      -0.066  16.541  18.438  0.00  0.00    +0.000 A 
ENDBRANCH  18  26
BRANCH   1  33
ATOM     32  C   UNL     1      -7.151  12.543  22.118  0.00  0.00    +0.000 C 
ATOM     33  O   UNL     1      -6.100  12.453  23.088  0.00  0.00    +0.000 OA
ENDBRANCH   1  33
TORSDOF 3
ENDMDL
