MODEL 1
REMARK VINA RESULT:      -6.1      0.000      0.000
REMARK  Name = 
REMARK  5 active torsions:
REMARK  status: ('A' for Active; 'I' for Inactive)
REMARK    1  A    between atoms: C_2  and  O_3
REMARK    2  A    between atoms: C_2  and  C_4
REMARK    3  A    between atoms: C_5  and  C_6
REMARK    4  A    between atoms: C_6  and  O_7
REMARK    5  A    between atoms: C_6  and  C_8
REMARK                            x       y       z     vdW  Elec       q    Type
REMARK                         _______ _______ _______ _____ _____    ______ ____
ROOT
ATOM      1  C   UNL     1       6.459   4.977  14.802  0.00  0.00    +0.000 C 
ENDROOT
BRANCH   1   2
ATOM      2  C   UNL     1       5.383   5.139  15.863  0.00  0.00    +0.000 A 
ATOM      3  C   UNL     1       5.088   6.424  16.349  0.00  0.00    +0.000 A 
ATOM      4  C   UNL     1       4.131   6.611  17.353  0.00  0.00    +0.000 A 
ATOM      5  C   UNL     1       3.464   5.513  17.883  0.00  0.00    +0.000 A 
ATOM      6 CL   UNL     1       2.304   5.738  19.133  0.00  0.00    +0.000 Cl
ATOM      7  C   UNL     1       3.735   4.228  17.410  0.00  0.00    +0.000 A 
ATOM      8  C   UNL     1       4.687   4.043  16.401  0.00  0.00    +0.000 A 
ENDBRANCH   1   2
BRANCH   1  10
ATOM      9  C   UNL     1       5.395   3.901  12.793  0.00  0.00    +0.000 C 
ATOM     10  C   UNL     1       6.224   3.830  13.850  0.00  0.00    +0.000 C 
BRANCH   9  12
ATOM     11  O   UNL     1       4.107   2.892  11.100  0.00  0.00    +0.000 OA
ATOM     12  C   UNL     1       5.103   2.847  11.803  0.00  0.00    +0.000 C 
BRANCH  12  13
ATOM     13  O   UNL     1       5.988   1.839  11.759  0.00  0.00    +0.000 OA
ATOM     14  H   UNL     1       5.628   0.997  11.431  0.00  0.00    +0.000 HD
ENDBRANCH  12  13
ENDBRANCH   9  12
ENDBRANCH   1  10
BRANCH   1  15
ATOM     15  O   UNL     1       7.736   4.844  15.411  0.00  0.00    +0.000 OA
ATOM     16  H   UNL     1       8.078   3.961  15.196  0.00  0.00    +0.000 HD
ENDBRANCH   1  15
TORSDOF 5
ENDMDL
MODEL 2
REMARK VINA RESULT:      -6.0      2.361      3.606
REMARK  Name = 
REMARK  5 active torsions:
REMARK  status: ('A' for Active; 'I' for Inactive)
REMARK    1  A    between atoms: C_2  and  O_3
REMARK    2  A    between atoms: C_2  and  C_4
REMARK    3  A    between atoms: C_5  and  C_6
REMARK    4  A    between atoms: C_6  and  O_7
REMARK    5  A    between atoms: C_6  and  C_8
REMARK                            x       y       z     vdW  Elec       q    Type
REMARK                         _______ _______ _______ _____ _____    ______ ____
ROOT
ATOM      1  C   UNL     1       5.675   5.566  18.593  0.00  0.00    +0.000 C 
ENDROOT
BRANCH   1   2
ATOM      2  C   UNL     1       4.417   4.714  18.604  0.00  0.00    +0.000 A 
ATOM      3  C   UNL     1       3.218   5.256  18.111  0.00  0.00    +0.000 A 
ATOM      4  C   UNL     1       2.029   4.518  18.138  0.00  0.00    +0.000 A 
ATOM      5  C   UNL     1       2.029   3.231  18.664  0.00  0.00    +0.000 A 
ATOM      6 CL   UNL     1       0.564   2.331  18.719  0.00  0.00    +0.000 Cl
ATOM      7  C   UNL     1       3.209   2.669  19.151  0.00  0.00    +0.000 A 
ATOM      8  C   UNL     1       4.398   3.405  19.118  0.00  0.00    +0.000 A 
ENDBRANCH   1   2
BRANCH   1  10
ATOM      9  C   UNL     1       6.117   4.709  16.271  0.00  0.00    +0.000 C 
ATOM     10  C   UNL     1       6.463   5.492  17.309  0.00  0.00    +0.000 C 
BRANCH   9  12
ATOM     11  O   UNL     1       7.681   5.352  14.631  0.00  0.00    +0.000 OA
ATOM     12  C   UNL     1       6.809   4.570  14.975  0.00  0.00    +0.000 C 
BRANCH  12  13
ATOM     13  O   UNL     1       6.393   3.550  14.209  0.00  0.00    +0.000 OA
ATOM     14  H   UNL     1       5.587   3.731  13.695  0.00  0.00    +0.000 HD
ENDBRANCH  12  13
ENDBRANCH   9  12
ENDBRANCH   1  10
BRANCH   1  15
ATOM     15  O   UNL     1       6.511   5.225  19.691  0.00  0.00    +0.000 OA
ATOM     16  H   UNL     1       6.154   5.660  20.483  0.00  0.00    +0.000 HD
ENDBRANCH   1  15
TORSDOF 5
ENDMDL
MODEL 3
REMARK VINA RESULT:      -6.0      2.382      3.768
REMARK  Name = 
REMARK  5 active torsions:
REMARK  status: ('A' for Active; 'I' for Inactive)
REMARK    1  A    between atoms: C_2  and  O_3
REMARK    2  A    between atoms: C_2  and  C_4
REMARK    3  A    between atoms: C_5  and  C_6
REMARK    4  A    between atoms: C_6  and  O_7
REMARK    5  A    between atoms: C_6  and  C_8
REMARK                            x       y       z     vdW  Elec       q    Type
REMARK                         _______ _______ _______ _____ _____    ______ ____
ROOT
ATOM      1  C   UNL     1       5.781   5.594  18.666  0.00  0.00    +0.000 C 
ENDROOT
BRANCH   1   2
ATOM      2  C   UNL     1       4.473   4.821  18.700  0.00  0.00    +0.000 A 
ATOM      3  C   UNL     1       4.444   3.550  19.297  0.00  0.00    +0.000 A 
ATOM      4  C   UNL     1       3.269   2.789  19.316  0.00  0.00    +0.000 A 
ATOM      5  C   UNL     1       2.112   3.294  18.732  0.00  0.00    +0.000 A 
ATOM      6 CL   UNL     1       0.673   2.352  18.733  0.00  0.00    +0.000 Cl
ATOM      7  C   UNL     1       2.116   4.557  18.140  0.00  0.00    +0.000 A 
ATOM      8  C   UNL     1       3.289   5.319  18.128  0.00  0.00    +0.000 A 
ENDBRANCH   1   2
BRANCH   1  10
ATOM      9  C   UNL     1       6.212   4.662  16.371  0.00  0.00    +0.000 C 
ATOM     10  C   UNL     1       6.486   5.562  17.333  0.00  0.00    +0.000 C 
BRANCH   9  12
ATOM     11  O   UNL     1       7.665   5.355  14.651  0.00  0.00    +0.000 OA
ATOM     12  C   UNL     1       6.834   4.550  15.037  0.00  0.00    +0.000 C 
BRANCH  12  13
ATOM     13  O   UNL     1       6.400   3.525  14.286  0.00  0.00    +0.000 OA
ATOM     14  H   UNL     1       5.541   3.674  13.854  0.00  0.00    +0.000 HD
ENDBRANCH  12  13
ENDBRANCH   9  12
ENDBRANCH   1  10
BRANCH   1  15
ATOM     15  O   UNL     1       6.655   5.127  19.685  0.00  0.00    +0.000 OA
ATOM     16  H   UNL     1       6.178   4.461  20.204  0.00  0.00    +0.000 HD
ENDBRANCH   1  15
TORSDOF 5
ENDMDL
MODEL 4
REMARK VINA RESULT:      -6.0      2.505      3.885
REMARK  Name = 
REMARK  5 active torsions:
REMARK  status: ('A' for Active; 'I' for Inactive)
REMARK    1  A    between atoms: C_2  and  O_3
REMARK    2  A    between atoms: C_2  and  C_4
REMARK    3  A    between atoms: C_5  and  C_6
REMARK    4  A    between atoms: C_6  and  O_7
REMARK    5  A    between atoms: C_6  and  C_8
REMARK                            x       y       z     vdW  Elec       q    Type
REMARK                         _______ _______ _______ _____ _____    ______ ____
ROOT
ATOM      1  C   UNL     1       6.271   5.484  18.859  0.00  0.00    +0.000 C 
ENDROOT
BRANCH   1   2
ATOM      2  C   UNL     1       4.896   4.924  19.181  0.00  0.00    +0.000 A 
ATOM      3  C   UNL     1       4.738   3.535  19.321  0.00  0.00    +0.000 A 
ATOM      4  C   UNL     1       3.481   2.976  19.580  0.00  0.00    +0.000 A 
ATOM      5  C   UNL     1       2.370   3.803  19.696  0.00  0.00    +0.000 A 
ATOM      6 CL   UNL     1       0.820   3.116  19.991  0.00  0.00    +0.000 Cl
ATOM      7  C   UNL     1       2.504   5.186  19.568  0.00  0.00    +0.000 A 
ATOM      8  C   UNL     1       3.762   5.744  19.316  0.00  0.00    +0.000 A 
ENDBRANCH   1   2
BRANCH   1  10
ATOM      9  C   UNL     1       6.329   5.189  16.363  0.00  0.00    +0.000 C 
ATOM     10  C   UNL     1       6.867   4.964  17.575  0.00  0.00    +0.000 C 
BRANCH   9  12
ATOM     11  O   UNL     1       6.387   3.739  14.508  0.00  0.00    +0.000 OA
ATOM     12  C   UNL     1       6.833   4.736  15.053  0.00  0.00    +0.000 C 
BRANCH  12  13
ATOM     13  O   UNL     1       7.823   5.477  14.530  0.00  0.00    +0.000 OA
ATOM     14  H   UNL     1       8.613   5.552  15.092  0.00  0.00    +0.000 HD
ENDBRANCH  12  13
ENDBRANCH   9  12
ENDBRANCH   1  10
BRANCH   1  15
ATOM     15  O   UNL     1       7.166   5.244  19.938  0.00  0.00    +0.000 OA
ATOM     16  H   UNL     1       7.521   4.347  19.835  0.00  0.00    +0.000 HD
ENDBRANCH   1  15
TORSDOF 5
ENDMDL
MODEL 5
REMARK VINA RESULT:      -6.0      0.638      1.420
REMARK  Name = 
REMARK  5 active torsions:
REMARK  status: ('A' for Active; 'I' for Inactive)
REMARK    1  A    between atoms: C_2  and  O_3
REMARK    2  A    between atoms: C_2  and  C_4
REMARK    3  A    between atoms: C_5  and  C_6
REMARK    4  A    between atoms: C_6  and  O_7
REMARK    5  A    between atoms: C_6  and  C_8
REMARK                            x       y       z     vdW  Elec       q    Type
REMARK                         _______ _______ _______ _____ _____    ______ ____
ROOT
ATOM      1  C   UNL     1       6.672   4.904  15.372  0.00  0.00    +0.000 C 
ENDROOT
BRANCH   1   2
ATOM      2  C   UNL     1       5.597   5.306  16.368  0.00  0.00    +0.000 A 
ATOM      3  C   UNL     1       4.986   4.313  17.154  0.00  0.00    +0.000 A 
ATOM      4  C   UNL     1       3.966   4.635  18.055  0.00  0.00    +0.000 A 
ATOM      5  C   UNL     1       3.544   5.955  18.175  0.00  0.00    +0.000 A 
ATOM      6 CL   UNL     1       2.273   6.350  19.266  0.00  0.00    +0.000 Cl
ATOM      7  C   UNL     1       4.140   6.958  17.411  0.00  0.00    +0.000 A 
ATOM      8  C   UNL     1       5.166   6.635  16.515  0.00  0.00    +0.000 A 
ENDBRANCH   1   2
BRANCH   1  10
ATOM      9  C   UNL     1       6.072   4.022  13.096  0.00  0.00    +0.000 C 
ATOM     10  C   UNL     1       6.255   3.818  14.413  0.00  0.00    +0.000 C 
BRANCH   9  12
ATOM     11  O   UNL     1       4.570   3.060  11.557  0.00  0.00    +0.000 OA
ATOM     12  C   UNL     1       5.674   3.032  12.076  0.00  0.00    +0.000 C 
BRANCH  12  13
ATOM     13  O   UNL     1       6.596   2.100  11.790  0.00  0.00    +0.000 OA
ATOM     14  H   UNL     1       7.424   2.180  12.295  0.00  0.00    +0.000 HD
ENDBRANCH  12  13
ENDBRANCH   9  12
ENDBRANCH   1  10
BRANCH   1  15
ATOM     15  O   UNL     1       7.856   4.515  16.056  0.00  0.00    +0.000 OA
ATOM     16  H   UNL     1       8.497   5.240  15.979  0.00  0.00    +0.000 HD
ENDBRANCH   1  15
TORSDOF 5
ENDMDL
MODEL 6
REMARK VINA RESULT:      -6.0      2.046      3.064
REMARK  Name = 
REMARK  5 active torsions:
REMARK  status: ('A' for Active; 'I' for Inactive)
REMARK    1  A    between atoms: C_2  and  O_3
REMARK    2  A    between atoms: C_2  and  C_4
REMARK    3  A    between atoms: C_5  and  C_6
REMARK    4  A    between atoms: C_6  and  O_7
REMARK    5  A    between atoms: C_6  and  C_8
REMARK                            x       y       z     vdW  Elec       q    Type
REMARK                         _______ _______ _______ _____ _____    ______ ____
ROOT
ATOM      1  C   UNL     1       6.007   5.030  17.834  0.00  0.00    +0.000 C 
ENDROOT
BRANCH   1   2
ATOM      2  C   UNL     1       4.674   4.422  18.237  0.00  0.00    +0.000 A 
ATOM      3  C   UNL     1       3.500   4.860  17.599  0.00  0.00    +0.000 A 
ATOM      4  C   UNL     1       2.249   4.353  17.967  0.00  0.00    +0.000 A 
ATOM      5  C   UNL     1       2.161   3.405  18.980  0.00  0.00    +0.000 A 
ATOM      6 CL   UNL     1       0.621   2.798  19.450  0.00  0.00    +0.000 Cl
ATOM      7  C   UNL     1       3.313   2.950  19.622  0.00  0.00    +0.000 A 
ATOM      8  C   UNL     1       4.564   3.453  19.249  0.00  0.00    +0.000 A 
ENDBRANCH   1   2
BRANCH   1  10
ATOM      9  C   UNL     1       6.597   4.359  15.483  0.00  0.00    +0.000 C 
ATOM     10  C   UNL     1       6.151   5.283  16.353  0.00  0.00    +0.000 C 
BRANCH   9  12
ATOM     11  O   UNL     1       6.173   3.777  13.241  0.00  0.00    +0.000 OA
ATOM     12  C   UNL     1       6.767   4.500  14.025  0.00  0.00    +0.000 C 
BRANCH  12  13
ATOM     13  O   UNL     1       7.631   5.451  13.637  0.00  0.00    +0.000 OA
ATOM     14  H   UNL     1       8.378   5.593  14.244  0.00  0.00    +0.000 HD
ENDBRANCH  12  13
ENDBRANCH   9  12
ENDBRANCH   1  10
BRANCH   1  15
ATOM     15  O   UNL     1       7.078   4.215  18.290  0.00  0.00    +0.000 OA
ATOM     16  H   UNL     1       7.818   4.800  18.521  0.00  0.00    +0.000 HD
ENDBRANCH   1  15
TORSDOF 5
ENDMDL
MODEL 7
REMARK VINA RESULT:      -6.0      3.488      4.644
REMARK  Name = 
REMARK  5 active torsions:
REMARK  status: ('A' for Active; 'I' for Inactive)
REMARK    1  A    between atoms: C_2  and  O_3
REMARK    2  A    between atoms: C_2  and  C_4
REMARK    3  A    between atoms: C_5  and  C_6
REMARK    4  A    between atoms: C_6  and  O_7
REMARK    5  A    between atoms: C_6  and  C_8
REMARK                            x       y       z     vdW  Elec       q    Type
REMARK                         _______ _______ _______ _____ _____    ______ ____
ROOT
ATOM      1  C   UNL     1       3.356   6.826  17.429  0.00  0.00    +0.000 C 
ENDROOT
BRANCH   1   2
ATOM      2  C   UNL     1       2.733   5.806  18.368  0.00  0.00    +0.000 A 
ATOM      3  C   UNL     1       2.928   5.942  19.753  0.00  0.00    +0.000 A 
ATOM      4  C   UNL     1       2.404   5.004  20.649  0.00  0.00    +0.000 A 
ATOM      5  C   UNL     1       1.683   3.917  20.166  0.00  0.00    +0.000 A 
ATOM      6 CL   UNL     1       1.057   2.750  21.264  0.00  0.00    +0.000 Cl
ATOM      7  C   UNL     1       1.470   3.767  18.795  0.00  0.00    +0.000 A 
ATOM      8  C   UNL     1       1.989   4.709  17.901  0.00  0.00    +0.000 A 
ENDBRANCH   1   2
BRANCH   1  10
ATOM      9  C   UNL     1       5.428   5.560  16.777  0.00  0.00    +0.000 C 
ATOM     10  C   UNL     1       4.846   6.677  17.251  0.00  0.00    +0.000 C 
BRANCH   9  12
ATOM     11  O   UNL     1       7.531   6.029  15.825  0.00  0.00    +0.000 OA
ATOM     12  C   UNL     1       6.867   5.315  16.559  0.00  0.00    +0.000 C 
BRANCH  12  13
ATOM     13  O   UNL     1       7.371   4.249  17.199  0.00  0.00    +0.000 OA
ATOM     14  H   UNL     1       8.252   3.970  16.892  0.00  0.00    +0.000 HD
ENDBRANCH  12  13
ENDBRANCH   9  12
ENDBRANCH   1  10
BRANCH   1  15
ATOM     15  O   UNL     1       3.052   8.145  17.862  0.00  0.00    +0.000 OA
ATOM     16  H   UNL     1       2.972   8.129  18.830  0.00  0.00    +0.000 HD
ENDBRANCH   1  15
TORSDOF 5
ENDMDL
MODEL 8
REMARK VINA RESULT:      -5.9      4.726      6.511
REMARK  Name = 
REMARK  5 active torsions:
REMARK  status: ('A' for Active; 'I' for Inactive)
REMARK    1  A    between atoms: C_2  and  O_3
REMARK    2  A    between atoms: C_2  and  C_4
REMARK    3  A    between atoms: C_5  and  C_6
REMARK    4  A    between atoms: C_6  and  O_7
REMARK    5  A    between atoms: C_6  and  C_8
REMARK                            x       y       z     vdW  Elec       q    Type
REMARK                         _______ _______ _______ _____ _____    ______ ____
ROOT
ATOM      1  C   UNL     1       4.556   3.458  18.730  0.00  0.00    +0.000 C 
ENDROOT
BRANCH   1   2
ATOM      2  C   UNL     1       5.369   4.689  18.367  0.00  0.00    +0.000 A 
ATOM      3  C   UNL     1       6.637   4.869  18.946  0.00  0.00    +0.000 A 
ATOM      4  C   UNL     1       7.401   6.007  18.668  0.00  0.00    +0.000 A 
ATOM      5  C   UNL     1       6.901   6.979  17.808  0.00  0.00    +0.000 A 
ATOM      6 CL   UNL     1       7.829   8.390  17.482  0.00  0.00    +0.000 Cl
ATOM      7  C   UNL     1       5.649   6.819  17.215  0.00  0.00    +0.000 A 
ATOM      8  C   UNL     1       4.888   5.677  17.489  0.00  0.00    +0.000 A 
ENDBRANCH   1   2
BRANCH   1  10
ATOM      9  C   UNL     1       2.678   2.879  20.299  0.00  0.00    +0.000 C 
ATOM     10  C   UNL     1       3.278   3.756  19.475  0.00  0.00    +0.000 C 
BRANCH   9  12
ATOM     11  O   UNL     1       1.341   2.682  22.228  0.00  0.00    +0.000 OA
ATOM     12  C   UNL     1       1.439   3.073  21.077  0.00  0.00    +0.000 C 
BRANCH  12  13
ATOM     13  O   UNL     1       0.438   3.677  20.419  0.00  0.00    +0.000 OA
ATOM     14  H   UNL     1       0.122   4.501  20.829  0.00  0.00    +0.000 HD
ENDBRANCH  12  13
ENDBRANCH   9  12
ENDBRANCH   1  10
BRANCH   1  15
ATOM     15  O   UNL     1       5.349   2.547  19.479  0.00  0.00    +0.000 OA
ATOM     16  H   UNL     1       4.986   1.657  19.345  0.00  0.00    +0.000 HD
ENDBRANCH   1  15
TORSDOF 5
ENDMDL
MODEL 9
REMARK VINA RESULT:      -5.9      2.238      3.316
REMARK  Name = 
REMARK  5 active torsions:
REMARK  status: ('A' for Active; 'I' for Inactive)
REMARK    1  A    between atoms: C_2  and  O_3
REMARK    2  A    between atoms: C_2  and  C_4
REMARK    3  A    between atoms: C_5  and  C_6
REMARK    4  A    between atoms: C_6  and  O_7
REMARK    5  A    between atoms: C_6  and  C_8
REMARK                            x       y       z     vdW  Elec       q    Type
REMARK                         _______ _______ _______ _____ _____    ______ ____
ROOT
ATOM      1  C   UNL     1       5.938   4.686  17.708  0.00  0.00    +0.000 C 
ENDROOT
BRANCH   1   2
ATOM      2  C   UNL     1       4.568   4.299  18.239  0.00  0.00    +0.000 A 
ATOM      3  C   UNL     1       4.478   3.376  19.295  0.00  0.00    +0.000 A 
ATOM      4  C   UNL     1       3.235   2.964  19.787  0.00  0.00    +0.000 A 
ATOM      5  C   UNL     1       2.069   3.470  19.224  0.00  0.00    +0.000 A 
ATOM      6 CL   UNL     1       0.539   2.948  19.813  0.00  0.00    +0.000 Cl
ATOM      7  C   UNL     1       2.133   4.394  18.181  0.00  0.00    +0.000 A 
ATOM      8  C   UNL     1       3.377   4.810  17.693  0.00  0.00    +0.000 A 
ENDBRANCH   1   2
BRANCH   1  10
ATOM      9  C   UNL     1       6.835   5.099  15.395  0.00  0.00    +0.000 C 
ATOM     10  C   UNL     1       6.171   4.316  16.264  0.00  0.00    +0.000 C 
BRANCH   9  12
ATOM     11  O   UNL     1       6.545   3.943  13.364  0.00  0.00    +0.000 OA
ATOM     12  C   UNL     1       7.123   4.828  13.974  0.00  0.00    +0.000 C 
BRANCH  12  13
ATOM     13  O   UNL     1       8.072   5.600  13.423  0.00  0.00    +0.000 OA
ATOM     14  H   UNL     1       7.942   5.791  12.478  0.00  0.00    +0.000 HD
ENDBRANCH  12  13
ENDBRANCH   9  12
ENDBRANCH   1  10
BRANCH   1  15
ATOM     15  O   UNL     1       6.959   4.123  18.521  0.00  0.00    +0.000 OA
ATOM     16  H   UNL     1       7.626   4.810  18.679  0.00  0.00    +0.000 HD
ENDBRANCH   1  15
TORSDOF 5
ENDMDL
