MODEL 1
REMARK VINA RESULT:      -7.4      0.000      0.000
REMARK  Name = 
REMARK  11 active torsions:
REMARK  status: ('A' for Active; 'I' for Inactive)
REMARK    1  A    between atoms: C_1  and  O_2
REMARK    2  A    between atoms: O_2  and  C_3
REMARK    3  A    between atoms: C_3  and  C_5
REMARK    4  A    between atoms: N_9  and  C_10
REMARK    5  A    between atoms: C_10  and  C_11
REMARK    6  A    between atoms: C_11  and  C_12
REMARK    7  A    between atoms: C_12  and  C_13
REMARK    8  A    between atoms: C_13  and  O_14
REMARK    9  A    between atoms: O_14  and  C_15
REMARK   10  A    between atoms: C_20  and  C_21
REMARK   11  A    between atoms: C_22  and  C_23
REMARK                            x       y       z     vdW  Elec       q    Type
REMARK                         _______ _______ _______ _____ _____    ______ ____
ROOT
ATOM      1  O   UNL     1       1.213   8.683  18.365  0.00  0.00    +0.000 OA
ENDROOT
BRANCH   1   2
ATOM      2  C   UNL     1       0.924   9.459  19.461  0.00  0.00    +0.000 A 
ATOM      3  C   UNL     1       0.800  10.857  19.398  0.00  0.00    +0.000 A 
ATOM      4  C   UNL     1       0.496  11.605  20.535  0.00  0.00    +0.000 A 
ATOM      5  C   UNL     1       0.325  10.973  21.755  0.00  0.00    +0.000 A 
ATOM      6  C   UNL     1       0.453   9.587  21.838  0.00  0.00    +0.000 A 
ATOM      7  C   UNL     1       0.757   8.809  20.704  0.00  0.00    +0.000 A 
BRANCH   7   8
ATOM      8  C   UNL     1       0.707   7.343  20.881  0.00  0.00    +0.000 C 
ATOM      9  C   UNL     1       1.760   6.509  20.848  0.00  0.00    +0.000 C 
BRANCH   9  10
ATOM     10  C   UNL     1       1.645   5.040  20.800  0.00  0.00    +0.000 A 
ATOM     11  C   UNL     1       2.545   4.284  21.565  0.00  0.00    +0.000 A 
ATOM     12  C   UNL     1       2.568   2.890  21.478  0.00  0.00    +0.000 A 
ATOM     13  C   UNL     1       1.678   2.230  20.636  0.00  0.00    +0.000 A 
ATOM     14  C   UNL     1       0.747   2.962  19.903  0.00  0.00    +0.000 A 
ATOM     15  C   UNL     1       0.722   4.358  19.993  0.00  0.00    +0.000 A 
ENDBRANCH   9  10
ENDBRANCH   7   8
ENDBRANCH   1   2
BRANCH   1  16
ATOM     16  C   UNL     1       2.465   8.923  17.722  0.00  0.00    +0.000 C 
BRANCH  16  17
ATOM     17  C   UNL     1       3.346   7.686  17.839  0.00  0.00    +0.000 C 
BRANCH  17  18
ATOM     18  C   UNL     1       2.575   6.379  17.619  0.00  0.00    +0.000 C 
BRANCH  18  19
ATOM     19  C   UNL     1       3.425   5.108  17.808  0.00  0.00    +0.000 C 
BRANCH  19  24
ATOM     20  C   UNL     1       7.174   5.631  18.248  0.00  0.00    +0.000 C 
ATOM     21  C   UNL     1       7.680   4.555  17.283  0.00  0.00    +0.000 C 
ATOM     22  C   UNL     1       6.746   4.389  16.091  0.00  0.00    +0.000 C 
ATOM     23  C   UNL     1       5.294   4.196  16.523  0.00  0.00    +0.000 C 
ATOM     24  N   UNL     1       4.835   5.281  17.404  0.00  0.00    +0.000 NA
ATOM     25  C   UNL     1       5.700   5.382  18.597  0.00  0.00    +0.000 C 
BRANCH  20  26
ATOM     26  C   UNL     1       7.403   7.035  17.702  0.00  0.00    +0.000 C 
ATOM     27  O   UNL     1       6.910   7.479  16.674  0.00  0.00    +0.000 OA
BRANCH  26  29
ATOM     28  C   UNL     1       8.379   9.104  18.187  0.00  0.00    +0.000 C 
ATOM     29  O   UNL     1       8.317   7.704  18.465  0.00  0.00    +0.000 OA
ENDBRANCH  26  29
ENDBRANCH  20  26
ENDBRANCH  19  24
ENDBRANCH  18  19
ENDBRANCH  17  18
ENDBRANCH  16  17
ENDBRANCH   1  16
TORSDOF 10
ENDMDL
MODEL 2
REMARK VINA RESULT:      -7.3      3.408      7.309
REMARK  Name = 
REMARK  11 active torsions:
REMARK  status: ('A' for Active; 'I' for Inactive)
REMARK    1  A    between atoms: C_1  and  O_2
REMARK    2  A    between atoms: O_2  and  C_3
REMARK    3  A    between atoms: C_3  and  C_5
REMARK    4  A    between atoms: N_9  and  C_10
REMARK    5  A    between atoms: C_10  and  C_11
REMARK    6  A    between atoms: C_11  and  C_12
REMARK    7  A    between atoms: C_12  and  C_13
REMARK    8  A    between atoms: C_13  and  O_14
REMARK    9  A    between atoms: O_14  and  C_15
REMARK   10  A    between atoms: C_20  and  C_21
REMARK   11  A    between atoms: C_22  and  C_23
REMARK                            x       y       z     vdW  Elec       q    Type
REMARK                         _______ _______ _______ _____ _____    ______ ____
ROOT
ATOM      1  O   UNL     1       6.716   5.613  18.638  0.00  0.00    +0.000 OA
ENDROOT
BRANCH   1   2
ATOM      2  C   UNL     1       6.400   5.318  17.334  0.00  0.00    +0.000 A 
ATOM      3  C   UNL     1       7.274   4.637  16.470  0.00  0.00    +0.000 A 
ATOM      4  C   UNL     1       6.909   4.350  15.155  0.00  0.00    +0.000 A 
ATOM      5  C   UNL     1       5.672   4.749  14.677  0.00  0.00    +0.000 A 
ATOM      6  C   UNL     1       4.795   5.434  15.518  0.00  0.00    +0.000 A 
ATOM      7  C   UNL     1       5.140   5.735  16.849  0.00  0.00    +0.000 A 
BRANCH   7   8
ATOM      8  C   UNL     1       4.073   6.317  17.689  0.00  0.00    +0.000 C 
ATOM      9  C   UNL     1       3.351   7.412  17.397  0.00  0.00    +0.000 C 
BRANCH   9  10
ATOM     10  C   UNL     1       2.459   8.088  18.357  0.00  0.00    +0.000 A 
ATOM     11  C   UNL     1       2.382   7.574  19.660  0.00  0.00    +0.000 A 
ATOM     12  C   UNL     1       1.474   8.093  20.586  0.00  0.00    +0.000 A 
ATOM     13  C   UNL     1       0.639   9.147  20.226  0.00  0.00    +0.000 A 
ATOM     14  C   UNL     1       0.732   9.699  18.950  0.00  0.00    +0.000 A 
ATOM     15  C   UNL     1       1.645   9.182  18.026  0.00  0.00    +0.000 A 
ENDBRANCH   9  10
ENDBRANCH   7   8
ENDBRANCH   1   2
BRANCH   1  16
ATOM     16  C   UNL     1       7.909   6.368  18.853  0.00  0.00    +0.000 C 
BRANCH  16  17
ATOM     17  C   UNL     1       7.821   7.689  18.099  0.00  0.00    +0.000 C 
BRANCH  17  18
ATOM     18  C   UNL     1       8.748   8.768  18.669  0.00  0.00    +0.000 C 
BRANCH  18  19
ATOM     19  C   UNL     1       8.520  10.171  18.076  0.00  0.00    +0.000 C 
BRANCH  19  24
ATOM     20  C   UNL     1      10.685  11.962  20.650  0.00  0.00    +0.000 C 
ATOM     21  C   UNL     1      11.955  12.140  19.811  0.00  0.00    +0.000 C 
ATOM     22  C   UNL     1      11.627  12.356  18.340  0.00  0.00    +0.000 C 
ATOM     23  C   UNL     1      10.678  11.287  17.801  0.00  0.00    +0.000 C 
ATOM     24  N   UNL     1       9.450  11.190  18.605  0.00  0.00    +0.000 NA
ATOM     25  C   UNL     1       9.774  10.901  20.017  0.00  0.00    +0.000 C 
BRANCH  20  26
ATOM     26  C   UNL     1       9.960  13.284  20.866  0.00  0.00    +0.000 C 
ATOM     27  O   UNL     1      10.359  14.376  20.485  0.00  0.00    +0.000 OA
BRANCH  26  29
ATOM     28  C   UNL     1       8.850  13.861  22.842  0.00  0.00    +0.000 C 
ATOM     29  O   UNL     1       8.845  13.101  21.634  0.00  0.00    +0.000 OA
ENDBRANCH  26  29
ENDBRANCH  20  26
ENDBRANCH  19  24
ENDBRANCH  18  19
ENDBRANCH  17  18
ENDBRANCH  16  17
ENDBRANCH   1  16
TORSDOF 10
ENDMDL
MODEL 3
REMARK VINA RESULT:      -7.3      2.993      8.279
REMARK  Name = 
REMARK  11 active torsions:
REMARK  status: ('A' for Active; 'I' for Inactive)
REMARK    1  A    between atoms: C_1  and  O_2
REMARK    2  A    between atoms: O_2  and  C_3
REMARK    3  A    between atoms: C_3  and  C_5
REMARK    4  A    between atoms: N_9  and  C_10
REMARK    5  A    between atoms: C_10  and  C_11
REMARK    6  A    between atoms: C_11  and  C_12
REMARK    7  A    between atoms: C_12  and  C_13
REMARK    8  A    between atoms: C_13  and  O_14
REMARK    9  A    between atoms: O_14  and  C_15
REMARK   10  A    between atoms: C_20  and  C_21
REMARK   11  A    between atoms: C_22  and  C_23
REMARK                            x       y       z     vdW  Elec       q    Type
REMARK                         _______ _______ _______ _____ _____    ______ ____
ROOT
ATOM      1  O   UNL     1       3.151   6.241  19.488  0.00  0.00    +0.000 OA
ENDROOT
BRANCH   1   2
ATOM      2  C   UNL     1       2.456   5.056  19.473  0.00  0.00    +0.000 A 
ATOM      3  C   UNL     1       1.487   4.725  20.435  0.00  0.00    +0.000 A 
ATOM      4  C   UNL     1       0.799   3.513  20.377  0.00  0.00    +0.000 A 
ATOM      5  C   UNL     1       1.076   2.607  19.367  0.00  0.00    +0.000 A 
ATOM      6  C   UNL     1       2.041   2.915  18.408  0.00  0.00    +0.000 A 
ATOM      7  C   UNL     1       2.748   4.132  18.445  0.00  0.00    +0.000 A 
BRANCH   7   8
ATOM      8  C   UNL     1       3.625   4.417  17.290  0.00  0.00    +0.000 C 
ATOM      9  C   UNL     1       4.450   3.541  16.692  0.00  0.00    +0.000 C 
BRANCH   9  10
ATOM     10  C   UNL     1       5.469   3.919  15.697  0.00  0.00    +0.000 A 
ATOM     11  C   UNL     1       6.578   4.656  16.137  0.00  0.00    +0.000 A 
ATOM     12  C   UNL     1       7.522   5.147  15.231  0.00  0.00    +0.000 A 
ATOM     13  C   UNL     1       7.378   4.892  13.870  0.00  0.00    +0.000 A 
ATOM     14  C   UNL     1       6.306   4.125  13.419  0.00  0.00    +0.000 A 
ATOM     15  C   UNL     1       5.364   3.631  14.328  0.00  0.00    +0.000 A 
ENDBRANCH   9  10
ENDBRANCH   7   8
ENDBRANCH   1   2
BRANCH   1  16
ATOM     16  C   UNL     1       2.374   7.439  19.441  0.00  0.00    +0.000 C 
BRANCH  16  17
ATOM     17  C   UNL     1       2.485   8.066  18.057  0.00  0.00    +0.000 C 
BRANCH  17  18
ATOM     18  C   UNL     1       1.922   9.491  17.998  0.00  0.00    +0.000 C 
BRANCH  18  19
ATOM     19  C   UNL     1       1.099   9.894  19.236  0.00  0.00    +0.000 C 
BRANCH  19  24
ATOM     20  C   UNL     1      -1.740  12.297  18.410  0.00  0.00    +0.000 C 
ATOM     21  C   UNL     1      -2.368  11.532  17.240  0.00  0.00    +0.000 C 
ATOM     22  C   UNL     1      -2.250  10.026  17.431  0.00  0.00    +0.000 C 
ATOM     23  C   UNL     1      -0.819   9.598  17.749  0.00  0.00    +0.000 C 
ATOM     24  N   UNL     1      -0.278  10.319  18.912  0.00  0.00    +0.000 NA
ATOM     25  C   UNL     1      -0.323  11.778  18.686  0.00  0.00    +0.000 C 
BRANCH  20  26
ATOM     26  C   UNL     1      -2.619  12.250  19.654  0.00  0.00    +0.000 C 
ATOM     27  O   UNL     1      -2.207  12.230  20.806  0.00  0.00    +0.000 OA
BRANCH  26  29
ATOM     28  C   UNL     1      -4.809  12.929  20.109  0.00  0.00    +0.000 C 
ATOM     29  O   UNL     1      -3.935  12.133  19.309  0.00  0.00    +0.000 OA
ENDBRANCH  26  29
ENDBRANCH  20  26
ENDBRANCH  19  24
ENDBRANCH  18  19
ENDBRANCH  17  18
ENDBRANCH  16  17
ENDBRANCH   1  16
TORSDOF 10
ENDMDL
MODEL 4
REMARK VINA RESULT:      -7.3      4.142      7.186
REMARK  Name = 
REMARK  11 active torsions:
REMARK  status: ('A' for Active; 'I' for Inactive)
REMARK    1  A    between atoms: C_1  and  O_2
REMARK    2  A    between atoms: O_2  and  C_3
REMARK    3  A    between atoms: C_3  and  C_5
REMARK    4  A    between atoms: N_9  and  C_10
REMARK    5  A    between atoms: C_10  and  C_11
REMARK    6  A    between atoms: C_11  and  C_12
REMARK    7  A    between atoms: C_12  and  C_13
REMARK    8  A    between atoms: C_13  and  O_14
REMARK    9  A    between atoms: O_14  and  C_15
REMARK   10  A    between atoms: C_20  and  C_21
REMARK   11  A    between atoms: C_22  and  C_23
REMARK                            x       y       z     vdW  Elec       q    Type
REMARK                         _______ _______ _______ _____ _____    ______ ____
ROOT
ATOM      1  O   UNL     1       6.555   6.406  17.896  0.00  0.00    +0.000 OA
ENDROOT
BRANCH   1   2
ATOM      2  C   UNL     1       6.399   5.625  16.777  0.00  0.00    +0.000 A 
ATOM      3  C   UNL     1       7.287   5.663  15.688  0.00  0.00    +0.000 A 
ATOM      4  C   UNL     1       7.095   4.845  14.574  0.00  0.00    +0.000 A 
ATOM      5  C   UNL     1       6.010   3.987  14.523  0.00  0.00    +0.000 A 
ATOM      6  C   UNL     1       5.114   3.943  15.591  0.00  0.00    +0.000 A 
ATOM      7  C   UNL     1       5.286   4.757  16.727  0.00  0.00    +0.000 A 
BRANCH   7   8
ATOM      8  C   UNL     1       4.370   4.508  17.859  0.00  0.00    +0.000 C 
ATOM      9  C   UNL     1       4.215   3.339  18.504  0.00  0.00    +0.000 C 
BRANCH   9  10
ATOM     10  C   UNL     1       3.136   3.071  19.472  0.00  0.00    +0.000 A 
ATOM     11  C   UNL     1       1.812   3.267  19.053  0.00  0.00    +0.000 A 
ATOM     12  C   UNL     1       0.748   3.143  19.950  0.00  0.00    +0.000 A 
ATOM     13  C   UNL     1       0.993   2.807  21.279  0.00  0.00    +0.000 A 
ATOM     14  C   UNL     1       2.298   2.566  21.702  0.00  0.00    +0.000 A 
ATOM     15  C   UNL     1       3.362   2.685  20.802  0.00  0.00    +0.000 A 
ENDBRANCH   9  10
ENDBRANCH   7   8
ENDBRANCH   1   2
BRANCH   1  16
ATOM     16  C   UNL     1       7.827   7.032  18.068  0.00  0.00    +0.000 C 
BRANCH  16  17
ATOM     17  C   UNL     1       7.777   8.452  17.519  0.00  0.00    +0.000 C 
BRANCH  17  18
ATOM     18  C   UNL     1       8.610   9.442  18.341  0.00  0.00    +0.000 C 
BRANCH  18  19
ATOM     19  C   UNL     1       8.587  10.884  17.800  0.00  0.00    +0.000 C 
BRANCH  19  24
ATOM     20  C   UNL     1      10.247  12.167  20.982  0.00  0.00    +0.000 C 
ATOM     21  C   UNL     1      11.268  13.119  20.351  0.00  0.00    +0.000 C 
ATOM     22  C   UNL     1      10.722  13.764  19.083  0.00  0.00    +0.000 C 
ATOM     23  C   UNL     1      10.161  12.729  18.110  0.00  0.00    +0.000 C 
ATOM     24  N   UNL     1       9.146  11.873  18.744  0.00  0.00    +0.000 NA
ATOM     25  C   UNL     1       9.708  11.190  19.927  0.00  0.00    +0.000 C 
BRANCH  20  26
ATOM     26  C   UNL     1       9.127  12.922  21.686  0.00  0.00    +0.000 C 
ATOM     27  O   UNL     1       8.469  13.828  21.191  0.00  0.00    +0.000 OA
BRANCH  26  29
ATOM     28  C   UNL     1       7.933  11.625  23.222  0.00  0.00    +0.000 C 
ATOM     29  O   UNL     1       9.020  12.520  22.987  0.00  0.00    +0.000 OA
ENDBRANCH  26  29
ENDBRANCH  20  26
ENDBRANCH  19  24
ENDBRANCH  18  19
ENDBRANCH  17  18
ENDBRANCH  16  17
ENDBRANCH   1  16
TORSDOF 10
ENDMDL
MODEL 5
REMARK VINA RESULT:      -7.2      3.555      7.241
REMARK  Name = 
REMARK  11 active torsions:
REMARK  status: ('A' for Active; 'I' for Inactive)
REMARK    1  A    between atoms: C_1  and  O_2
REMARK    2  A    between atoms: O_2  and  C_3
REMARK    3  A    between atoms: C_3  and  C_5
REMARK    4  A    between atoms: N_9  and  C_10
REMARK    5  A    between atoms: C_10  and  C_11
REMARK    6  A    between atoms: C_11  and  C_12
REMARK    7  A    between atoms: C_12  and  C_13
REMARK    8  A    between atoms: C_13  and  O_14
REMARK    9  A    between atoms: O_14  and  C_15
REMARK   10  A    between atoms: C_20  and  C_21
REMARK   11  A    between atoms: C_22  and  C_23
REMARK                            x       y       z     vdW  Elec       q    Type
REMARK                         _______ _______ _______ _____ _____    ______ ____
ROOT
ATOM      1  O   UNL     1       7.332   5.771  16.909  0.00  0.00    +0.000 OA
ENDROOT
BRANCH   1   2
ATOM      2  C   UNL     1       6.876   5.152  15.770  0.00  0.00    +0.000 A 
ATOM      3  C   UNL     1       7.625   5.087  14.583  0.00  0.00    +0.000 A 
ATOM      4  C   UNL     1       7.128   4.440  13.452  0.00  0.00    +0.000 A 
ATOM      5  C   UNL     1       5.872   3.859  13.482  0.00  0.00    +0.000 A 
ATOM      6  C   UNL     1       5.111   3.921  14.650  0.00  0.00    +0.000 A 
ATOM      7  C   UNL     1       5.591   4.567  15.805  0.00  0.00    +0.000 A 
BRANCH   7   8
ATOM      8  C   UNL     1       4.770   4.428  17.025  0.00  0.00    +0.000 C 
ATOM      9  C   UNL     1       3.551   3.867  17.095  0.00  0.00    +0.000 C 
BRANCH   9  10
ATOM     10  C   UNL     1       2.673   3.951  18.276  0.00  0.00    +0.000 A 
ATOM     11  C   UNL     1       2.898   4.989  19.191  0.00  0.00    +0.000 A 
ATOM     12  C   UNL     1       2.181   5.061  20.388  0.00  0.00    +0.000 A 
ATOM     13  C   UNL     1       1.216   4.102  20.680  0.00  0.00    +0.000 A 
ATOM     14  C   UNL     1       0.948   3.088  19.763  0.00  0.00    +0.000 A 
ATOM     15  C   UNL     1       1.664   3.020  18.563  0.00  0.00    +0.000 A 
ENDBRANCH   9  10
ENDBRANCH   7   8
ENDBRANCH   1   2
BRANCH   1  16
ATOM     16  C   UNL     1       6.995   7.150  17.066  0.00  0.00    +0.000 C 
BRANCH  16  17
ATOM     17  C   UNL     1       7.716   7.717  18.282  0.00  0.00    +0.000 C 
BRANCH  17  18
ATOM     18  C   UNL     1       8.702   8.837  17.927  0.00  0.00    +0.000 C 
BRANCH  18  19
ATOM     19  C   UNL     1       8.166  10.255  18.199  0.00  0.00    +0.000 C 
BRANCH  19  24
ATOM     20  C   UNL     1      10.581  11.826  20.694  0.00  0.00    +0.000 C 
ATOM     21  C   UNL     1      11.825  11.908  19.803  0.00  0.00    +0.000 C 
ATOM     22  C   UNL     1      11.454  12.170  18.349  0.00  0.00    +0.000 C 
ATOM     23  C   UNL     1      10.397  11.191  17.842  0.00  0.00    +0.000 C 
ATOM     24  N   UNL     1       9.200  11.186  18.697  0.00  0.00    +0.000 NA
ATOM     25  C   UNL     1       9.559  10.853  20.091  0.00  0.00    +0.000 C 
BRANCH  20  26
ATOM     26  C   UNL     1       9.979  13.200  20.954  0.00  0.00    +0.000 C 
ATOM     27  O   UNL     1      10.609  14.250  20.990  0.00  0.00    +0.000 OA
BRANCH  26  29
ATOM     28  C   UNL     1       7.914  14.297  21.000  0.00  0.00    +0.000 C 
ATOM     29  O   UNL     1       8.648  13.096  21.240  0.00  0.00    +0.000 OA
ENDBRANCH  26  29
ENDBRANCH  20  26
ENDBRANCH  19  24
ENDBRANCH  18  19
ENDBRANCH  17  18
ENDBRANCH  16  17
ENDBRANCH   1  16
TORSDOF 10
ENDMDL
MODEL 6
REMARK VINA RESULT:      -7.2      3.539      7.071
REMARK  Name = 
REMARK  11 active torsions:
REMARK  status: ('A' for Active; 'I' for Inactive)
REMARK    1  A    between atoms: C_1  and  O_2
REMARK    2  A    between atoms: O_2  and  C_3
REMARK    3  A    between atoms: C_3  and  C_5
REMARK    4  A    between atoms: N_9  and  C_10
REMARK    5  A    between atoms: C_10  and  C_11
REMARK    6  A    between atoms: C_11  and  C_12
REMARK    7  A    between atoms: C_12  and  C_13
REMARK    8  A    between atoms: C_13  and  O_14
REMARK    9  A    between atoms: O_14  and  C_15
REMARK   10  A    between atoms: C_20  and  C_21
REMARK   11  A    between atoms: C_22  and  C_23
REMARK                            x       y       z     vdW  Elec       q    Type
REMARK                         _______ _______ _______ _____ _____    ______ ____
ROOT
ATOM      1  O   UNL     1       5.826   7.221  17.404  0.00  0.00    +0.000 OA
ENDROOT
BRANCH   1   2
ATOM      2  C   UNL     1       5.121   6.045  17.308  0.00  0.00    +0.000 A 
ATOM      3  C   UNL     1       5.693   4.846  16.853  0.00  0.00    +0.000 A 
ATOM      4  C   UNL     1       4.943   3.672  16.781  0.00  0.00    +0.000 A 
ATOM      5  C   UNL     1       3.608   3.679  17.148  0.00  0.00    +0.000 A 
ATOM      6  C   UNL     1       3.021   4.864  17.594  0.00  0.00    +0.000 A 
ATOM      7  C   UNL     1       3.757   6.060  17.677  0.00  0.00    +0.000 A 
BRANCH   7   8
ATOM      8  C   UNL     1       3.078   7.207  18.315  0.00  0.00    +0.000 C 
ATOM      9  C   UNL     1       2.434   7.185  19.494  0.00  0.00    +0.000 C 
BRANCH   9  10
ATOM     10  C   UNL     1       1.580   8.282  19.985  0.00  0.00    +0.000 A 
ATOM     11  C   UNL     1       1.110   8.210  21.305  0.00  0.00    +0.000 A 
ATOM     12  C   UNL     1       0.205   9.153  21.798  0.00  0.00    +0.000 A 
ATOM     13  C   UNL     1      -0.231  10.193  20.982  0.00  0.00    +0.000 A 
ATOM     14  C   UNL     1       0.259  10.305  19.683  0.00  0.00    +0.000 A 
ATOM     15  C   UNL     1       1.168   9.363  19.191  0.00  0.00    +0.000 A 
ENDBRANCH   9  10
ENDBRANCH   7   8
ENDBRANCH   1   2
BRANCH   1  16
ATOM     16  C   UNL     1       7.219   7.159  17.096  0.00  0.00    +0.000 C 
BRANCH  16  17
ATOM     17  C   UNL     1       8.023   7.754  18.245  0.00  0.00    +0.000 C 
BRANCH  17  18
ATOM     18  C   UNL     1       8.310   9.249  18.066  0.00  0.00    +0.000 C 
BRANCH  18  19
ATOM     19  C   UNL     1       9.102   9.881  19.226  0.00  0.00    +0.000 C 
BRANCH  19  24
ATOM     20  C   UNL     1      10.772  13.243  19.881  0.00  0.00    +0.000 C 
ATOM     21  C   UNL     1      11.648  13.323  18.626  0.00  0.00    +0.000 C 
ATOM     22  C   UNL     1      10.969  12.670  17.428  0.00  0.00    +0.000 C 
ATOM     23  C   UNL     1      10.477  11.260  17.747  0.00  0.00    +0.000 C 
ATOM     24  N   UNL     1       9.597  11.240  18.926  0.00  0.00    +0.000 NA
ATOM     25  C   UNL     1      10.291  11.802  20.102  0.00  0.00    +0.000 C 
BRANCH  20  26
ATOM     26  C   UNL     1       9.614  14.231  19.827  0.00  0.00    +0.000 C 
ATOM     27  O   UNL     1       8.463  13.985  20.164  0.00  0.00    +0.000 OA
BRANCH  26  29
ATOM     28  C   UNL     1       9.046  15.966  18.366  0.00  0.00    +0.000 C 
ATOM     29  O   UNL     1      10.011  15.407  19.258  0.00  0.00    +0.000 OA
ENDBRANCH  26  29
ENDBRANCH  20  26
ENDBRANCH  19  24
ENDBRANCH  18  19
ENDBRANCH  17  18
ENDBRANCH  16  17
ENDBRANCH   1  16
TORSDOF 10
ENDMDL
MODEL 7
REMARK VINA RESULT:      -7.1      3.538      7.476
REMARK  Name = 
REMARK  11 active torsions:
REMARK  status: ('A' for Active; 'I' for Inactive)
REMARK    1  A    between atoms: C_1  and  O_2
REMARK    2  A    between atoms: O_2  and  C_3
REMARK    3  A    between atoms: C_3  and  C_5
REMARK    4  A    between atoms: N_9  and  C_10
REMARK    5  A    between atoms: C_10  and  C_11
REMARK    6  A    between atoms: C_11  and  C_12
REMARK    7  A    between atoms: C_12  and  C_13
REMARK    8  A    between atoms: C_13  and  O_14
REMARK    9  A    between atoms: O_14  and  C_15
REMARK   10  A    between atoms: C_20  and  C_21
REMARK   11  A    between atoms: C_22  and  C_23
REMARK                            x       y       z     vdW  Elec       q    Type
REMARK                         _______ _______ _______ _____ _____    ______ ____
ROOT
ATOM      1  O   UNL     1       5.360   6.609  17.787  0.00  0.00    +0.000 OA
ENDROOT
BRANCH   1   2
ATOM      2  C   UNL     1       4.458   5.681  18.248  0.00  0.00    +0.000 A 
ATOM      3  C   UNL     1       3.806   5.798  19.487  0.00  0.00    +0.000 A 
ATOM      4  C   UNL     1       2.890   4.836  19.912  0.00  0.00    +0.000 A 
ATOM      5  C   UNL     1       2.620   3.736  19.115  0.00  0.00    +0.000 A 
ATOM      6  C   UNL     1       3.266   3.599  17.886  0.00  0.00    +0.000 A 
ATOM      7  C   UNL     1       4.193   4.557  17.435  0.00  0.00    +0.000 A 
BRANCH   7   8
ATOM      8  C   UNL     1       4.689   4.391  16.052  0.00  0.00    +0.000 C 
ATOM      9  C   UNL     1       5.947   4.079  15.699  0.00  0.00    +0.000 C 
BRANCH   9  10
ATOM     10  C   UNL     1       6.453   4.145  14.316  0.00  0.00    +0.000 A 
ATOM     11  C   UNL     1       7.447   5.090  14.023  0.00  0.00    +0.000 A 
ATOM     12  C   UNL     1       7.889   5.286  12.713  0.00  0.00    +0.000 A 
ATOM     13  C   UNL     1       7.353   4.528  11.676  0.00  0.00    +0.000 A 
ATOM     14  C   UNL     1       6.396   3.555  11.954  0.00  0.00    +0.000 A 
ATOM     15  C   UNL     1       5.957   3.356  13.267  0.00  0.00    +0.000 A 
ENDBRANCH   9  10
ENDBRANCH   7   8
ENDBRANCH   1   2
BRANCH   1  16
ATOM     16  C   UNL     1       6.704   6.483  18.254  0.00  0.00    +0.000 C 
BRANCH  16  17
ATOM     17  C   UNL     1       7.620   7.369  17.420  0.00  0.00    +0.000 C 
BRANCH  17  18
ATOM     18  C   UNL     1       8.345   8.434  18.252  0.00  0.00    +0.000 C 
BRANCH  18  19
ATOM     19  C   UNL     1       8.145   9.874  17.743  0.00  0.00    +0.000 C 
BRANCH  19  24
ATOM     20  C   UNL     1      10.119  11.392  20.627  0.00  0.00    +0.000 C 
ATOM     21  C   UNL     1      11.373  11.820  19.859  0.00  0.00    +0.000 C 
ATOM     22  C   UNL     1      11.038  12.250  18.437  0.00  0.00    +0.000 C 
ATOM     23  C   UNL     1      10.194  11.207  17.707  0.00  0.00    +0.000 C 
ATOM     24  N   UNL     1       8.974  10.867  18.455  0.00  0.00    +0.000 NA
ATOM     25  C   UNL     1       9.313  10.376  19.806  0.00  0.00    +0.000 C 
BRANCH  20  26
ATOM     26  C   UNL     1       9.274  12.589  21.044  0.00  0.00    +0.000 C 
ATOM     27  O   UNL     1       8.958  13.517  20.311  0.00  0.00    +0.000 OA
BRANCH  26  29
ATOM     28  C   UNL     1       8.238  13.654  22.849  0.00  0.00    +0.000 C 
ATOM     29  O   UNL     1       8.995  12.539  22.380  0.00  0.00    +0.000 OA
ENDBRANCH  26  29
ENDBRANCH  20  26
ENDBRANCH  19  24
ENDBRANCH  18  19
ENDBRANCH  17  18
ENDBRANCH  16  17
ENDBRANCH   1  16
TORSDOF 10
ENDMDL
MODEL 8
REMARK VINA RESULT:      -7.1      2.517      7.517
REMARK  Name = 
REMARK  11 active torsions:
REMARK  status: ('A' for Active; 'I' for Inactive)
REMARK    1  A    between atoms: C_1  and  O_2
REMARK    2  A    between atoms: O_2  and  C_3
REMARK    3  A    between atoms: C_3  and  C_5
REMARK    4  A    between atoms: N_9  and  C_10
REMARK    5  A    between atoms: C_10  and  C_11
REMARK    6  A    between atoms: C_11  and  C_12
REMARK    7  A    between atoms: C_12  and  C_13
REMARK    8  A    between atoms: C_13  and  O_14
REMARK    9  A    between atoms: O_14  and  C_15
REMARK   10  A    between atoms: C_20  and  C_21
REMARK   11  A    between atoms: C_22  and  C_23
REMARK                            x       y       z     vdW  Elec       q    Type
REMARK                         _______ _______ _______ _____ _____    ______ ____
ROOT
ATOM      1  O   UNL     1       3.478   5.516  19.401  0.00  0.00    +0.000 OA
ENDROOT
BRANCH   1   2
ATOM      2  C   UNL     1       2.566   4.489  19.378  0.00  0.00    +0.000 A 
ATOM      3  C   UNL     1       1.596   4.304  20.377  0.00  0.00    +0.000 A 
ATOM      4  C   UNL     1       0.684   3.252  20.310  0.00  0.00    +0.000 A 
ATOM      5  C   UNL     1       0.732   2.360  19.252  0.00  0.00    +0.000 A 
ATOM      6  C   UNL     1       1.694   2.522  18.255  0.00  0.00    +0.000 A 
ATOM      7  C   UNL     1       2.625   3.577  18.300  0.00  0.00    +0.000 A 
BRANCH   7   8
ATOM      8  C   UNL     1       3.488   3.743  17.112  0.00  0.00    +0.000 C 
ATOM      9  C   UNL     1       4.825   3.875  17.121  0.00  0.00    +0.000 C 
BRANCH   9  10
ATOM     10  C   UNL     1       5.621   4.264  15.943  0.00  0.00    +0.000 A 
ATOM     11  C   UNL     1       5.245   3.747  14.694  0.00  0.00    +0.000 A 
ATOM     12  C   UNL     1       6.021   3.981  13.556  0.00  0.00    +0.000 A 
ATOM     13  C   UNL     1       7.178   4.750  13.648  0.00  0.00    +0.000 A 
ATOM     14  C   UNL     1       7.542   5.308  14.871  0.00  0.00    +0.000 A 
ATOM     15  C   UNL     1       6.762   5.076  16.009  0.00  0.00    +0.000 A 
ENDBRANCH   9  10
ENDBRANCH   7   8
ENDBRANCH   1   2
BRANCH   1  16
ATOM     16  C   UNL     1       2.948   6.841  19.444  0.00  0.00    +0.000 C 
BRANCH  16  17
ATOM     17  C   UNL     1       2.421   7.227  18.068  0.00  0.00    +0.000 C 
BRANCH  17  18
ATOM     18  C   UNL     1       2.434   8.740  17.824  0.00  0.00    +0.000 C 
BRANCH  18  19
ATOM     19  C   UNL     1       1.061   9.417  17.996  0.00  0.00    +0.000 C 
BRANCH  19  24
ATOM     20  C   UNL     1      -0.020  12.304  20.236  0.00  0.00    +0.000 C 
ATOM     21  C   UNL     1      -0.469  11.500  21.461  0.00  0.00    +0.000 C 
ATOM     22  C   UNL     1       0.377  10.248  21.648  0.00  0.00    +0.000 C 
ATOM     23  C   UNL     1       0.467   9.420  20.367  0.00  0.00    +0.000 C 
ATOM     24  N   UNL     1       0.953  10.218  19.232  0.00  0.00    +0.000 NA
ATOM     25  C   UNL     1       0.080  11.389  19.008  0.00  0.00    +0.000 C 
BRANCH  20  26
ATOM     26  C   UNL     1       1.278  13.056  20.497  0.00  0.00    +0.000 C 
ATOM     27  O   UNL     1       1.639  13.481  21.587  0.00  0.00    +0.000 OA
BRANCH  26  29
ATOM     28  C   UNL     1       3.139  14.050  19.489  0.00  0.00    +0.000 C 
ATOM     29  O   UNL     1       1.946  13.283  19.327  0.00  0.00    +0.000 OA
ENDBRANCH  26  29
ENDBRANCH  20  26
ENDBRANCH  19  24
ENDBRANCH  18  19
ENDBRANCH  17  18
ENDBRANCH  16  17
ENDBRANCH   1  16
TORSDOF 10
ENDMDL
MODEL 9
REMARK VINA RESULT:      -7.1      3.835      7.732
REMARK  Name = 
REMARK  11 active torsions:
REMARK  status: ('A' for Active; 'I' for Inactive)
REMARK    1  A    between atoms: C_1  and  O_2
REMARK    2  A    between atoms: O_2  and  C_3
REMARK    3  A    between atoms: C_3  and  C_5
REMARK    4  A    between atoms: N_9  and  C_10
REMARK    5  A    between atoms: C_10  and  C_11
REMARK    6  A    between atoms: C_11  and  C_12
REMARK    7  A    between atoms: C_12  and  C_13
REMARK    8  A    between atoms: C_13  and  O_14
REMARK    9  A    between atoms: O_14  and  C_15
REMARK   10  A    between atoms: C_20  and  C_21
REMARK   11  A    between atoms: C_22  and  C_23
REMARK                            x       y       z     vdW  Elec       q    Type
REMARK                         _______ _______ _______ _____ _____    ______ ____
ROOT
ATOM      1  O   UNL     1       6.500   7.708  17.495  0.00  0.00    +0.000 OA
ENDROOT
BRANCH   1   2
ATOM      2  C   UNL     1       6.272   6.469  16.947  0.00  0.00    +0.000 A 
ATOM      3  C   UNL     1       7.243   5.766  16.214  0.00  0.00    +0.000 A 
ATOM      4  C   UNL     1       6.972   4.506  15.682  0.00  0.00    +0.000 A 
ATOM      5  C   UNL     1       5.724   3.933  15.860  0.00  0.00    +0.000 A 
ATOM      6  C   UNL     1       4.744   4.620  16.577  0.00  0.00    +0.000 A 
ATOM      7  C   UNL     1       4.995   5.893  17.125  0.00  0.00    +0.000 A 
BRANCH   7   8
ATOM      8  C   UNL     1       3.941   6.451  17.999  0.00  0.00    +0.000 C 
ATOM      9  C   UNL     1       3.038   7.381  17.647  0.00  0.00    +0.000 C 
BRANCH   9  10
ATOM     10  C   UNL     1       2.155   8.073  18.604  0.00  0.00    +0.000 A 
ATOM     11  C   UNL     1       1.495   9.231  18.172  0.00  0.00    +0.000 A 
ATOM     12  C   UNL     1       0.736  10.000  19.058  0.00  0.00    +0.000 A 
ATOM     13  C   UNL     1       0.614   9.611  20.389  0.00  0.00    +0.000 A 
ATOM     14  C   UNL     1       1.228   8.439  20.826  0.00  0.00    +0.000 A 
ATOM     15  C   UNL     1       1.983   7.668  19.937  0.00  0.00    +0.000 A 
ENDBRANCH   9  10
ENDBRANCH   7   8
ENDBRANCH   1   2
BRANCH   1  16
ATOM     16  C   UNL     1       7.865   8.092  17.663  0.00  0.00    +0.000 C 
BRANCH  16  17
ATOM     17  C   UNL     1       7.946   9.590  17.928  0.00  0.00    +0.000 C 
BRANCH  17  18
ATOM     18  C   UNL     1       9.333  10.041  18.401  0.00  0.00    +0.000 C 
BRANCH  18  19
ATOM     19  C   UNL     1       9.341  10.684  19.801  0.00  0.00    +0.000 C 
BRANCH  19  24
ATOM     20  C   UNL     1       9.304  14.384  18.891  0.00  0.00    +0.000 C 
ATOM     21  C   UNL     1       9.507  14.976  20.289  0.00  0.00    +0.000 C 
ATOM     22  C   UNL     1      10.394  14.085  21.150  0.00  0.00    +0.000 C 
ATOM     23  C   UNL     1       9.914  12.635  21.158  0.00  0.00    +0.000 C 
ATOM     24  N   UNL     1       9.786  12.092  19.797  0.00  0.00    +0.000 NA
ATOM     25  C   UNL     1       8.862  12.918  18.993  0.00  0.00    +0.000 C 
BRANCH  20  26
ATOM     26  C   UNL     1      10.544  14.548  18.021  0.00  0.00    +0.000 C 
ATOM     27  O   UNL     1      11.297  15.513  18.045  0.00  0.00    +0.000 OA
BRANCH  26  29
ATOM     28  C   UNL     1      11.990  13.059  16.946  0.00  0.00    +0.000 C 
ATOM     29  O   UNL     1      10.651  13.514  17.136  0.00  0.00    +0.000 OA
ENDBRANCH  26  29
ENDBRANCH  20  26
ENDBRANCH  19  24
ENDBRANCH  18  19
ENDBRANCH  17  18
ENDBRANCH  16  17
ENDBRANCH   1  16
TORSDOF 10
ENDMDL
