MODEL 1
REMARK VINA RESULT:      -7.9      0.000      0.000
REMARK  Name = 
REMARK  4 active torsions:
REMARK  status: ('A' for Active; 'I' for Inactive)
REMARK    1  A    between atoms: N_2  and  C_4
REMARK    2  A    between atoms: C_7  and  O_8
REMARK    3  A    between atoms: O_8  and  C_9
REMARK    4  A    between atoms: C_16  and  N_17
REMARK                            x       y       z     vdW  Elec       q    Type
REMARK                         _______ _______ _______ _____ _____    ______ ____
ROOT
ATOM      1  C   UNL     1       6.472   4.994  15.319  0.00  0.00    +0.000 A 
ATOM      2  C   UNL     1       5.116   4.746  15.551  0.00  0.00    +0.000 A 
ATOM      3  C   UNL     1       4.590   4.915  16.835  0.00  0.00    +0.000 A 
ATOM      4  C   UNL     1       5.389   5.398  17.882  0.00  0.00    +0.000 A 
ATOM      5  C   UNL     1       6.758   5.574  17.641  0.00  0.00    +0.000 A 
ATOM      6  C   UNL     1       7.315   5.388  16.365  0.00  0.00    +0.000 A 
ENDROOT
BRANCH   1   8
ATOM      7  O   UNL     1       6.482   3.984  13.231  0.00  0.00    +0.000 OA
ATOM      8  N   UNL     1       7.010   4.831  13.962  0.00  0.00    +0.000 N 
ATOM      9  O   UNL     1       7.958   5.556  13.635  0.00  0.00    +0.000 OA
ENDBRANCH   1   8
BRANCH   5  10
ATOM     10  N   UNL     1       7.656   5.946  18.717  0.00  0.00    +0.000 N 
ATOM     11  O   UNL     1       7.950   5.071  19.540  0.00  0.00    +0.000 OA
ATOM     12  O   UNL     1       8.114   7.096  18.689  0.00  0.00    +0.000 OA
ENDBRANCH   5  10
BRANCH   4  13
ATOM     13  O   UNL     1       4.865   5.695  19.124  0.00  0.00    +0.000 OA
BRANCH  13  14
ATOM     14  C   UNL     1       3.872   4.877  19.631  0.00  0.00    +0.000 A 
ATOM     15  C   UNL     1       2.674   5.493  20.004  0.00  0.00    +0.000 A 
ATOM     16  C   UNL     1       1.648   4.731  20.574  0.00  0.00    +0.000 A 
ATOM     17  C   UNL     1       1.828   3.368  20.760  0.00  0.00    +0.000 A 
ATOM     18  F   UNL     1       0.855   2.642  21.331  0.00  0.00    +0.000 F 
ATOM     19  C   UNL     1       3.001   2.737  20.362  0.00  0.00    +0.000 A 
ATOM     20  C   UNL     1       4.014   3.488  19.766  0.00  0.00    +0.000 A 
ENDBRANCH  13  14
ENDBRANCH   4  13
TORSDOF 4
ENDMDL
MODEL 2
REMARK VINA RESULT:      -7.8      1.580      1.627
REMARK  Name = 
REMARK  4 active torsions:
REMARK  status: ('A' for Active; 'I' for Inactive)
REMARK    1  A    between atoms: N_2  and  C_4
REMARK    2  A    between atoms: C_7  and  O_8
REMARK    3  A    between atoms: O_8  and  C_9
REMARK    4  A    between atoms: C_16  and  N_17
REMARK                            x       y       z     vdW  Elec       q    Type
REMARK                         _______ _______ _______ _____ _____    ______ ____
ROOT
ATOM      1  C   UNL     1       6.841   4.831  14.296  0.00  0.00    +0.000 A 
ATOM      2  C   UNL     1       5.526   4.358  14.366  0.00  0.00    +0.000 A 
ATOM      3  C   UNL     1       4.894   4.253  15.608  0.00  0.00    +0.000 A 
ATOM      4  C   UNL     1       5.534   4.680  16.781  0.00  0.00    +0.000 A 
ATOM      5  C   UNL     1       6.872   5.084  16.692  0.00  0.00    +0.000 A 
ATOM      6  C   UNL     1       7.539   5.177  15.459  0.00  0.00    +0.000 A 
ENDROOT
BRANCH   1   8
ATOM      7  O   UNL     1       7.141   4.172  12.092  0.00  0.00    +0.000 OA
ATOM      8  N   UNL     1       7.490   4.955  12.984  0.00  0.00    +0.000 N 
ATOM      9  O   UNL     1       8.345   5.840  12.854  0.00  0.00    +0.000 OA
ENDBRANCH   1   8
BRANCH   5  10
ATOM     10  N   UNL     1       7.625   5.412  17.888  0.00  0.00    +0.000 N 
ATOM     11  O   UNL     1       8.151   4.477  18.503  0.00  0.00    +0.000 OA
ATOM     12  O   UNL     1       7.742   6.615  18.161  0.00  0.00    +0.000 OA
ENDBRANCH   5  10
BRANCH   4  13
ATOM     13  O   UNL     1       4.886   4.705  17.999  0.00  0.00    +0.000 OA
BRANCH  13  14
ATOM     14  C   UNL     1       3.724   3.970  18.142  0.00  0.00    +0.000 A 
ATOM     15  C   UNL     1       2.518   4.642  17.917  0.00  0.00    +0.000 A 
ATOM     16  C   UNL     1       1.304   3.969  18.097  0.00  0.00    +0.000 A 
ATOM     17  C   UNL     1       1.308   2.639  18.492  0.00  0.00    +0.000 A 
ATOM     18  F   UNL     1       0.144   2.003  18.691  0.00  0.00    +0.000 F 
ATOM     19  C   UNL     1       2.500   1.950  18.686  0.00  0.00    +0.000 A 
ATOM     20  C   UNL     1       3.712   2.609  18.478  0.00  0.00    +0.000 A 
ENDBRANCH  13  14
ENDBRANCH   4  13
TORSDOF 4
ENDMDL
MODEL 3
REMARK VINA RESULT:      -7.8      1.492      1.980
REMARK  Name = 
REMARK  4 active torsions:
REMARK  status: ('A' for Active; 'I' for Inactive)
REMARK    1  A    between atoms: N_2  and  C_4
REMARK    2  A    between atoms: C_7  and  O_8
REMARK    3  A    between atoms: O_8  and  C_9
REMARK    4  A    between atoms: C_16  and  N_17
REMARK                            x       y       z     vdW  Elec       q    Type
REMARK                         _______ _______ _______ _____ _____    ______ ____
ROOT
ATOM      1  C   UNL     1       6.844   4.844  14.473  0.00  0.00    +0.000 A 
ATOM      2  C   UNL     1       5.525   4.383  14.546  0.00  0.00    +0.000 A 
ATOM      3  C   UNL     1       4.891   4.292  15.787  0.00  0.00    +0.000 A 
ATOM      4  C   UNL     1       5.533   4.724  16.958  0.00  0.00    +0.000 A 
ATOM      5  C   UNL     1       6.874   5.117  16.867  0.00  0.00    +0.000 A 
ATOM      6  C   UNL     1       7.543   5.194  15.634  0.00  0.00    +0.000 A 
ENDROOT
BRANCH   1   8
ATOM      7  O   UNL     1       8.434   5.752  13.048  0.00  0.00    +0.000 OA
ATOM      8  N   UNL     1       7.495   4.953  13.161  0.00  0.00    +0.000 N 
ATOM      9  O   UNL     1       7.066   4.233  12.250  0.00  0.00    +0.000 OA
ENDBRANCH   1   8
BRANCH   5  10
ATOM     10  N   UNL     1       7.629   5.448  18.061  0.00  0.00    +0.000 N 
ATOM     11  O   UNL     1       8.134   4.513  18.693  0.00  0.00    +0.000 OA
ATOM     12  O   UNL     1       7.768   6.652  18.316  0.00  0.00    +0.000 OA
ENDBRANCH   5  10
BRANCH   4  13
ATOM     13  O   UNL     1       4.884   4.764  18.175  0.00  0.00    +0.000 OA
BRANCH  13  14
ATOM     14  C   UNL     1       3.699   4.066  18.312  0.00  0.00    +0.000 A 
ATOM     15  C   UNL     1       3.798   2.696  18.573  0.00  0.00    +0.000 A 
ATOM     16  C   UNL     1       2.636   1.921  18.669  0.00  0.00    +0.000 A 
ATOM     17  C   UNL     1       1.395   2.521  18.509  0.00  0.00    +0.000 A 
ATOM     18  F   UNL     1       0.284   1.774  18.574  0.00  0.00    +0.000 F 
ATOM     19  C   UNL     1       1.281   3.888  18.282  0.00  0.00    +0.000 A 
ATOM     20  C   UNL     1       2.436   4.669  18.216  0.00  0.00    +0.000 A 
ENDBRANCH  13  14
ENDBRANCH   4  13
TORSDOF 4
ENDMDL
MODEL 4
REMARK VINA RESULT:      -7.7      0.135      1.090
REMARK  Name = 
REMARK  4 active torsions:
REMARK  status: ('A' for Active; 'I' for Inactive)
REMARK    1  A    between atoms: N_2  and  C_4
REMARK    2  A    between atoms: C_7  and  O_8
REMARK    3  A    between atoms: O_8  and  C_9
REMARK    4  A    between atoms: C_16  and  N_17
REMARK                            x       y       z     vdW  Elec       q    Type
REMARK                         _______ _______ _______ _____ _____    ______ ____
ROOT
ATOM      1  C   UNL     1       6.450   4.966  15.377  0.00  0.00    +0.000 A 
ATOM      2  C   UNL     1       5.088   4.754  15.612  0.00  0.00    +0.000 A 
ATOM      3  C   UNL     1       4.564   4.964  16.890  0.00  0.00    +0.000 A 
ATOM      4  C   UNL     1       5.372   5.453  17.928  0.00  0.00    +0.000 A 
ATOM      5  C   UNL     1       6.745   5.592  17.686  0.00  0.00    +0.000 A 
ATOM      6  C   UNL     1       7.300   5.365  16.415  0.00  0.00    +0.000 A 
ENDROOT
BRANCH   1   8
ATOM      7  O   UNL     1       6.465   3.882  13.326  0.00  0.00    +0.000 OA
ATOM      8  N   UNL     1       6.986   4.760  14.025  0.00  0.00    +0.000 N 
ATOM      9  O   UNL     1       7.926   5.483  13.669  0.00  0.00    +0.000 OA
ENDBRANCH   1   8
BRANCH   5  10
ATOM     10  N   UNL     1       7.649   5.968  18.755  0.00  0.00    +0.000 N 
ATOM     11  O   UNL     1       7.907   5.112  19.610  0.00  0.00    +0.000 OA
ATOM     12  O   UNL     1       8.150   7.099  18.691  0.00  0.00    +0.000 OA
ENDBRANCH   5  10
BRANCH   4  13
ATOM     13  O   UNL     1       4.853   5.789  19.162  0.00  0.00    +0.000 OA
BRANCH  13  14
ATOM     14  C   UNL     1       3.816   5.028  19.669  0.00  0.00    +0.000 A 
ATOM     15  C   UNL     1       4.064   3.664  19.855  0.00  0.00    +0.000 A 
ATOM     16  C   UNL     1       3.040   2.828  20.313  0.00  0.00    +0.000 A 
ATOM     17  C   UNL     1       1.788   3.361  20.585  0.00  0.00    +0.000 A 
ATOM     18  F   UNL     1       0.799   2.555  20.999  0.00  0.00    +0.000 F 
ATOM     19  C   UNL     1       1.538   4.721  20.437  0.00  0.00    +0.000 A 
ATOM     20  C   UNL     1       2.565   5.563  20.009  0.00  0.00    +0.000 A 
ENDBRANCH  13  14
ENDBRANCH   4  13
TORSDOF 4
ENDMDL
MODEL 5
REMARK VINA RESULT:      -7.3      2.045      2.613
REMARK  Name = 
REMARK  4 active torsions:
REMARK  status: ('A' for Active; 'I' for Inactive)
REMARK    1  A    between atoms: N_2  and  C_4
REMARK    2  A    between atoms: C_7  and  O_8
REMARK    3  A    between atoms: O_8  and  C_9
REMARK    4  A    between atoms: C_16  and  N_17
REMARK                            x       y       z     vdW  Elec       q    Type
REMARK                         _______ _______ _______ _____ _____    ______ ____
ROOT
ATOM      1  C   UNL     1       6.958   4.877  14.383  0.00  0.00    +0.000 A 
ATOM      2  C   UNL     1       5.678   4.314  14.373  0.00  0.00    +0.000 A 
ATOM      3  C   UNL     1       4.985   4.146  15.576  0.00  0.00    +0.000 A 
ATOM      4  C   UNL     1       5.527   4.597  16.789  0.00  0.00    +0.000 A 
ATOM      5  C   UNL     1       6.837   5.094  16.781  0.00  0.00    +0.000 A 
ATOM      6  C   UNL     1       7.563   5.252  15.589  0.00  0.00    +0.000 A 
ENDROOT
BRANCH   1   8
ATOM      7  O   UNL     1       7.282   4.417  12.133  0.00  0.00    +0.000 OA
ATOM      8  N   UNL     1       7.669   5.066  13.113  0.00  0.00    +0.000 N 
ATOM      9  O   UNL     1       8.612   5.869  13.102  0.00  0.00    +0.000 OA
ENDBRANCH   1   8
BRANCH   5  10
ATOM     10  N   UNL     1       7.497   5.454  18.021  0.00  0.00    +0.000 N 
ATOM     11  O   UNL     1       7.996   4.539  18.687  0.00  0.00    +0.000 OA
ATOM     12  O   UNL     1       7.571   6.663  18.283  0.00  0.00    +0.000 OA
ENDBRANCH   5  10
BRANCH   4  13
ATOM     13  O   UNL     1       4.812   4.559  17.968  0.00  0.00    +0.000 OA
BRANCH  13  14
ATOM     14  C   UNL     1       4.007   5.638  18.284  0.00  0.00    +0.000 A 
ATOM     15  C   UNL     1       3.239   5.535  19.448  0.00  0.00    +0.000 A 
ATOM     16  C   UNL     1       2.363   6.569  19.797  0.00  0.00    +0.000 A 
ATOM     17  C   UNL     1       2.268   7.691  18.985  0.00  0.00    +0.000 A 
ATOM     18  F   UNL     1       1.410   8.670  19.305  0.00  0.00    +0.000 F 
ATOM     19  C   UNL     1       3.051   7.821  17.844  0.00  0.00    +0.000 A 
ATOM     20  C   UNL     1       3.948   6.805  17.510  0.00  0.00    +0.000 A 
ENDBRANCH  13  14
ENDBRANCH   4  13
TORSDOF 4
ENDMDL
MODEL 6
REMARK VINA RESULT:      -7.3      2.227      3.103
REMARK  Name = 
REMARK  4 active torsions:
REMARK  status: ('A' for Active; 'I' for Inactive)
REMARK    1  A    between atoms: N_2  and  C_4
REMARK    2  A    between atoms: C_7  and  O_8
REMARK    3  A    between atoms: O_8  and  C_9
REMARK    4  A    between atoms: C_16  and  N_17
REMARK                            x       y       z     vdW  Elec       q    Type
REMARK                         _______ _______ _______ _____ _____    ______ ____
ROOT
ATOM      1  C   UNL     1       5.870   5.810  16.571  0.00  0.00    +0.000 A 
ATOM      2  C   UNL     1       5.465   4.477  16.691  0.00  0.00    +0.000 A 
ATOM      3  C   UNL     1       4.208   4.180  17.226  0.00  0.00    +0.000 A 
ATOM      4  C   UNL     1       3.316   5.203  17.580  0.00  0.00    +0.000 A 
ATOM      5  C   UNL     1       3.771   6.526  17.514  0.00  0.00    +0.000 A 
ATOM      6  C   UNL     1       5.038   6.850  17.002  0.00  0.00    +0.000 A 
ENDROOT
BRANCH   1   8
ATOM      7  O   UNL     1       7.842   7.029  16.499  0.00  0.00    +0.000 OA
ATOM      8  N   UNL     1       7.185   6.112  15.991  0.00  0.00    +0.000 N 
ATOM      9  O   UNL     1       7.554   5.424  15.030  0.00  0.00    +0.000 OA
ENDBRANCH   1   8
BRANCH   5  10
ATOM     10  N   UNL     1       2.941   7.617  17.989  0.00  0.00    +0.000 N 
ATOM     11  O   UNL     1       2.644   7.624  19.190  0.00  0.00    +0.000 OA
ATOM     12  O   UNL     1       2.651   8.496  17.167  0.00  0.00    +0.000 OA
ENDBRANCH   5  10
BRANCH   4  13
ATOM     13  O   UNL     1       2.025   4.938  17.990  0.00  0.00    +0.000 OA
BRANCH  13  14
ATOM     14  C   UNL     1       1.839   4.223  19.158  0.00  0.00    +0.000 A 
ATOM     15  C   UNL     1       1.061   3.064  19.075  0.00  0.00    +0.000 A 
ATOM     16  C   UNL     1       0.789   2.324  20.231  0.00  0.00    +0.000 A 
ATOM     17  C   UNL     1       1.301   2.744  21.451  0.00  0.00    +0.000 A 
ATOM     18  F   UNL     1       1.019   2.050  22.563  0.00  0.00    +0.000 F 
ATOM     19  C   UNL     1       2.105   3.875  21.542  0.00  0.00    +0.000 A 
ATOM     20  C   UNL     1       2.402   4.598  20.387  0.00  0.00    +0.000 A 
ENDBRANCH  13  14
ENDBRANCH   4  13
TORSDOF 4
ENDMDL
MODEL 7
REMARK VINA RESULT:      -7.2      2.055      2.760
REMARK  Name = 
REMARK  4 active torsions:
REMARK  status: ('A' for Active; 'I' for Inactive)
REMARK    1  A    between atoms: N_2  and  C_4
REMARK    2  A    between atoms: C_7  and  O_8
REMARK    3  A    between atoms: O_8  and  C_9
REMARK    4  A    between atoms: C_16  and  N_17
REMARK                            x       y       z     vdW  Elec       q    Type
REMARK                         _______ _______ _______ _____ _____    ______ ____
ROOT
ATOM      1  C   UNL     1       6.807   4.764  14.348  0.00  0.00    +0.000 A 
ATOM      2  C   UNL     1       5.527   4.211  14.451  0.00  0.00    +0.000 A 
ATOM      3  C   UNL     1       4.928   4.079  15.707  0.00  0.00    +0.000 A 
ATOM      4  C   UNL     1       5.564   4.559  16.862  0.00  0.00    +0.000 A 
ATOM      5  C   UNL     1       6.871   5.045  16.741  0.00  0.00    +0.000 A 
ATOM      6  C   UNL     1       7.505   5.166  15.493  0.00  0.00    +0.000 A 
ENDROOT
BRANCH   1   8
ATOM      7  O   UNL     1       8.261   5.810  12.874  0.00  0.00    +0.000 OA
ATOM      8  N   UNL     1       7.420   4.914  13.022  0.00  0.00    +0.000 N 
ATOM      9  O   UNL     1       7.059   4.130  12.136  0.00  0.00    +0.000 OA
ENDBRANCH   1   8
BRANCH   5  10
ATOM     10  N   UNL     1       7.627   5.433  17.917  0.00  0.00    +0.000 N 
ATOM     11  O   UNL     1       7.634   6.633  18.218  0.00  0.00    +0.000 OA
ATOM     12  O   UNL     1       8.150   4.520  18.570  0.00  0.00    +0.000 OA
ENDBRANCH   5  10
BRANCH   4  13
ATOM     13  O   UNL     1       4.941   4.557  18.094  0.00  0.00    +0.000 OA
BRANCH  13  14
ATOM     14  C   UNL     1       4.036   5.564  18.374  0.00  0.00    +0.000 A 
ATOM     15  C   UNL     1       4.017   6.659  17.504  0.00  0.00    +0.000 A 
ATOM     16  C   UNL     1       3.163   7.737  17.762  0.00  0.00    +0.000 A 
ATOM     17  C   UNL     1       2.338   7.708  18.878  0.00  0.00    +0.000 A 
ATOM     18  F   UNL     1       1.539   8.752  19.139  0.00  0.00    +0.000 F 
ATOM     19  C   UNL     1       2.323   6.611  19.732  0.00  0.00    +0.000 A 
ATOM     20  C   UNL     1       3.151   5.521  19.461  0.00  0.00    +0.000 A 
ENDBRANCH  13  14
ENDBRANCH   4  13
TORSDOF 4
ENDMDL
MODEL 8
REMARK VINA RESULT:      -7.1      3.381      4.422
REMARK  Name = 
REMARK  4 active torsions:
REMARK  status: ('A' for Active; 'I' for Inactive)
REMARK    1  A    between atoms: N_2  and  C_4
REMARK    2  A    between atoms: C_7  and  O_8
REMARK    3  A    between atoms: O_8  and  C_9
REMARK    4  A    between atoms: C_16  and  N_17
REMARK                            x       y       z     vdW  Elec       q    Type
REMARK                         _______ _______ _______ _____ _____    ______ ____
ROOT
ATOM      1  C   UNL     1       5.563   5.049  15.977  0.00  0.00    +0.000 A 
ATOM      2  C   UNL     1       5.712   6.301  16.583  0.00  0.00    +0.000 A 
ATOM      3  C   UNL     1       4.829   6.690  17.594  0.00  0.00    +0.000 A 
ATOM      4  C   UNL     1       3.836   5.816  18.060  0.00  0.00    +0.000 A 
ATOM      5  C   UNL     1       3.665   4.597  17.392  0.00  0.00    +0.000 A 
ATOM      6  C   UNL     1       4.524   4.191  16.357  0.00  0.00    +0.000 A 
ENDROOT
BRANCH   1   8
ATOM      7  O   UNL     1       6.240   3.624  14.277  0.00  0.00    +0.000 OA
ATOM      8  N   UNL     1       6.507   4.642  14.929  0.00  0.00    +0.000 N 
ATOM      9  O   UNL     1       7.511   5.346  14.761  0.00  0.00    +0.000 OA
ENDBRANCH   1   8
BRANCH   5  10
ATOM     10  N   UNL     1       2.573   3.709  17.743  0.00  0.00    +0.000 N 
ATOM     11  O   UNL     1       1.446   3.999  17.324  0.00  0.00    +0.000 OA
ATOM     12  O   UNL     1       2.867   2.688  18.379  0.00  0.00    +0.000 OA
ENDBRANCH   5  10
BRANCH   4  13
ATOM     13  O   UNL     1       3.036   6.127  19.140  0.00  0.00    +0.000 OA
BRANCH  13  14
ATOM     14  C   UNL     1       2.340   7.321  19.121  0.00  0.00    +0.000 A 
ATOM     15  C   UNL     1       1.790   7.754  20.331  0.00  0.00    +0.000 A 
ATOM     16  C   UNL     1       1.027   8.927  20.369  0.00  0.00    +0.000 A 
ATOM     17  C   UNL     1       0.828   9.654  19.204  0.00  0.00    +0.000 A 
ATOM     18  F   UNL     1       0.076  10.763  19.235  0.00  0.00    +0.000 F 
ATOM     19  C   UNL     1       1.397   9.253  18.000  0.00  0.00    +0.000 A 
ATOM     20  C   UNL     1       2.183   8.100  17.965  0.00  0.00    +0.000 A 
ENDBRANCH  13  14
ENDBRANCH   4  13
TORSDOF 4
ENDMDL
MODEL 9
REMARK VINA RESULT:      -7.1      1.305      1.673
REMARK  Name = 
REMARK  4 active torsions:
REMARK  status: ('A' for Active; 'I' for Inactive)
REMARK    1  A    between atoms: N_2  and  C_4
REMARK    2  A    between atoms: C_7  and  O_8
REMARK    3  A    between atoms: O_8  and  C_9
REMARK    4  A    between atoms: C_16  and  N_17
REMARK                            x       y       z     vdW  Elec       q    Type
REMARK                         _______ _______ _______ _____ _____    ______ ____
ROOT
ATOM      1  C   UNL     1       6.349   5.296  15.363  0.00  0.00    +0.000 A 
ATOM      2  C   UNL     1       5.222   6.095  15.149  0.00  0.00    +0.000 A 
ATOM      3  C   UNL     1       4.379   6.406  16.220  0.00  0.00    +0.000 A 
ATOM      4  C   UNL     1       4.685   5.986  17.523  0.00  0.00    +0.000 A 
ATOM      5  C   UNL     1       5.781   5.131  17.700  0.00  0.00    +0.000 A 
ATOM      6  C   UNL     1       6.630   4.784  16.636  0.00  0.00    +0.000 A 
ENDROOT
BRANCH   1   8
ATOM      7  O   UNL     1       8.243   5.696  14.085  0.00  0.00    +0.000 OA
ATOM      8  N   UNL     1       7.238   4.990  14.235  0.00  0.00    +0.000 N 
ATOM      9  O   UNL     1       6.926   4.039  13.506  0.00  0.00    +0.000 OA
ENDBRANCH   1   8
BRANCH   5  10
ATOM     10  N   UNL     1       6.070   4.560  19.001  0.00  0.00    +0.000 N 
ATOM     11  O   UNL     1       5.565   3.462  19.266  0.00  0.00    +0.000 OA
ATOM     12  O   UNL     1       6.859   5.186  19.722  0.00  0.00    +0.000 OA
ENDBRANCH   5  10
BRANCH   4  13
ATOM     13  O   UNL     1       3.941   6.386  18.614  0.00  0.00    +0.000 OA
BRANCH  13  14
ATOM     14  C   UNL     1       2.979   5.524  19.105  0.00  0.00    +0.000 A 
ATOM     15  C   UNL     1       2.814   5.483  20.493  0.00  0.00    +0.000 A 
ATOM     16  C   UNL     1       1.894   4.592  21.058  0.00  0.00    +0.000 A 
ATOM     17  C   UNL     1       1.149   3.760  20.234  0.00  0.00    +0.000 A 
ATOM     18  F   UNL     1       0.287   2.888  20.777  0.00  0.00    +0.000 F 
ATOM     19  C   UNL     1       1.279   3.814  18.851  0.00  0.00    +0.000 A 
ATOM     20  C   UNL     1       2.173   4.723  18.283  0.00  0.00    +0.000 A 
ENDBRANCH  13  14
ENDBRANCH   4  13
TORSDOF 4
ENDMDL
