MODEL 1
REMARK VINA RESULT:      -7.0      0.000      0.000
REMARK  Name = 
REMARK  10 active torsions:
REMARK  status: ('A' for Active; 'I' for Inactive)
REMARK    1  A    between atoms: C_1  and  C_2
REMARK    2  A    between atoms: C_2  and  C_3
REMARK    3  A    between atoms: C_5  and  O_6
REMARK    4  A    between atoms: C_7  and  O_8
REMARK    5  A    between atoms: O_8  and  C_9
REMARK    6  A    between atoms: C_11  and  C_12
REMARK    7  A    between atoms: C_12  and  O_13
REMARK    8  A    between atoms: C_14  and  O_15
REMARK    9  A    between atoms: C_16  and  O_17
REMARK   10  A    between atoms: C_18  and  O_19
REMARK                            x       y       z     vdW  Elec       q    Type
REMARK                         _______ _______ _______ _____ _____    ______ ____
ROOT
ATOM      1  O   UNL     1       5.213   3.953  16.644  0.00  0.00    +0.000 OA
ENDROOT
BRANCH   1   7
ATOM      2  C   UNL     1       2.677   3.030  20.773  0.00  0.00    +0.000 C 
ATOM      3  C   UNL     1       2.050   3.392  19.416  0.00  0.00    +0.000 C 
ATOM      4  C   UNL     1       0.518   3.515  19.577  0.00  0.00    +0.000 C 
ATOM      5  C   UNL     1       2.300   2.246  18.380  0.00  0.00    +0.000 C 
ATOM      6  C   UNL     1       3.613   2.351  17.599  0.00  0.00    +0.000 C 
ATOM      7  C   UNL     1       3.837   3.748  16.958  0.00  0.00    +0.000 C 
ATOM      8  C   UNL     1       3.428   4.848  17.874  0.00  0.00    +0.000 C 
ATOM      9  C   UNL     1       2.642   4.682  18.935  0.00  0.00    +0.000 C 
ATOM     10  C   UNL     1       2.473   6.013  19.532  0.00  0.00    +0.000 C 
ATOM     11  O   UNL     1       1.843   6.268  20.535  0.00  0.00    +0.000 OA
ATOM     12  O   UNL     1       3.135   6.923  18.765  0.00  0.00    +0.000 OA
ATOM     13  C   UNL     1       3.778   6.261  17.674  0.00  0.00    +0.000 C 
BRANCH   6  14
ATOM     14  O   UNL     1       4.701   1.981  18.461  0.00  0.00    +0.000 OA
ATOM     15  H   UNL     1       5.466   1.779  17.887  0.00  0.00    +0.000 HD
ENDBRANCH   6  14
ENDBRANCH   1   7
BRANCH   1  16
ATOM     16  C   UNL     1       5.521   4.611  15.406  0.00  0.00    +0.000 C 
ATOM     17  O   UNL     1       5.173   3.652  14.412  0.00  0.00    +0.000 OA
ATOM     18  C   UNL     1       5.511   3.963  13.057  0.00  0.00    +0.000 C 
ATOM     19  C   UNL     1       6.999   4.303  12.900  0.00  0.00    +0.000 C 
ATOM     20  C   UNL     1       7.360   5.425  13.873  0.00  0.00    +0.000 C 
ATOM     21  C   UNL     1       7.005   5.027  15.304  0.00  0.00    +0.000 C 
BRANCH  19  22
ATOM     22  O   UNL     1       7.287   4.674  11.552  0.00  0.00    +0.000 OA
ATOM     23  H   UNL     1       7.309   3.878  10.994  0.00  0.00    +0.000 HD
ENDBRANCH  19  22
BRANCH  20  24
ATOM     24  O   UNL     1       8.751   5.770  13.770  0.00  0.00    +0.000 OA
ATOM     25  H   UNL     1       8.810   6.676  13.416  0.00  0.00    +0.000 HD
ENDBRANCH  20  24
BRANCH  21  26
ATOM     26  O   UNL     1       7.321   6.116  16.190  0.00  0.00    +0.000 OA
ATOM     27  H   UNL     1       8.282   6.113  16.368  0.00  0.00    +0.000 HD
ENDBRANCH  21  26
BRANCH  18  28
ATOM     28  C   UNL     1       5.154   2.717  12.230  0.00  0.00    +0.000 C 
BRANCH  28  29
ATOM     29  O   UNL     1       6.355   2.031  11.861  0.00  0.00    +0.000 OA
ATOM     30  H   UNL     1       6.968   2.733  11.566  0.00  0.00    +0.000 HD
ENDBRANCH  28  29
ENDBRANCH  18  28
ENDBRANCH   1  16
TORSDOF 8
ENDMDL
MODEL 2
REMARK VINA RESULT:      -7.0      3.174      7.815
REMARK  Name = 
REMARK  10 active torsions:
REMARK  status: ('A' for Active; 'I' for Inactive)
REMARK    1  A    between atoms: C_1  and  C_2
REMARK    2  A    between atoms: C_2  and  C_3
REMARK    3  A    between atoms: C_5  and  O_6
REMARK    4  A    between atoms: C_7  and  O_8
REMARK    5  A    between atoms: O_8  and  C_9
REMARK    6  A    between atoms: C_11  and  C_12
REMARK    7  A    between atoms: C_12  and  O_13
REMARK    8  A    between atoms: C_14  and  O_15
REMARK    9  A    between atoms: C_16  and  O_17
REMARK   10  A    between atoms: C_18  and  O_19
REMARK                            x       y       z     vdW  Elec       q    Type
REMARK                         _______ _______ _______ _____ _____    ______ ____
ROOT
ATOM      1  O   UNL     1       1.680   6.964  19.257  0.00  0.00    +0.000 OA
ENDROOT
BRANCH   1   7
ATOM      2  C   UNL     1       2.261   2.073  18.986  0.00  0.00    +0.000 C 
ATOM      3  C   UNL     1       3.274   3.048  19.610  0.00  0.00    +0.000 C 
ATOM      4  C   UNL     1       4.534   2.266  20.046  0.00  0.00    +0.000 C 
ATOM      5  C   UNL     1       2.678   3.693  20.905  0.00  0.00    +0.000 C 
ATOM      6  C   UNL     1       1.861   4.969  20.679  0.00  0.00    +0.000 C 
ATOM      7  C   UNL     1       2.598   6.025  19.811  0.00  0.00    +0.000 C 
ATOM      8  C   UNL     1       3.324   5.397  18.674  0.00  0.00    +0.000 C 
ATOM      9  C   UNL     1       3.621   4.102  18.602  0.00  0.00    +0.000 C 
ATOM     10  C   UNL     1       4.354   3.917  17.343  0.00  0.00    +0.000 C 
ATOM     11  O   UNL     1       4.771   2.866  16.909  0.00  0.00    +0.000 OA
ATOM     12  O   UNL     1       4.500   5.131  16.742  0.00  0.00    +0.000 OA
ATOM     13  C   UNL     1       3.869   6.141  17.531  0.00  0.00    +0.000 C 
BRANCH   6  14
ATOM     14  O   UNL     1       0.588   4.615  20.117  0.00  0.00    +0.000 OA
ATOM     15  H   UNL     1       0.694   3.740  19.693  0.00  0.00    +0.000 HD
ENDBRANCH   6  14
ENDBRANCH   1   7
BRANCH   1  16
ATOM     16  C   UNL     1       1.773   8.326  19.701  0.00  0.00    +0.000 C 
ATOM     17  O   UNL     1       0.971   8.358  20.879  0.00  0.00    +0.000 OA
ATOM     18  C   UNL     1       0.741   9.636  21.478  0.00  0.00    +0.000 C 
ATOM     19  C   UNL     1       0.166  10.645  20.475  0.00  0.00    +0.000 C 
ATOM     20  C   UNL     1       1.087  10.719  19.259  0.00  0.00    +0.000 C 
ATOM     21  C   UNL     1       1.273   9.334  18.643  0.00  0.00    +0.000 C 
BRANCH  19  22
ATOM     22  O   UNL     1       0.014  11.926  21.088  0.00  0.00    +0.000 OA
ATOM     23  H   UNL     1      -0.523  11.837  21.895  0.00  0.00    +0.000 HD
ENDBRANCH  19  22
BRANCH  20  24
ATOM     24  O   UNL     1       0.581  11.646  18.284  0.00  0.00    +0.000 OA
ATOM     25  H   UNL     1      -0.180  11.228  17.839  0.00  0.00    +0.000 HD
ENDBRANCH  20  24
BRANCH  21  26
ATOM     26  O   UNL     1       2.173   9.431  17.524  0.00  0.00    +0.000 OA
ATOM     27  H   UNL     1       2.059   8.645  16.955  0.00  0.00    +0.000 HD
ENDBRANCH  21  26
BRANCH  18  28
ATOM     28  C   UNL     1      -0.250   9.397  22.628  0.00  0.00    +0.000 C 
BRANCH  28  29
ATOM     29  O   UNL     1      -0.249  10.532  23.501  0.00  0.00    +0.000 OA
ATOM     30  H   UNL     1       0.031  10.183  24.370  0.00  0.00    +0.000 HD
ENDBRANCH  28  29
ENDBRANCH  18  28
ENDBRANCH   1  16
TORSDOF 8
ENDMDL
MODEL 3
REMARK VINA RESULT:      -6.8      3.933      6.930
REMARK  Name = 
REMARK  10 active torsions:
REMARK  status: ('A' for Active; 'I' for Inactive)
REMARK    1  A    between atoms: C_1  and  C_2
REMARK    2  A    between atoms: C_2  and  C_3
REMARK    3  A    between atoms: C_5  and  O_6
REMARK    4  A    between atoms: C_7  and  O_8
REMARK    5  A    between atoms: O_8  and  C_9
REMARK    6  A    between atoms: C_11  and  C_12
REMARK    7  A    between atoms: C_12  and  O_13
REMARK    8  A    between atoms: C_14  and  O_15
REMARK    9  A    between atoms: C_16  and  O_17
REMARK   10  A    between atoms: C_18  and  O_19
REMARK                            x       y       z     vdW  Elec       q    Type
REMARK                         _______ _______ _______ _____ _____    ______ ____
ROOT
ATOM      1  O   UNL     1       2.556   7.167  19.993  0.00  0.00    +0.000 OA
ENDROOT
BRANCH   1   7
ATOM      2  C   UNL     1       0.807  11.523  21.511  0.00  0.00    +0.000 C 
ATOM      3  C   UNL     1       0.077  10.565  20.555  0.00  0.00    +0.000 C 
ATOM      4  C   UNL     1      -1.235  11.224  20.074  0.00  0.00    +0.000 C 
ATOM      5  C   UNL     1      -0.331   9.254  21.307  0.00  0.00    +0.000 C 
ATOM      6  C   UNL     1       0.732   8.151  21.313  0.00  0.00    +0.000 C 
ATOM      7  C   UNL     1       1.301   7.838  19.902  0.00  0.00    +0.000 C 
ATOM      8  C   UNL     1       1.521   9.076  19.108  0.00  0.00    +0.000 C 
ATOM      9  C   UNL     1       0.976  10.255  19.396  0.00  0.00    +0.000 C 
ATOM     10  C   UNL     1       1.428  11.184  18.353  0.00  0.00    +0.000 C 
ATOM     11  O   UNL     1       1.164  12.364  18.286  0.00  0.00    +0.000 OA
ATOM     12  O   UNL     1       2.193  10.497  17.459  0.00  0.00    +0.000 OA
ATOM     13  C   UNL     1       2.304   9.131  17.866  0.00  0.00    +0.000 C 
BRANCH   6  14
ATOM     14  O   UNL     1       1.771   8.509  22.238  0.00  0.00    +0.000 OA
ATOM     15  H   UNL     1       2.568   8.002  21.984  0.00  0.00    +0.000 HD
ENDBRANCH   6  14
ENDBRANCH   1   7
BRANCH   1  16
ATOM     16  C   UNL     1       2.664   5.874  19.381  0.00  0.00    +0.000 C 
ATOM     17  O   UNL     1       2.033   5.000  20.313  0.00  0.00    +0.000 OA
ATOM     18  C   UNL     1       2.116   3.596  20.051  0.00  0.00    +0.000 C 
ATOM     19  C   UNL     1       3.566   3.131  19.858  0.00  0.00    +0.000 C 
ATOM     20  C   UNL     1       4.219   3.977  18.766  0.00  0.00    +0.000 C 
ATOM     21  C   UNL     1       4.128   5.462  19.112  0.00  0.00    +0.000 C 
BRANCH  19  22
ATOM     22  O   UNL     1       3.606   1.742  19.530  0.00  0.00    +0.000 OA
ATOM     23  H   UNL     1       2.798   1.501  19.044  0.00  0.00    +0.000 HD
ENDBRANCH  19  22
BRANCH  20  24
ATOM     24  O   UNL     1       5.586   3.585  18.559  0.00  0.00    +0.000 OA
ATOM     25  H   UNL     1       5.666   2.639  18.786  0.00  0.00    +0.000 HD
ENDBRANCH  20  24
BRANCH  21  26
ATOM     26  O   UNL     1       4.718   6.232  18.049  0.00  0.00    +0.000 OA
ATOM     27  H   UNL     1       5.633   5.922  17.901  0.00  0.00    +0.000 HD
ENDBRANCH  21  26
BRANCH  18  28
ATOM     28  C   UNL     1       1.484   2.895  21.264  0.00  0.00    +0.000 C 
BRANCH  28  29
ATOM     29  O   UNL     1       2.509   2.553  22.203  0.00  0.00    +0.000 OA
ATOM     30  H   UNL     1       2.244   1.682  22.560  0.00  0.00    +0.000 HD
ENDBRANCH  28  29
ENDBRANCH  18  28
ENDBRANCH   1  16
TORSDOF 8
ENDMDL
MODEL 4
REMARK VINA RESULT:      -6.7      3.563      6.926
REMARK  Name = 
REMARK  10 active torsions:
REMARK  status: ('A' for Active; 'I' for Inactive)
REMARK    1  A    between atoms: C_1  and  C_2
REMARK    2  A    between atoms: C_2  and  C_3
REMARK    3  A    between atoms: C_5  and  O_6
REMARK    4  A    between atoms: C_7  and  O_8
REMARK    5  A    between atoms: O_8  and  C_9
REMARK    6  A    between atoms: C_11  and  C_12
REMARK    7  A    between atoms: C_12  and  O_13
REMARK    8  A    between atoms: C_14  and  O_15
REMARK    9  A    between atoms: C_16  and  O_17
REMARK   10  A    between atoms: C_18  and  O_19
REMARK                            x       y       z     vdW  Elec       q    Type
REMARK                         _______ _______ _______ _____ _____    ______ ____
ROOT
ATOM      1  O   UNL     1       1.896   7.079  18.973  0.00  0.00    +0.000 OA
ENDROOT
BRANCH   1   7
ATOM      2  C   UNL     1      -0.564  11.337  18.575  0.00  0.00    +0.000 C 
ATOM      3  C   UNL     1       0.761  11.152  19.333  0.00  0.00    +0.000 C 
ATOM      4  C   UNL     1       1.144  12.479  20.026  0.00  0.00    +0.000 C 
ATOM      5  C   UNL     1       1.918  10.821  18.332  0.00  0.00    +0.000 C 
ATOM      6  C   UNL     1       2.098   9.333  18.016  0.00  0.00    +0.000 C 
ATOM      7  C   UNL     1       2.180   8.441  19.285  0.00  0.00    +0.000 C 
ATOM      8  C   UNL     1       1.201   8.866  20.323  0.00  0.00    +0.000 C 
ATOM      9  C   UNL     1       0.598  10.052  20.339  0.00  0.00    +0.000 C 
ATOM     10  C   UNL     1      -0.253  10.065  21.535  0.00  0.00    +0.000 C 
ATOM     11  O   UNL     1      -0.984  10.967  21.880  0.00  0.00    +0.000 OA
ATOM     12  O   UNL     1      -0.080   8.891  22.206  0.00  0.00    +0.000 OA
ATOM     13  C   UNL     1       0.842   8.060  21.497  0.00  0.00    +0.000 C 
BRANCH   6  14
ATOM     14  O   UNL     1       1.045   8.911  17.136  0.00  0.00    +0.000 OA
ATOM     15  H   UNL     1       0.213   8.945  17.648  0.00  0.00    +0.000 HD
ENDBRANCH   6  14
ENDBRANCH   1   7
BRANCH   1  16
ATOM     16  C   UNL     1       2.711   6.073  19.590  0.00  0.00    +0.000 C 
ATOM     17  O   UNL     1       3.874   6.021  18.768  0.00  0.00    +0.000 OA
ATOM     18  C   UNL     1       4.824   4.989  19.044  0.00  0.00    +0.000 C 
ATOM     19  C   UNL     1       4.176   3.598  19.051  0.00  0.00    +0.000 C 
ATOM     20  C   UNL     1       3.002   3.599  20.029  0.00  0.00    +0.000 C 
ATOM     21  C   UNL     1       2.007   4.700  19.670  0.00  0.00    +0.000 C 
BRANCH  19  22
ATOM     22  O   UNL     1       5.137   2.600  19.397  0.00  0.00    +0.000 OA
ATOM     23  H   UNL     1       4.730   1.956  20.002  0.00  0.00    +0.000 HD
ENDBRANCH  19  22
BRANCH  20  24
ATOM     24  O   UNL     1       2.354   2.317  20.060  0.00  0.00    +0.000 OA
ATOM     25  H   UNL     1       1.433   2.453  20.350  0.00  0.00    +0.000 HD
ENDBRANCH  20  24
BRANCH  21  26
ATOM     26  O   UNL     1       0.934   4.700  20.629  0.00  0.00    +0.000 OA
ATOM     27  H   UNL     1       0.369   3.917  20.475  0.00  0.00    +0.000 HD
ENDBRANCH  21  26
BRANCH  18  28
ATOM     28  C   UNL     1       5.889   5.079  17.939  0.00  0.00    +0.000 C 
BRANCH  28  29
ATOM     29  O   UNL     1       7.031   4.302  18.314  0.00  0.00    +0.000 OA
ATOM     30  H   UNL     1       7.094   4.396  19.285  0.00  0.00    +0.000 HD
ENDBRANCH  28  29
ENDBRANCH  18  28
ENDBRANCH   1  16
TORSDOF 8
ENDMDL
MODEL 5
REMARK VINA RESULT:      -6.6      4.036      6.514
REMARK  Name = 
REMARK  10 active torsions:
REMARK  status: ('A' for Active; 'I' for Inactive)
REMARK    1  A    between atoms: C_1  and  C_2
REMARK    2  A    between atoms: C_2  and  C_3
REMARK    3  A    between atoms: C_5  and  O_6
REMARK    4  A    between atoms: C_7  and  O_8
REMARK    5  A    between atoms: O_8  and  C_9
REMARK    6  A    between atoms: C_11  and  C_12
REMARK    7  A    between atoms: C_12  and  O_13
REMARK    8  A    between atoms: C_14  and  O_15
REMARK    9  A    between atoms: C_16  and  O_17
REMARK   10  A    between atoms: C_18  and  O_19
REMARK                            x       y       z     vdW  Elec       q    Type
REMARK                         _______ _______ _______ _____ _____    ______ ____
ROOT
ATOM      1  O   UNL     1       2.726   7.020  19.925  0.00  0.00    +0.000 OA
ENDROOT
BRANCH   1   7
ATOM      2  C   UNL     1       0.831  11.321  21.425  0.00  0.00    +0.000 C 
ATOM      3  C   UNL     1       0.144  10.345  20.454  0.00  0.00    +0.000 C 
ATOM      4  C   UNL     1      -1.179  10.968  19.954  0.00  0.00    +0.000 C 
ATOM      5  C   UNL     1      -0.239   9.021  21.196  0.00  0.00    +0.000 C 
ATOM      6  C   UNL     1       0.854   7.949  21.218  0.00  0.00    +0.000 C 
ATOM      7  C   UNL     1       1.454   7.655  19.815  0.00  0.00    +0.000 C 
ATOM      8  C   UNL     1       1.652   8.902  19.027  0.00  0.00    +0.000 C 
ATOM      9  C   UNL     1       1.069  10.064  19.309  0.00  0.00    +0.000 C 
ATOM     10  C   UNL     1       1.512  11.009  18.275  0.00  0.00    +0.000 C 
ATOM     11  O   UNL     1       1.216  12.181  18.207  0.00  0.00    +0.000 OA
ATOM     12  O   UNL     1       2.310  10.345  17.392  0.00  0.00    +0.000 OA
ATOM     13  C   UNL     1       2.453   8.982  17.798  0.00  0.00    +0.000 C 
BRANCH   6  14
ATOM     14  O   UNL     1       1.868   8.333  22.159  0.00  0.00    +0.000 OA
ATOM     15  H   UNL     1       2.632   7.739  22.017  0.00  0.00    +0.000 HD
ENDBRANCH   6  14
ENDBRANCH   1   7
BRANCH   1  16
ATOM     16  C   UNL     1       2.967   5.870  19.101  0.00  0.00    +0.000 C 
ATOM     17  O   UNL     1       1.860   5.015  19.373  0.00  0.00    +0.000 OA
ATOM     18  C   UNL     1       1.893   3.703  18.805  0.00  0.00    +0.000 C 
ATOM     19  C   UNL     1       3.182   2.953  19.167  0.00  0.00    +0.000 C 
ATOM     20  C   UNL     1       4.385   3.804  18.761  0.00  0.00    +0.000 C 
ATOM     21  C   UNL     1       4.313   5.181  19.418  0.00  0.00    +0.000 C 
BRANCH  19  22
ATOM     22  O   UNL     1       3.213   1.676  18.528  0.00  0.00    +0.000 OA
ATOM     23  H   UNL     1       2.735   1.726  17.682  0.00  0.00    +0.000 HD
ENDBRANCH  19  22
BRANCH  20  24
ATOM     24  O   UNL     1       5.618   3.145  19.093  0.00  0.00    +0.000 OA
ATOM     25  H   UNL     1       5.409   2.388  19.670  0.00  0.00    +0.000 HD
ENDBRANCH  20  24
BRANCH  21  26
ATOM     26  O   UNL     1       5.437   5.969  18.988  0.00  0.00    +0.000 OA
ATOM     27  H   UNL     1       5.950   6.247  19.772  0.00  0.00    +0.000 HD
ENDBRANCH  21  26
BRANCH  18  28
ATOM     28  C   UNL     1       0.667   2.963  19.363  0.00  0.00    +0.000 C 
BRANCH  28  29
ATOM     29  O   UNL     1       0.290   1.918  18.462  0.00  0.00    +0.000 OA
ATOM     30  H   UNL     1      -0.113   2.375  17.697  0.00  0.00    +0.000 HD
ENDBRANCH  28  29
ENDBRANCH  18  28
ENDBRANCH   1  16
TORSDOF 8
ENDMDL
MODEL 6
REMARK VINA RESULT:      -6.5      3.542      6.504
REMARK  Name = 
REMARK  10 active torsions:
REMARK  status: ('A' for Active; 'I' for Inactive)
REMARK    1  A    between atoms: C_1  and  C_2
REMARK    2  A    between atoms: C_2  and  C_3
REMARK    3  A    between atoms: C_5  and  O_6
REMARK    4  A    between atoms: C_7  and  O_8
REMARK    5  A    between atoms: O_8  and  C_9
REMARK    6  A    between atoms: C_11  and  C_12
REMARK    7  A    between atoms: C_12  and  O_13
REMARK    8  A    between atoms: C_14  and  O_15
REMARK    9  A    between atoms: C_16  and  O_17
REMARK   10  A    between atoms: C_18  and  O_19
REMARK                            x       y       z     vdW  Elec       q    Type
REMARK                         _______ _______ _______ _____ _____    ______ ____
ROOT
ATOM      1  O   UNL     1       1.668   6.038  20.627  0.00  0.00    +0.000 OA
ENDROOT
BRANCH   1   7
ATOM      2  C   UNL     1       0.208   9.570  17.508  0.00  0.00    +0.000 C 
ATOM      3  C   UNL     1       1.481   9.626  18.370  0.00  0.00    +0.000 C 
ATOM      4  C   UNL     1       2.170  10.995  18.175  0.00  0.00    +0.000 C 
ATOM      5  C   UNL     1       2.504   8.539  17.897  0.00  0.00    +0.000 C 
ATOM      6  C   UNL     1       2.338   7.163  18.549  0.00  0.00    +0.000 C 
ATOM      7  C   UNL     1       2.257   7.224  20.098  0.00  0.00    +0.000 C 
ATOM      8  C   UNL     1       1.430   8.370  20.564  0.00  0.00    +0.000 C 
ATOM      9  C   UNL     1       1.107   9.415  19.805  0.00  0.00    +0.000 C 
ATOM     10  C   UNL     1       0.317  10.313  20.657  0.00  0.00    +0.000 C 
ATOM     11  O   UNL     1      -0.184  11.361  20.315  0.00  0.00    +0.000 OA
ATOM     12  O   UNL     1       0.245   9.777  21.908  0.00  0.00    +0.000 OA
ATOM     13  C   UNL     1       0.936   8.526  21.939  0.00  0.00    +0.000 C 
BRANCH   6  14
ATOM     14  O   UNL     1       1.191   6.512  17.982  0.00  0.00    +0.000 OA
ATOM     15  H   UNL     1       1.176   6.734  17.029  0.00  0.00    +0.000 HD
ENDBRANCH   6  14
ENDBRANCH   1   7
BRANCH   1  16
ATOM     16  C   UNL     1       2.393   4.810  20.472  0.00  0.00    +0.000 C 
ATOM     17  O   UNL     1       3.500   5.167  19.650  0.00  0.00    +0.000 OA
ATOM     18  C   UNL     1       4.340   4.105  19.188  0.00  0.00    +0.000 C 
ATOM     19  C   UNL     1       3.540   3.010  18.471  0.00  0.00    +0.000 C 
ATOM     20  C   UNL     1       2.424   2.523  19.394  0.00  0.00    +0.000 C 
ATOM     21  C   UNL     1       1.543   3.691  19.832  0.00  0.00    +0.000 C 
BRANCH  19  22
ATOM     22  O   UNL     1       4.397   1.936  18.085  0.00  0.00    +0.000 OA
ATOM     23  H   UNL     1       3.997   1.454  17.340  0.00  0.00    +0.000 HD
ENDBRANCH  19  22
BRANCH  20  24
ATOM     24  O   UNL     1       1.637   1.501  18.759  0.00  0.00    +0.000 OA
ATOM     25  H   UNL     1       2.120   0.657  18.837  0.00  0.00    +0.000 HD
ENDBRANCH  20  24
BRANCH  21  26
ATOM     26  O   UNL     1       0.526   3.206  20.728  0.00  0.00    +0.000 OA
ATOM     27  H   UNL     1      -0.271   2.975  20.211  0.00  0.00    +0.000 HD
ENDBRANCH  21  26
BRANCH  18  28
ATOM     28  C   UNL     1       5.352   4.747  18.225  0.00  0.00    +0.000 C 
BRANCH  28  29
ATOM     29  O   UNL     1       6.584   4.021  18.276  0.00  0.00    +0.000 OA
ATOM     30  H   UNL     1       6.516   3.354  17.564  0.00  0.00    +0.000 HD
ENDBRANCH  28  29
ENDBRANCH  18  28
ENDBRANCH   1  16
TORSDOF 8
ENDMDL
MODEL 7
REMARK VINA RESULT:      -6.5      4.135      6.477
REMARK  Name = 
REMARK  10 active torsions:
REMARK  status: ('A' for Active; 'I' for Inactive)
REMARK    1  A    between atoms: C_1  and  C_2
REMARK    2  A    between atoms: C_2  and  C_3
REMARK    3  A    between atoms: C_5  and  O_6
REMARK    4  A    between atoms: C_7  and  O_8
REMARK    5  A    between atoms: O_8  and  C_9
REMARK    6  A    between atoms: C_11  and  C_12
REMARK    7  A    between atoms: C_12  and  O_13
REMARK    8  A    between atoms: C_14  and  O_15
REMARK    9  A    between atoms: C_16  and  O_17
REMARK   10  A    between atoms: C_18  and  O_19
REMARK                            x       y       z     vdW  Elec       q    Type
REMARK                         _______ _______ _______ _____ _____    ______ ____
ROOT
ATOM      1  O   UNL     1       2.078   6.366  20.035  0.00  0.00    +0.000 OA
ENDROOT
BRANCH   1   7
ATOM      2  C   UNL     1      -0.488   9.969  17.851  0.00  0.00    +0.000 C 
ATOM      3  C   UNL     1       0.840  10.163  18.601  0.00  0.00    +0.000 C 
ATOM      4  C   UNL     1       1.188  11.668  18.644  0.00  0.00    +0.000 C 
ATOM      5  C   UNL     1       2.006   9.457  17.831  0.00  0.00    +0.000 C 
ATOM      6  C   UNL     1       2.225   7.984  18.192  0.00  0.00    +0.000 C 
ATOM      7  C   UNL     1       2.327   7.735  19.721  0.00  0.00    +0.000 C 
ATOM      8  C   UNL     1       1.337   8.546  20.481  0.00  0.00    +0.000 C 
ATOM      9  C   UNL     1       0.704   9.606  19.986  0.00  0.00    +0.000 C 
ATOM     10  C   UNL     1      -0.149  10.118  21.067  0.00  0.00    +0.000 C 
ATOM     11  O   UNL     1      -0.902  11.062  20.993  0.00  0.00    +0.000 OA
ATOM     12  O   UNL     1       0.054   9.357  22.179  0.00  0.00    +0.000 OA
ATOM     13  C   UNL     1       0.997   8.322  21.893  0.00  0.00    +0.000 C 
BRANCH   6  14
ATOM     14  O   UNL     1       1.184   7.197  17.593  0.00  0.00    +0.000 OA
ATOM     15  H   UNL     1       1.616   6.452  17.130  0.00  0.00    +0.000 HD
ENDBRANCH   6  14
ENDBRANCH   1   7
BRANCH   1  16
ATOM     16  C   UNL     1       2.583   5.375  19.128  0.00  0.00    +0.000 C 
ATOM     17  O   UNL     1       1.559   4.384  19.099  0.00  0.00    +0.000 OA
ATOM     18  C   UNL     1       1.840   3.175  18.387  0.00  0.00    +0.000 C 
ATOM     19  C   UNL     1       3.138   2.513  18.868  0.00  0.00    +0.000 C 
ATOM     20  C   UNL     1       4.277   3.529  18.783  0.00  0.00    +0.000 C 
ATOM     21  C   UNL     1       3.936   4.784  19.583  0.00  0.00    +0.000 C 
BRANCH  19  22
ATOM     22  O   UNL     1       3.424   1.350  18.091  0.00  0.00    +0.000 OA
ATOM     23  H   UNL     1       4.370   1.335  17.866  0.00  0.00    +0.000 HD
ENDBRANCH  19  22
BRANCH  20  24
ATOM     24  O   UNL     1       5.515   2.956  19.236  0.00  0.00    +0.000 OA
ATOM     25  H   UNL     1       5.302   2.210  19.828  0.00  0.00    +0.000 HD
ENDBRANCH  20  24
BRANCH  21  26
ATOM     26  O   UNL     1       5.010   5.734  19.453  0.00  0.00    +0.000 OA
ATOM     27  H   UNL     1       5.858   5.251  19.405  0.00  0.00    +0.000 HD
ENDBRANCH  21  26
BRANCH  18  28
ATOM     28  C   UNL     1       0.641   2.246  18.631  0.00  0.00    +0.000 C 
BRANCH  28  29
ATOM     29  O   UNL     1      -0.053   2.664  19.811  0.00  0.00    +0.000 OA
ATOM     30  H   UNL     1      -0.022   1.892  20.411  0.00  0.00    +0.000 HD
ENDBRANCH  28  29
ENDBRANCH  18  28
ENDBRANCH   1  16
TORSDOF 8
ENDMDL
MODEL 8
REMARK VINA RESULT:      -6.5      3.886      6.885
REMARK  Name = 
REMARK  10 active torsions:
REMARK  status: ('A' for Active; 'I' for Inactive)
REMARK    1  A    between atoms: C_1  and  C_2
REMARK    2  A    between atoms: C_2  and  C_3
REMARK    3  A    between atoms: C_5  and  O_6
REMARK    4  A    between atoms: C_7  and  O_8
REMARK    5  A    between atoms: O_8  and  C_9
REMARK    6  A    between atoms: C_11  and  C_12
REMARK    7  A    between atoms: C_12  and  O_13
REMARK    8  A    between atoms: C_14  and  O_15
REMARK    9  A    between atoms: C_16  and  O_17
REMARK   10  A    between atoms: C_18  and  O_19
REMARK                            x       y       z     vdW  Elec       q    Type
REMARK                         _______ _______ _______ _____ _____    ______ ____
ROOT
ATOM      1  O   UNL     1       1.751   7.786  19.161  0.00  0.00    +0.000 OA
ENDROOT
BRANCH   1   7
ATOM      2  C   UNL     1      -1.397  11.579  19.368  0.00  0.00    +0.000 C 
ATOM      3  C   UNL     1       0.040  11.594  19.918  0.00  0.00    +0.000 C 
ATOM      4  C   UNL     1       0.302  12.943  20.625  0.00  0.00    +0.000 C 
ATOM      5  C   UNL     1       1.071  11.498  18.744  0.00  0.00    +0.000 C 
ATOM      6  C   UNL     1       1.440  10.073  18.319  0.00  0.00    +0.000 C 
ATOM      7  C   UNL     1       1.854   9.165  19.509  0.00  0.00    +0.000 C 
ATOM      8  C   UNL     1       0.988   9.384  20.699  0.00  0.00    +0.000 C 
ATOM      9  C   UNL     1       0.210  10.450  20.870  0.00  0.00    +0.000 C 
ATOM     10  C   UNL     1      -0.442  10.278  22.175  0.00  0.00    +0.000 C 
ATOM     11  O   UNL     1      -1.249  11.031  22.673  0.00  0.00    +0.000 OA
ATOM     12  O   UNL     1       0.018   9.128  22.744  0.00  0.00    +0.000 OA
ATOM     13  C   UNL     1       0.944   8.489  21.864  0.00  0.00    +0.000 C 
BRANCH   6  14
ATOM     14  O   UNL     1       0.348   9.509  17.575  0.00  0.00    +0.000 OA
ATOM     15  H   UNL     1       0.736   8.928  16.892  0.00  0.00    +0.000 HD
ENDBRANCH   6  14
ENDBRANCH   1   7
BRANCH   1  16
ATOM     16  C   UNL     1       2.938   6.986  19.257  0.00  0.00    +0.000 C 
ATOM     17  O   UNL     1       3.518   7.077  17.958  0.00  0.00    +0.000 OA
ATOM     18  C   UNL     1       4.654   6.250  17.691  0.00  0.00    +0.000 C 
ATOM     19  C   UNL     1       4.371   4.771  17.991  0.00  0.00    +0.000 C 
ATOM     20  C   UNL     1       3.870   4.641  19.428  0.00  0.00    +0.000 C 
ATOM     21  C   UNL     1       2.641   5.522  19.649  0.00  0.00    +0.000 C 
BRANCH  19  22
ATOM     22  O   UNL     1       5.545   3.986  17.779  0.00  0.00    +0.000 OA
ATOM     23  H   UNL     1       5.425   3.432  16.988  0.00  0.00    +0.000 HD
ENDBRANCH  19  22
BRANCH  20  24
ATOM     24  O   UNL     1       3.579   3.271  19.752  0.00  0.00    +0.000 OA
ATOM     25  H   UNL     1       4.112   2.704  19.164  0.00  0.00    +0.000 HD
ENDBRANCH  20  24
BRANCH  21  26
ATOM     26  O   UNL     1       2.216   5.406  21.018  0.00  0.00    +0.000 OA
ATOM     27  H   UNL     1       1.557   4.688  21.088  0.00  0.00    +0.000 HD
ENDBRANCH  21  26
BRANCH  18  28
ATOM     28  C   UNL     1       4.983   6.442  16.202  0.00  0.00    +0.000 C 
BRANCH  28  29
ATOM     29  O   UNL     1       6.382   6.225  15.991  0.00  0.00    +0.000 OA
ATOM     30  H   UNL     1       6.660   5.634  16.720  0.00  0.00    +0.000 HD
ENDBRANCH  28  29
ENDBRANCH  18  28
ENDBRANCH   1  16
TORSDOF 8
ENDMDL
MODEL 9
REMARK VINA RESULT:      -6.3      3.421      6.287
REMARK  Name = 
REMARK  10 active torsions:
REMARK  status: ('A' for Active; 'I' for Inactive)
REMARK    1  A    between atoms: C_1  and  C_2
REMARK    2  A    between atoms: C_2  and  C_3
REMARK    3  A    between atoms: C_5  and  O_6
REMARK    4  A    between atoms: C_7  and  O_8
REMARK    5  A    between atoms: O_8  and  C_9
REMARK    6  A    between atoms: C_11  and  C_12
REMARK    7  A    between atoms: C_12  and  O_13
REMARK    8  A    between atoms: C_14  and  O_15
REMARK    9  A    between atoms: C_16  and  O_17
REMARK   10  A    between atoms: C_18  and  O_19
REMARK                            x       y       z     vdW  Elec       q    Type
REMARK                         _______ _______ _______ _____ _____    ______ ____
ROOT
ATOM      1  O   UNL     1       1.846   7.194  18.518  0.00  0.00    +0.000 OA
ENDROOT
BRANCH   1   7
ATOM      2  C   UNL     1      -0.651  11.418  19.022  0.00  0.00    +0.000 C 
ATOM      3  C   UNL     1       0.752  11.150  19.592  0.00  0.00    +0.000 C 
ATOM      4  C   UNL     1       1.207  12.371  20.424  0.00  0.00    +0.000 C 
ATOM      5  C   UNL     1       1.788  10.989  18.431  0.00  0.00    +0.000 C 
ATOM      6  C   UNL     1       1.935   9.566  17.883  0.00  0.00    +0.000 C 
ATOM      7  C   UNL     1       2.161   8.502  18.992  0.00  0.00    +0.000 C 
ATOM      8  C   UNL     1       1.306   8.755  20.183  0.00  0.00    +0.000 C 
ATOM      9  C   UNL     1       0.705   9.915  20.439  0.00  0.00    +0.000 C 
ATOM     10  C   UNL     1      -0.005   9.738  21.712  0.00  0.00    +0.000 C 
ATOM     11  O   UNL     1      -0.694  10.567  22.264  0.00  0.00    +0.000 OA
ATOM     12  O   UNL     1       0.246   8.484  22.181  0.00  0.00    +0.000 OA
ATOM     13  C   UNL     1       1.083   7.781  21.261  0.00  0.00    +0.000 C 
BRANCH   6  14
ATOM     14  O   UNL     1       0.789   9.256  17.075  0.00  0.00    +0.000 OA
ATOM     15  H   UNL     1       0.846   8.306  16.850  0.00  0.00    +0.000 HD
ENDBRANCH   6  14
ENDBRANCH   1   7
BRANCH   1  16
ATOM     16  C   UNL     1       2.883   6.203  18.566  0.00  0.00    +0.000 C 
ATOM     17  O   UNL     1       3.754   6.567  17.497  0.00  0.00    +0.000 OA
ATOM     18  C   UNL     1       4.821   5.667  17.189  0.00  0.00    +0.000 C 
ATOM     19  C   UNL     1       4.315   4.240  16.935  0.00  0.00    +0.000 C 
ATOM     20  C   UNL     1       3.484   3.785  18.134  0.00  0.00    +0.000 C 
ATOM     21  C   UNL     1       2.344   4.766  18.399  0.00  0.00    +0.000 C 
BRANCH  19  22
ATOM     22  O   UNL     1       5.411   3.356  16.700  0.00  0.00    +0.000 OA
ATOM     23  H   UNL     1       5.289   2.910  15.843  0.00  0.00    +0.000 HD
ENDBRANCH  19  22
BRANCH  20  24
ATOM     24  O   UNL     1       2.977   2.455  17.936  0.00  0.00    +0.000 OA
ATOM     25  H   UNL     1       3.730   1.837  17.977  0.00  0.00    +0.000 HD
ENDBRANCH  20  24
BRANCH  21  26
ATOM     26  O   UNL     1       1.604   4.331  19.554  0.00  0.00    +0.000 OA
ATOM     27  H   UNL     1       0.648   4.382  19.358  0.00  0.00    +0.000 HD
ENDBRANCH  21  26
BRANCH  18  28
ATOM     28  C   UNL     1       5.504   6.226  15.931  0.00  0.00    +0.000 C 
BRANCH  28  29
ATOM     29  O   UNL     1       6.893   5.881  15.950  0.00  0.00    +0.000 OA
ATOM     30  H   UNL     1       6.953   5.039  15.456  0.00  0.00    +0.000 HD
ENDBRANCH  28  29
ENDBRANCH  18  28
ENDBRANCH   1  16
TORSDOF 8
ENDMDL
