MODEL 1
REMARK VINA RESULT:      -7.6      0.000      0.000
REMARK  Name = 
REMARK  4 active torsions:
REMARK  status: ('A' for Active; 'I' for Inactive)
REMARK    1  A    between atoms: C_2  and  C_3
REMARK    2  A    between atoms: C_3  and  C_4
REMARK    3  A    between atoms: C_4  and  N_5
REMARK    4  A    between atoms: C_6  and  C_8
REMARK                            x       y       z     vdW  Elec       q    Type
REMARK                         _______ _______ _______ _____ _____    ______ ____
ROOT
ATOM      1  C   UNL     1       6.482   6.787  17.350  0.00  0.00    +0.000 C 
ENDROOT
BRANCH   1   2
ATOM      2  N   UNL     1       6.414   6.266  15.991  0.00  0.00    +0.000 N 
ATOM      3  C   UNL     1       7.103   5.141  15.587  0.00  0.00    +0.000 C 
ATOM      4  O   UNL     1       7.867   4.516  16.317  0.00  0.00    +0.000 OA
ATOM      5  H   UNL     1       5.871   6.783  15.312  0.00  0.00    +0.000 HD
BRANCH   3   6
ATOM      6  C   UNL     1       6.825   4.627  14.219  0.00  0.00    +0.000 A 
ATOM      7  C   UNL     1       5.719   3.769  14.091  0.00  0.00    +0.000 A 
ATOM      8  C   UNL     1       5.357   3.246  12.848  0.00  0.00    +0.000 A 
ATOM      9  C   UNL     1       6.099   3.576  11.717  0.00  0.00    +0.000 A 
ATOM     10  C   UNL     1       7.206   4.416  11.835  0.00  0.00    +0.000 A 
ATOM     11  C   UNL     1       7.576   4.940  13.081  0.00  0.00    +0.000 A 
ATOM     12 CL   UNL     1       8.993   5.933  13.110  0.00  0.00    +0.000 Cl
ENDBRANCH   3   6
ENDBRANCH   1   2
BRANCH   1  13
ATOM     13  C   UNL     1       5.400   6.177  18.229  0.00  0.00    +0.000 C 
BRANCH  13  15
ATOM     14  O   UNL     1       6.972   5.309  19.822  0.00  0.00    +0.000 OA
ATOM     15  C   UNL     1       5.938   5.127  19.175  0.00  0.00    +0.000 C 
ATOM     16  N   UNL     1       5.267   3.947  19.333  0.00  0.00    +0.000 N 
ATOM     17  C   UNL     1       4.095   3.603  18.723  0.00  0.00    +0.000 A 
ATOM     18  N   UNL     1       3.263   4.360  18.055  0.00  0.00    +0.000 NA
ATOM     19  C   UNL     1       2.270   3.581  17.500  0.00  0.00    +0.000 A 
ATOM     20  C   UNL     1       2.338   2.239  17.809  0.00  0.00    +0.000 A 
ATOM     21  S   UNL     1       3.682   1.952  18.840  0.00  0.00    +0.000 S 
ATOM     22  H   UNL     1       5.724   3.247  19.899  0.00  0.00    +0.000 HD
ENDBRANCH  13  15
ENDBRANCH   1  13
TORSDOF 4
ENDMDL
MODEL 2
REMARK VINA RESULT:      -7.3      3.693      4.976
REMARK  Name = 
REMARK  4 active torsions:
REMARK  status: ('A' for Active; 'I' for Inactive)
REMARK    1  A    between atoms: C_2  and  C_3
REMARK    2  A    between atoms: C_3  and  C_4
REMARK    3  A    between atoms: C_4  and  N_5
REMARK    4  A    between atoms: C_6  and  C_8
REMARK                            x       y       z     vdW  Elec       q    Type
REMARK                         _______ _______ _______ _____ _____    ______ ____
ROOT
ATOM      1  C   UNL     1       4.052   2.567  19.454  0.00  0.00    +0.000 C 
ENDROOT
BRANCH   1   2
ATOM      2  N   UNL     1       5.035   3.630  19.297  0.00  0.00    +0.000 N 
ATOM      3  C   UNL     1       5.389   4.144  18.066  0.00  0.00    +0.000 C 
ATOM      4  O   UNL     1       4.948   3.719  17.002  0.00  0.00    +0.000 OA
ATOM      5  H   UNL     1       5.504   3.969  20.126  0.00  0.00    +0.000 HD
BRANCH   3   6
ATOM      6  C   UNL     1       6.285   5.331  18.055  0.00  0.00    +0.000 A 
ATOM      7  C   UNL     1       7.252   5.389  19.074  0.00  0.00    +0.000 A 
ATOM      8  C   UNL     1       8.157   6.450  19.145  0.00  0.00    +0.000 A 
ATOM      9  C   UNL     1       8.105   7.467  18.196  0.00  0.00    +0.000 A 
ATOM     10  C   UNL     1       7.141   7.426  17.188  0.00  0.00    +0.000 A 
ATOM     11  C   UNL     1       6.227   6.366  17.115  0.00  0.00    +0.000 A 
ATOM     12 CL   UNL     1       5.051   6.448  15.850  0.00  0.00    +0.000 Cl
ENDBRANCH   3   6
ENDBRANCH   1   2
BRANCH   1  13
ATOM     13  C   UNL     1       2.649   3.133  19.616  0.00  0.00    +0.000 C 
BRANCH  13  15
ATOM     14  O   UNL     1       2.344   2.968  21.991  0.00  0.00    +0.000 OA
ATOM     15  C   UNL     1       2.402   3.696  20.998  0.00  0.00    +0.000 C 
ATOM     16  N   UNL     1       2.247   5.044  21.165  0.00  0.00    +0.000 N 
ATOM     17  C   UNL     1       2.318   5.987  20.180  0.00  0.00    +0.000 A 
ATOM     18  N   UNL     1       2.750   5.862  18.951  0.00  0.00    +0.000 NA
ATOM     19  C   UNL     1       2.527   7.033  18.260  0.00  0.00    +0.000 A 
ATOM     20  C   UNL     1       1.975   8.055  19.002  0.00  0.00    +0.000 A 
ATOM     21  S   UNL     1       1.744   7.531  20.622  0.00  0.00    +0.000 S 
ATOM     22  H   UNL     1       1.987   5.350  22.090  0.00  0.00    +0.000 HD
ENDBRANCH  13  15
ENDBRANCH   1  13
TORSDOF 4
ENDMDL
MODEL 3
REMARK VINA RESULT:      -6.9      1.254      1.650
REMARK  Name = 
REMARK  4 active torsions:
REMARK  status: ('A' for Active; 'I' for Inactive)
REMARK    1  A    between atoms: C_2  and  C_3
REMARK    2  A    between atoms: C_3  and  C_4
REMARK    3  A    between atoms: C_4  and  N_5
REMARK    4  A    between atoms: C_6  and  C_8
REMARK                            x       y       z     vdW  Elec       q    Type
REMARK                         _______ _______ _______ _____ _____    ______ ____
ROOT
ATOM      1  C   UNL     1       6.542   6.902  17.528  0.00  0.00    +0.000 C 
ENDROOT
BRANCH   1   2
ATOM      2  N   UNL     1       6.492   6.384  16.168  0.00  0.00    +0.000 N 
ATOM      3  C   UNL     1       7.183   5.258  15.772  0.00  0.00    +0.000 C 
ATOM      4  O   UNL     1       7.934   4.629  16.512  0.00  0.00    +0.000 OA
ATOM      5  H   UNL     1       5.960   6.904  15.482  0.00  0.00    +0.000 HD
BRANCH   3   6
ATOM      6  C   UNL     1       6.922   4.746  14.400  0.00  0.00    +0.000 A 
ATOM      7  C   UNL     1       7.791   5.199  13.391  0.00  0.00    +0.000 A 
ATOM      8  C   UNL     1       7.647   4.765  12.072  0.00  0.00    +0.000 A 
ATOM      9  C   UNL     1       6.631   3.871  11.746  0.00  0.00    +0.000 A 
ATOM     10  C   UNL     1       5.755   3.426  12.736  0.00  0.00    +0.000 A 
ATOM     11  C   UNL     1       5.891   3.862  14.061  0.00  0.00    +0.000 A 
ATOM     12 CL   UNL     1       4.719   3.277  15.190  0.00  0.00    +0.000 Cl
ENDBRANCH   3   6
ENDBRANCH   1   2
BRANCH   1  13
ATOM     13  C   UNL     1       5.466   6.271  18.400  0.00  0.00    +0.000 C 
BRANCH  13  15
ATOM     14  O   UNL     1       7.061   5.253  19.878  0.00  0.00    +0.000 OA
ATOM     15  C   UNL     1       5.997   5.147  19.262  0.00  0.00    +0.000 C 
ATOM     16  N   UNL     1       5.287   3.986  19.378  0.00  0.00    +0.000 N 
ATOM     17  C   UNL     1       4.081   3.721  18.795  0.00  0.00    +0.000 A 
ATOM     18  N   UNL     1       3.255   4.546  18.205  0.00  0.00    +0.000 NA
ATOM     19  C   UNL     1       2.214   3.838  17.645  0.00  0.00    +0.000 A 
ATOM     20  C   UNL     1       2.240   2.478  17.873  0.00  0.00    +0.000 A 
ATOM     21  S   UNL     1       3.610   2.082  18.832  0.00  0.00    +0.000 S 
ATOM     22  H   UNL     1       5.737   3.238  19.885  0.00  0.00    +0.000 HD
ENDBRANCH  13  15
ENDBRANCH   1  13
TORSDOF 4
ENDMDL
MODEL 4
REMARK VINA RESULT:      -6.8      2.944      4.030
REMARK  Name = 
REMARK  4 active torsions:
REMARK  status: ('A' for Active; 'I' for Inactive)
REMARK    1  A    between atoms: C_2  and  C_3
REMARK    2  A    between atoms: C_3  and  C_4
REMARK    3  A    between atoms: C_4  and  N_5
REMARK    4  A    between atoms: C_6  and  C_8
REMARK                            x       y       z     vdW  Elec       q    Type
REMARK                         _______ _______ _______ _____ _____    ______ ____
ROOT
ATOM      1  C   UNL     1       4.017   2.852  19.629  0.00  0.00    +0.000 C 
ENDROOT
BRANCH   1   2
ATOM      2  N   UNL     1       4.513   3.349  18.353  0.00  0.00    +0.000 N 
ATOM      3  C   UNL     1       5.619   4.169  18.250  0.00  0.00    +0.000 C 
ATOM      4  O   UNL     1       6.245   4.587  19.219  0.00  0.00    +0.000 OA
ATOM      5  H   UNL     1       3.993   3.115  17.517  0.00  0.00    +0.000 HD
BRANCH   3   6
ATOM      6  C   UNL     1       6.112   4.477  16.881  0.00  0.00    +0.000 A 
ATOM      7  C   UNL     1       5.719   3.591  15.863  0.00  0.00    +0.000 A 
ATOM      8  C   UNL     1       6.109   3.799  14.539  0.00  0.00    +0.000 A 
ATOM      9  C   UNL     1       6.900   4.898  14.217  0.00  0.00    +0.000 A 
ATOM     10  C   UNL     1       7.308   5.777  15.221  0.00  0.00    +0.000 A 
ATOM     11  C   UNL     1       6.922   5.570  16.552  0.00  0.00    +0.000 A 
ATOM     12 CL   UNL     1       7.526   6.701  17.714  0.00  0.00    +0.000 Cl
ENDBRANCH   3   6
ENDBRANCH   1   2
BRANCH   1  13
ATOM     13  C   UNL     1       2.552   3.211  19.829  0.00  0.00    +0.000 C 
BRANCH  13  15
ATOM     14  O   UNL     1       2.195   3.292  22.202  0.00  0.00    +0.000 OA
ATOM     15  C   UNL     1       2.298   3.916  21.143  0.00  0.00    +0.000 C 
ATOM     16  N   UNL     1       2.187   5.278  21.173  0.00  0.00    +0.000 N 
ATOM     17  C   UNL     1       2.311   6.117  20.102  0.00  0.00    +0.000 A 
ATOM     18  N   UNL     1       2.763   5.856  18.902  0.00  0.00    +0.000 NA
ATOM     19  C   UNL     1       2.594   6.960  18.094  0.00  0.00    +0.000 A 
ATOM     20  C   UNL     1       2.064   8.068  18.719  0.00  0.00    +0.000 A 
ATOM     21  S   UNL     1       1.783   7.715  20.378  0.00  0.00    +0.000 S 
ATOM     22  H   UNL     1       1.920   5.683  22.058  0.00  0.00    +0.000 HD
ENDBRANCH  13  15
ENDBRANCH   1  13
TORSDOF 4
ENDMDL
MODEL 5
REMARK VINA RESULT:      -6.8      1.429      1.573
REMARK  Name = 
REMARK  4 active torsions:
REMARK  status: ('A' for Active; 'I' for Inactive)
REMARK    1  A    between atoms: C_2  and  C_3
REMARK    2  A    between atoms: C_3  and  C_4
REMARK    3  A    between atoms: C_4  and  N_5
REMARK    4  A    between atoms: C_6  and  C_8
REMARK                            x       y       z     vdW  Elec       q    Type
REMARK                         _______ _______ _______ _____ _____    ______ ____
ROOT
ATOM      1  C   UNL     1       7.393   6.771  17.026  0.00  0.00    +0.000 C 
ENDROOT
BRANCH   1   2
ATOM      2  N   UNL     1       7.309   5.823  15.924  0.00  0.00    +0.000 N 
ATOM      3  C   UNL     1       6.243   5.790  15.048  0.00  0.00    +0.000 C 
ATOM      4  O   UNL     1       5.259   6.516  15.150  0.00  0.00    +0.000 OA
ATOM      5  H   UNL     1       8.045   5.136  15.832  0.00  0.00    +0.000 HD
BRANCH   3   6
ATOM      6  C   UNL     1       6.354   4.880  13.876  0.00  0.00    +0.000 A 
ATOM      7  C   UNL     1       5.333   3.924  13.732  0.00  0.00    +0.000 A 
ATOM      8  C   UNL     1       5.329   3.034  12.656  0.00  0.00    +0.000 A 
ATOM      9  C   UNL     1       6.350   3.090  11.711  0.00  0.00    +0.000 A 
ATOM     10  C   UNL     1       7.375   4.026  11.851  0.00  0.00    +0.000 A 
ATOM     11  C   UNL     1       7.386   4.918  12.932  0.00  0.00    +0.000 A 
ATOM     12 CL   UNL     1       8.731   6.001  13.024  0.00  0.00    +0.000 Cl
ENDBRANCH   3   6
ENDBRANCH   1   2
BRANCH   1  13
ATOM     13  C   UNL     1       6.743   6.215  18.285  0.00  0.00    +0.000 C 
BRANCH  13  15
ATOM     14  O   UNL     1       8.112   4.244  18.236  0.00  0.00    +0.000 OA
ATOM     15  C   UNL     1       7.008   4.738  18.475  0.00  0.00    +0.000 C 
ATOM     16  N   UNL     1       6.011   3.922  18.931  0.00  0.00    +0.000 N 
ATOM     17  C   UNL     1       4.748   4.313  19.274  0.00  0.00    +0.000 A 
ATOM     18  N   UNL     1       4.283   5.523  19.455  0.00  0.00    +0.000 NA
ATOM     19  C   UNL     1       2.922   5.468  19.668  0.00  0.00    +0.000 A 
ATOM     20  C   UNL     1       2.384   4.200  19.701  0.00  0.00    +0.000 A 
ATOM     21  S   UNL     1       3.631   3.039  19.471  0.00  0.00    +0.000 S 
ATOM     22  H   UNL     1       6.215   2.934  18.943  0.00  0.00    +0.000 HD
ENDBRANCH  13  15
ENDBRANCH   1  13
TORSDOF 4
ENDMDL
MODEL 6
REMARK VINA RESULT:      -6.8      1.470      1.764
REMARK  Name = 
REMARK  4 active torsions:
REMARK  status: ('A' for Active; 'I' for Inactive)
REMARK    1  A    between atoms: C_2  and  C_3
REMARK    2  A    between atoms: C_3  and  C_4
REMARK    3  A    between atoms: C_4  and  N_5
REMARK    4  A    between atoms: C_6  and  C_8
REMARK                            x       y       z     vdW  Elec       q    Type
REMARK                         _______ _______ _______ _____ _____    ______ ____
ROOT
ATOM      1  C   UNL     1       5.832   6.875  17.122  0.00  0.00    +0.000 C 
ENDROOT
BRANCH   1   2
ATOM      2  N   UNL     1       5.901   6.288  15.791  0.00  0.00    +0.000 N 
ATOM      3  C   UNL     1       6.820   5.318  15.449  0.00  0.00    +0.000 C 
ATOM      4  O   UNL     1       7.685   4.904  16.215  0.00  0.00    +0.000 OA
ATOM      5  H   UNL     1       5.273   6.645  15.082  0.00  0.00    +0.000 HD
BRANCH   3   6
ATOM      6  C   UNL     1       6.682   4.691  14.107  0.00  0.00    +0.000 A 
ATOM      7  C   UNL     1       5.595   3.816  13.937  0.00  0.00    +0.000 A 
ATOM      8  C   UNL     1       5.361   3.191  12.711  0.00  0.00    +0.000 A 
ATOM      9  C   UNL     1       6.214   3.435  11.638  0.00  0.00    +0.000 A 
ATOM     10  C   UNL     1       7.303   4.291  11.799  0.00  0.00    +0.000 A 
ATOM     11  C   UNL     1       7.545   4.917  13.029  0.00  0.00    +0.000 A 
ATOM     12 CL   UNL     1       8.951   5.921  13.119  0.00  0.00    +0.000 Cl
ENDBRANCH   3   6
ENDBRANCH   1   2
BRANCH   1  13
ATOM     13  C   UNL     1       4.955   6.044  18.047  0.00  0.00    +0.000 C 
BRANCH  13  15
ATOM     14  O   UNL     1       3.184   7.657  17.894  0.00  0.00    +0.000 OA
ATOM     15  C   UNL     1       3.505   6.473  18.018  0.00  0.00    +0.000 C 
ATOM     16  N   UNL     1       2.516   5.535  18.121  0.00  0.00    +0.000 N 
ATOM     17  C   UNL     1       2.699   4.186  18.227  0.00  0.00    +0.000 A 
ATOM     18  N   UNL     1       3.789   3.487  18.040  0.00  0.00    +0.000 NA
ATOM     19  C   UNL     1       3.558   2.170  18.377  0.00  0.00    +0.000 A 
ATOM     20  C   UNL     1       2.267   1.881  18.763  0.00  0.00    +0.000 A 
ATOM     21  S   UNL     1       1.311   3.308  18.687  0.00  0.00    +0.000 S 
ATOM     22  H   UNL     1       1.574   5.888  18.195  0.00  0.00    +0.000 HD
ENDBRANCH  13  15
ENDBRANCH   1  13
TORSDOF 4
ENDMDL
MODEL 7
REMARK VINA RESULT:      -6.7      1.772      2.021
REMARK  Name = 
REMARK  4 active torsions:
REMARK  status: ('A' for Active; 'I' for Inactive)
REMARK    1  A    between atoms: C_2  and  C_3
REMARK    2  A    between atoms: C_3  and  C_4
REMARK    3  A    between atoms: C_4  and  N_5
REMARK    4  A    between atoms: C_6  and  C_8
REMARK                            x       y       z     vdW  Elec       q    Type
REMARK                         _______ _______ _______ _____ _____    ______ ____
ROOT
ATOM      1  C   UNL     1       6.163   6.378  17.602  0.00  0.00    +0.000 C 
ENDROOT
BRANCH   1   2
ATOM      2  N   UNL     1       6.146   5.969  16.205  0.00  0.00    +0.000 N 
ATOM      3  C   UNL     1       7.012   5.026  15.692  0.00  0.00    +0.000 C 
ATOM      4  O   UNL     1       7.898   4.489  16.352  0.00  0.00    +0.000 OA
ATOM      5  H   UNL     1       5.498   6.435  15.582  0.00  0.00    +0.000 HD
BRANCH   3   6
ATOM      6  C   UNL     1       6.786   4.585  14.289  0.00  0.00    +0.000 A 
ATOM      7  C   UNL     1       5.689   3.734  14.073  0.00  0.00    +0.000 A 
ATOM      8  C   UNL     1       5.375   3.279  12.791  0.00  0.00    +0.000 A 
ATOM      9  C   UNL     1       6.158   3.670  11.709  0.00  0.00    +0.000 A 
ATOM     10  C   UNL     1       7.257   4.504  11.913  0.00  0.00    +0.000 A 
ATOM     11  C   UNL     1       7.580   4.960  13.199  0.00  0.00    +0.000 A 
ATOM     12 CL   UNL     1       8.991   5.951  13.334  0.00  0.00    +0.000 Cl
ENDBRANCH   3   6
ENDBRANCH   1   2
BRANCH   1  13
ATOM     13  C   UNL     1       5.097   5.646  18.405  0.00  0.00    +0.000 C 
BRANCH  13  15
ATOM     14  O   UNL     1       3.543   7.277  17.574  0.00  0.00    +0.000 OA
ATOM     15  C   UNL     1       3.720   6.248  18.232  0.00  0.00    +0.000 C 
ATOM     16  N   UNL     1       2.637   5.643  18.804  0.00  0.00    +0.000 N 
ATOM     17  C   UNL     1       2.655   4.486  19.529  0.00  0.00    +0.000 A 
ATOM     18  N   UNL     1       3.618   3.609  19.653  0.00  0.00    +0.000 NA
ATOM     19  C   UNL     1       3.259   2.655  20.581  0.00  0.00    +0.000 A 
ATOM     20  C   UNL     1       1.993   2.797  21.108  0.00  0.00    +0.000 A 
ATOM     21  S   UNL     1       1.226   4.164  20.403  0.00  0.00    +0.000 S 
ATOM     22  H   UNL     1       1.762   6.142  18.739  0.00  0.00    +0.000 HD
ENDBRANCH  13  15
ENDBRANCH   1  13
TORSDOF 4
ENDMDL
MODEL 8
REMARK VINA RESULT:      -6.7      3.253      4.714
REMARK  Name = 
REMARK  4 active torsions:
REMARK  status: ('A' for Active; 'I' for Inactive)
REMARK    1  A    between atoms: C_2  and  C_3
REMARK    2  A    between atoms: C_3  and  C_4
REMARK    3  A    between atoms: C_4  and  N_5
REMARK    4  A    between atoms: C_6  and  C_8
REMARK                            x       y       z     vdW  Elec       q    Type
REMARK                         _______ _______ _______ _____ _____    ______ ____
ROOT
ATOM      1  C   UNL     1       2.399   2.195  18.751  0.00  0.00    +0.000 C 
ENDROOT
BRANCH   1   2
ATOM      2  N   UNL     1       3.314   2.992  17.946  0.00  0.00    +0.000 N 
ATOM      3  C   UNL     1       4.547   3.406  18.407  0.00  0.00    +0.000 C 
ATOM      4  O   UNL     1       4.956   3.183  19.543  0.00  0.00    +0.000 OA
ATOM      5  H   UNL     1       3.006   3.287  17.028  0.00  0.00    +0.000 HD
BRANCH   3   6
ATOM      6  C   UNL     1       5.448   4.078  17.432  0.00  0.00    +0.000 A 
ATOM      7  C   UNL     1       5.298   3.704  16.085  0.00  0.00    +0.000 A 
ATOM      8  C   UNL     1       6.079   4.288  15.086  0.00  0.00    +0.000 A 
ATOM      9  C   UNL     1       7.021   5.256  15.424  0.00  0.00    +0.000 A 
ATOM     10  C   UNL     1       7.187   5.626  16.759  0.00  0.00    +0.000 A 
ATOM     11  C   UNL     1       6.409   5.039  17.766  0.00  0.00    +0.000 A 
ATOM     12 CL   UNL     1       6.738   5.545  19.387  0.00  0.00    +0.000 Cl
ENDBRANCH   3   6
ENDBRANCH   1   2
BRANCH   1  13
ATOM     13  C   UNL     1       1.200   3.018  19.200  0.00  0.00    +0.000 C 
BRANCH  13  15
ATOM     14  O   UNL     1       1.135   2.736  21.584  0.00  0.00    +0.000 OA
ATOM     15  C   UNL     1       1.323   3.496  20.630  0.00  0.00    +0.000 C 
ATOM     16  N   UNL     1       1.660   4.796  20.885  0.00  0.00    +0.000 N 
ATOM     17  C   UNL     1       1.935   5.752  19.950  0.00  0.00    +0.000 A 
ATOM     18  N   UNL     1       2.152   5.608  18.668  0.00  0.00    +0.000 NA
ATOM     19  C   UNL     1       2.265   6.848  18.076  0.00  0.00    +0.000 A 
ATOM     20  C   UNL     1       2.187   7.919  18.939  0.00  0.00    +0.000 A 
ATOM     21  S   UNL     1       1.979   7.349  20.547  0.00  0.00    +0.000 S 
ATOM     22  H   UNL     1       1.630   5.081  21.853  0.00  0.00    +0.000 HD
ENDBRANCH  13  15
ENDBRANCH   1  13
TORSDOF 4
ENDMDL
MODEL 9
REMARK VINA RESULT:      -6.7      1.380      1.620
REMARK  Name = 
REMARK  4 active torsions:
REMARK  status: ('A' for Active; 'I' for Inactive)
REMARK    1  A    between atoms: C_2  and  C_3
REMARK    2  A    between atoms: C_3  and  C_4
REMARK    3  A    between atoms: C_4  and  N_5
REMARK    4  A    between atoms: C_6  and  C_8
REMARK                            x       y       z     vdW  Elec       q    Type
REMARK                         _______ _______ _______ _____ _____    ______ ____
ROOT
ATOM      1  C   UNL     1       7.233   4.677  18.044  0.00  0.00    +0.000 C 
ENDROOT
BRANCH   1   2
ATOM      2  N   UNL     1       6.849   4.342  16.680  0.00  0.00    +0.000 N 
ATOM      3  C   UNL     1       7.131   5.157  15.603  0.00  0.00    +0.000 C 
ATOM      4  O   UNL     1       7.681   6.249  15.706  0.00  0.00    +0.000 OA
ATOM      5  H   UNL     1       6.314   3.496  16.533  0.00  0.00    +0.000 HD
BRANCH   3   6
ATOM      6  C   UNL     1       6.823   4.625  14.248  0.00  0.00    +0.000 A 
ATOM      7  C   UNL     1       5.688   3.802  14.146  0.00  0.00    +0.000 A 
ATOM      8  C   UNL     1       5.298   3.267  12.917  0.00  0.00    +0.000 A 
ATOM      9  C   UNL     1       6.041   3.549  11.774  0.00  0.00    +0.000 A 
ATOM     10  C   UNL     1       7.177   4.353  11.866  0.00  0.00    +0.000 A 
ATOM     11  C   UNL     1       7.576   4.889  13.098  0.00  0.00    +0.000 A 
ATOM     12 CL   UNL     1       9.025   5.833  13.095  0.00  0.00    +0.000 Cl
ENDBRANCH   3   6
ENDBRANCH   1   2
BRANCH   1  13
ATOM     13  C   UNL     1       6.024   5.087  18.874  0.00  0.00    +0.000 C 
BRANCH  13  15
ATOM     14  O   UNL     1       5.271   7.057  17.727  0.00  0.00    +0.000 OA
ATOM     15  C   UNL     1       5.024   5.903  18.085  0.00  0.00    +0.000 C 
ATOM     16  N   UNL     1       3.819   5.356  17.744  0.00  0.00    +0.000 N 
ATOM     17  C   UNL     1       3.405   4.086  18.029  0.00  0.00    +0.000 A 
ATOM     18  N   UNL     1       4.105   3.073  18.470  0.00  0.00    +0.000 NA
ATOM     19  C   UNL     1       3.266   2.014  18.742  0.00  0.00    +0.000 A 
ATOM     20  C   UNL     1       1.938   2.227  18.444  0.00  0.00    +0.000 A 
ATOM     21  S   UNL     1       1.740   3.804  17.790  0.00  0.00    +0.000 S 
ATOM     22  H   UNL     1       3.156   5.978  17.306  0.00  0.00    +0.000 HD
ENDBRANCH  13  15
ENDBRANCH   1  13
TORSDOF 4
ENDMDL
