MODEL 1
REMARK VINA RESULT:      -6.9      0.000      0.000
REMARK  Name = 
REMARK  2 active torsions:
REMARK  status: ('A' for Active; 'I' for Inactive)
REMARK    1  A    between atoms: C_1  and  N_2
REMARK    2  A    between atoms: C_4  and  C_5
REMARK                            x       y       z     vdW  Elec       q    Type
REMARK                         _______ _______ _______ _____ _____    ______ ____
ROOT
ATOM      1  C   UNL     1       4.696   5.395  16.821  0.00  0.00    +0.000 A 
ATOM      2  N   UNL     1       4.433   6.565  17.360  0.00  0.00    +0.000 NA
ATOM      3  N   UNL     1       3.553   6.359  18.414  0.00  0.00    +0.000 NA
ATOM      4  C   UNL     1       3.259   5.080  18.447  0.00  0.00    +0.000 A 
ATOM      5  N   UNL     1       2.545   4.329  19.311  0.00  0.00    +0.000 N 
ATOM      6  C   UNL     1       2.228   4.856  20.642  0.00  0.00    +0.000 C 
ATOM      7  C   UNL     1       2.087   3.648  21.591  0.00  0.00    +0.000 C 
ATOM      8  O   UNL     1       1.093   2.710  21.127  0.00  0.00    +0.000 OA
ATOM      9  C   UNL     1       1.398   2.248  19.799  0.00  0.00    +0.000 C 
ATOM     10  C   UNL     1       1.504   3.418  18.813  0.00  0.00    +0.000 C 
ATOM     11  N   UNL     1       3.970   4.443  17.474  0.00  0.00    +0.000 N 
ATOM     12  H   UNL     1       4.028   3.450  17.345  0.00  0.00    +0.000 HD
ENDROOT
BRANCH   1  16
ATOM     13  C   UNL     1       6.711   3.783  12.556  0.00  0.00    +0.000 C 
ATOM     14  N   UNL     1       6.500   4.393  13.846  0.00  0.00    +0.000 N 
ATOM     15  C   UNL     1       5.346   4.387  14.580  0.00  0.00    +0.000 A 
ATOM     16  C   UNL     1       5.627   5.110  15.715  0.00  0.00    +0.000 A 
ATOM     17  C   UNL     1       6.969   5.499  15.583  0.00  0.00    +0.000 A 
ATOM     18  N   UNL     1       7.510   5.059  14.440  0.00  0.00    +0.000 NA
ENDBRANCH   1  16
TORSDOF 1
ENDMDL
MODEL 2
REMARK VINA RESULT:      -6.8      1.327      1.541
REMARK  Name = 
REMARK  2 active torsions:
REMARK  status: ('A' for Active; 'I' for Inactive)
REMARK    1  A    between atoms: C_1  and  N_2
REMARK    2  A    between atoms: C_4  and  C_5
REMARK                            x       y       z     vdW  Elec       q    Type
REMARK                         _______ _______ _______ _____ _____    ______ ____
ROOT
ATOM      1  C   UNL     1       5.726   4.313  17.392  0.00  0.00    +0.000 A 
ATOM      2  N   UNL     1       6.444   4.373  18.492  0.00  0.00    +0.000 NA
ATOM      3  N   UNL     1       5.592   4.151  19.567  0.00  0.00    +0.000 NA
ATOM      4  C   UNL     1       4.374   4.024  19.094  0.00  0.00    +0.000 A 
ATOM      5  N   UNL     1       3.199   3.703  19.672  0.00  0.00    +0.000 N 
ATOM      6  C   UNL     1       3.189   3.082  21.001  0.00  0.00    +0.000 C 
ATOM      7  C   UNL     1       1.916   2.215  21.092  0.00  0.00    +0.000 C 
ATOM      8  O   UNL     1       0.720   2.984  20.841  0.00  0.00    +0.000 OA
ATOM      9  C   UNL     1       0.777   3.625  19.554  0.00  0.00    +0.000 C 
ATOM     10  C   UNL     1       2.008   4.532  19.438  0.00  0.00    +0.000 C 
ATOM     11  N   UNL     1       4.423   4.103  17.734  0.00  0.00    +0.000 N 
ATOM     12  H   UNL     1       3.660   3.926  17.109  0.00  0.00    +0.000 HD
ENDROOT
BRANCH   1  16
ATOM     13  C   UNL     1       6.447   3.633  12.506  0.00  0.00    +0.000 C 
ATOM     14  N   UNL     1       6.521   4.112  13.866  0.00  0.00    +0.000 N 
ATOM     15  C   UNL     1       5.819   3.644  14.941  0.00  0.00    +0.000 A 
ATOM     16  C   UNL     1       6.210   4.424  16.004  0.00  0.00    +0.000 A 
ATOM     17  C   UNL     1       7.153   5.320  15.479  0.00  0.00    +0.000 A 
ATOM     18  N   UNL     1       7.350   5.131  14.168  0.00  0.00    +0.000 NA
ENDBRANCH   1  16
TORSDOF 1
ENDMDL
MODEL 3
REMARK VINA RESULT:      -6.2      1.407      1.821
REMARK  Name = 
REMARK  2 active torsions:
REMARK  status: ('A' for Active; 'I' for Inactive)
REMARK    1  A    between atoms: C_1  and  N_2
REMARK    2  A    between atoms: C_4  and  C_5
REMARK                            x       y       z     vdW  Elec       q    Type
REMARK                         _______ _______ _______ _____ _____    ______ ____
ROOT
ATOM      1  C   UNL     1       5.690   4.285  17.153  0.00  0.00    +0.000 A 
ATOM      2  N   UNL     1       6.458   4.389  18.215  0.00  0.00    +0.000 NA
ATOM      3  N   UNL     1       5.658   4.207  19.336  0.00  0.00    +0.000 NA
ATOM      4  C   UNL     1       4.420   4.059  18.926  0.00  0.00    +0.000 A 
ATOM      5  N   UNL     1       3.274   3.758  19.571  0.00  0.00    +0.000 N 
ATOM      6  C   UNL     1       3.328   3.189  20.921  0.00  0.00    +0.000 C 
ATOM      7  C   UNL     1       2.064   2.323  21.104  0.00  0.00    +0.000 C 
ATOM      8  O   UNL     1       0.855   3.079  20.881  0.00  0.00    +0.000 OA
ATOM      9  C   UNL     1       0.850   3.671  19.569  0.00  0.00    +0.000 C 
ATOM     10  C   UNL     1       2.070   4.576  19.361  0.00  0.00    +0.000 C 
ATOM     11  N   UNL     1       4.405   4.086  17.563  0.00  0.00    +0.000 N 
ATOM     12  H   UNL     1       3.614   3.883  16.981  0.00  0.00    +0.000 HD
ENDROOT
BRANCH   1  16
ATOM     13  C   UNL     1       8.056   5.379  12.903  0.00  0.00    +0.000 C 
ATOM     14  N   UNL     1       7.148   4.836  13.885  0.00  0.00    +0.000 N 
ATOM     15  C   UNL     1       7.125   5.111  15.224  0.00  0.00    +0.000 A 
ATOM     16  C   UNL     1       6.108   4.344  15.741  0.00  0.00    +0.000 A 
ATOM     17  C   UNL     1       5.571   3.654  14.643  0.00  0.00    +0.000 A 
ATOM     18  N   UNL     1       6.203   3.954  13.502  0.00  0.00    +0.000 NA
ENDBRANCH   1  16
TORSDOF 1
ENDMDL
MODEL 4
REMARK VINA RESULT:      -6.2      4.077      7.377
REMARK  Name = 
REMARK  2 active torsions:
REMARK  status: ('A' for Active; 'I' for Inactive)
REMARK    1  A    between atoms: C_1  and  N_2
REMARK    2  A    between atoms: C_4  and  C_5
REMARK                            x       y       z     vdW  Elec       q    Type
REMARK                         _______ _______ _______ _____ _____    ______ ____
ROOT
ATOM      1  C   UNL     1       1.604   8.248  20.209  0.00  0.00    +0.000 A 
ATOM      2  N   UNL     1       1.788   8.668  18.976  0.00  0.00    +0.000 NA
ATOM      3  N   UNL     1       2.341   7.621  18.250  0.00  0.00    +0.000 NA
ATOM      4  C   UNL     1       2.534   6.618  19.075  0.00  0.00    +0.000 A 
ATOM      5  N   UNL     1       2.945   5.347  18.887  0.00  0.00    +0.000 N 
ATOM      6  C   UNL     1       2.929   4.771  17.539  0.00  0.00    +0.000 C 
ATOM      7  C   UNL     1       2.736   3.247  17.694  0.00  0.00    +0.000 C 
ATOM      8  O   UNL     1       3.756   2.656  18.527  0.00  0.00    +0.000 OA
ATOM      9  C   UNL     1       3.786   3.275  19.826  0.00  0.00    +0.000 C 
ATOM     10  C   UNL     1       4.020   4.786  19.718  0.00  0.00    +0.000 C 
ATOM     11  N   UNL     1       2.068   6.970  20.307  0.00  0.00    +0.000 N 
ATOM     12  H   UNL     1       1.984   6.359  21.098  0.00  0.00    +0.000 HD
ENDROOT
BRANCH   1  16
ATOM     13  C   UNL     1      -1.390  11.140  22.951  0.00  0.00    +0.000 C 
ATOM     14  N   UNL     1      -0.331  10.264  22.510  0.00  0.00    +0.000 N 
ATOM     15  C   UNL     1      -0.124   9.801  21.241  0.00  0.00    +0.000 A 
ATOM     16  C   UNL     1       0.984   8.990  21.321  0.00  0.00    +0.000 A 
ATOM     17  C   UNL     1       1.378   9.035  22.667  0.00  0.00    +0.000 A 
ATOM     18  N   UNL     1       0.577   9.818  23.399  0.00  0.00    +0.000 NA
ENDBRANCH   1  16
TORSDOF 1
ENDMDL
MODEL 5
REMARK VINA RESULT:      -6.1      4.289      7.530
REMARK  Name = 
REMARK  2 active torsions:
REMARK  status: ('A' for Active; 'I' for Inactive)
REMARK    1  A    between atoms: C_1  and  N_2
REMARK    2  A    between atoms: C_4  and  C_5
REMARK                            x       y       z     vdW  Elec       q    Type
REMARK                         _______ _______ _______ _____ _____    ______ ____
ROOT
ATOM      1  C   UNL     1       1.313   8.293  20.778  0.00  0.00    +0.000 A 
ATOM      2  N   UNL     1       2.014   8.419  19.673  0.00  0.00    +0.000 NA
ATOM      3  N   UNL     1       2.356   7.144  19.241  0.00  0.00    +0.000 NA
ATOM      4  C   UNL     1       1.908   6.286  20.127  0.00  0.00    +0.000 A 
ATOM      5  N   UNL     1       1.874   4.938  20.157  0.00  0.00    +0.000 N 
ATOM      6  C   UNL     1       2.081   4.179  18.920  0.00  0.00    +0.000 C 
ATOM      7  C   UNL     1       1.319   2.845  19.068  0.00  0.00    +0.000 C 
ATOM      8  O   UNL     1       1.740   2.109  20.236  0.00  0.00    +0.000 OA
ATOM      9  C   UNL     1       1.577   2.895  21.430  0.00  0.00    +0.000 C 
ATOM     10  C   UNL     1       2.356   4.212  21.341  0.00  0.00    +0.000 C 
ATOM     11  N   UNL     1       1.233   6.970  21.095  0.00  0.00    +0.000 N 
ATOM     12  H   UNL     1       0.691   6.560  21.832  0.00  0.00    +0.000 HD
ENDROOT
BRANCH   1  16
ATOM     13  C   UNL     1      -0.658  12.641  22.217  0.00  0.00    +0.000 C 
ATOM     14  N   UNL     1      -0.175  11.281  22.181  0.00  0.00    +0.000 N 
ATOM     15  C   UNL     1       0.418  10.648  21.125  0.00  0.00    +0.000 A 
ATOM     16  C   UNL     1       0.680   9.370  21.561  0.00  0.00    +0.000 A 
ATOM     17  C   UNL     1       0.226   9.332  22.888  0.00  0.00    +0.000 A 
ATOM     18  N   UNL     1      -0.297  10.503  23.274  0.00  0.00    +0.000 NA
ENDBRANCH   1  16
TORSDOF 1
ENDMDL
MODEL 6
REMARK VINA RESULT:      -6.1      3.764      6.709
REMARK  Name = 
REMARK  2 active torsions:
REMARK  status: ('A' for Active; 'I' for Inactive)
REMARK    1  A    between atoms: C_1  and  N_2
REMARK    2  A    between atoms: C_4  and  C_5
REMARK                            x       y       z     vdW  Elec       q    Type
REMARK                         _______ _______ _______ _____ _____    ______ ____
ROOT
ATOM      1  C   UNL     1       2.609   7.225  18.975  0.00  0.00    +0.000 A 
ATOM      2  N   UNL     1       2.570   6.229  19.832  0.00  0.00    +0.000 NA
ATOM      3  N   UNL     1       3.573   5.332  19.485  0.00  0.00    +0.000 NA
ATOM      4  C   UNL     1       4.149   5.777  18.393  0.00  0.00    +0.000 A 
ATOM      5  N   UNL     1       5.225   5.361  17.693  0.00  0.00    +0.000 N 
ATOM      6  C   UNL     1       6.178   4.432  18.310  0.00  0.00    +0.000 C 
ATOM      7  C   UNL     1       7.553   4.689  17.659  0.00  0.00    +0.000 C 
ATOM      8  O   UNL     1       7.506   4.547  16.224  0.00  0.00    +0.000 OA
ATOM      9  C   UNL     1       6.527   5.430  15.648  0.00  0.00    +0.000 C 
ATOM     10  C   UNL     1       5.134   5.178  16.237  0.00  0.00    +0.000 C 
ATOM     11  N   UNL     1       3.583   6.970  18.055  0.00  0.00    +0.000 N 
ATOM     12  H   UNL     1       3.903   7.588  17.333  0.00  0.00    +0.000 HD
ENDROOT
BRANCH   1  16
ATOM     13  C   UNL     1      -0.305  11.021  20.372  0.00  0.00    +0.000 C 
ATOM     14  N   UNL     1       0.495  10.096  19.606  0.00  0.00    +0.000 N 
ATOM     15  C   UNL     1       1.130   8.978  20.071  0.00  0.00    +0.000 A 
ATOM     16  C   UNL     1       1.777   8.441  18.983  0.00  0.00    +0.000 A 
ATOM     17  C   UNL     1       1.466   9.292  17.911  0.00  0.00    +0.000 A 
ATOM     18  N   UNL     1       0.678  10.307  18.288  0.00  0.00    +0.000 NA
ENDBRANCH   1  16
TORSDOF 1
ENDMDL
MODEL 7
REMARK VINA RESULT:      -6.1      2.451      3.528
REMARK  Name = 
REMARK  2 active torsions:
REMARK  status: ('A' for Active; 'I' for Inactive)
REMARK    1  A    between atoms: C_1  and  N_2
REMARK    2  A    between atoms: C_4  and  C_5
REMARK                            x       y       z     vdW  Elec       q    Type
REMARK                         _______ _______ _______ _____ _____    ______ ____
ROOT
ATOM      1  C   UNL     1       5.774   5.082  17.887  0.00  0.00    +0.000 A 
ATOM      2  N   UNL     1       5.590   4.352  16.809  0.00  0.00    +0.000 NA
ATOM      3  N   UNL     1       4.527   3.493  17.056  0.00  0.00    +0.000 NA
ATOM      4  C   UNL     1       4.138   3.682  18.295  0.00  0.00    +0.000 A 
ATOM      5  N   UNL     1       3.103   3.196  19.011  0.00  0.00    +0.000 N 
ATOM      6  C   UNL     1       1.977   2.559  18.320  0.00  0.00    +0.000 C 
ATOM      7  C   UNL     1       0.727   2.759  19.202  0.00  0.00    +0.000 C 
ATOM      8  O   UNL     1       0.916   2.234  20.534  0.00  0.00    +0.000 OA
ATOM      9  C   UNL     1       2.057   2.836  21.170  0.00  0.00    +0.000 C 
ATOM     10  C   UNL     1       3.332   2.622  20.345  0.00  0.00    +0.000 C 
ATOM     11  N   UNL     1       4.885   4.683  18.840  0.00  0.00    +0.000 N 
ATOM     12  H   UNL     1       4.729   5.112  19.732  0.00  0.00    +0.000 HD
ENDROOT
BRANCH   1  16
ATOM     13  C   UNL     1       8.232   9.408  17.563  0.00  0.00    +0.000 C 
ATOM     14  N   UNL     1       7.819   8.070  17.914  0.00  0.00    +0.000 N 
ATOM     15  C   UNL     1       6.740   7.388  17.425  0.00  0.00    +0.000 A 
ATOM     16  C   UNL     1       6.748   6.173  18.070  0.00  0.00    +0.000 A 
ATOM     17  C   UNL     1       7.869   6.210  18.912  0.00  0.00    +0.000 A 
ATOM     18  N   UNL     1       8.531   7.370  18.818  0.00  0.00    +0.000 NA
ENDBRANCH   1  16
TORSDOF 1
ENDMDL
MODEL 8
REMARK VINA RESULT:      -6.1      4.122      5.728
REMARK  Name = 
REMARK  2 active torsions:
REMARK  status: ('A' for Active; 'I' for Inactive)
REMARK    1  A    between atoms: C_1  and  N_2
REMARK    2  A    between atoms: C_4  and  C_5
REMARK                            x       y       z     vdW  Elec       q    Type
REMARK                         _______ _______ _______ _____ _____    ______ ____
ROOT
ATOM      1  C   UNL     1       2.829   6.692  19.153  0.00  0.00    +0.000 A 
ATOM      2  N   UNL     1       2.552   7.344  18.045  0.00  0.00    +0.000 NA
ATOM      3  N   UNL     1       1.791   8.455  18.386  0.00  0.00    +0.000 NA
ATOM      4  C   UNL     1       1.577   8.412  19.681  0.00  0.00    +0.000 A 
ATOM      5  N   UNL     1       0.994   9.275  20.538  0.00  0.00    +0.000 N 
ATOM      6  C   UNL     1       0.777  10.667  20.132  0.00  0.00    +0.000 C 
ATOM      7  C   UNL     1       0.799  11.527  21.414  0.00  0.00    +0.000 C 
ATOM      8  O   UNL     1      -0.179  11.082  22.379  0.00  0.00    +0.000 OA
ATOM      9  C   UNL     1       0.023   9.699  22.720  0.00  0.00    +0.000 C 
ATOM     10  C   UNL     1      -0.034   8.804  21.477  0.00  0.00    +0.000 C 
ATOM     11  N   UNL     1       2.227   7.331  20.196  0.00  0.00    +0.000 N 
ATOM     12  H   UNL     1       2.330   7.119  21.171  0.00  0.00    +0.000 HD
ENDROOT
BRANCH   1  16
ATOM     13  C   UNL     1       4.420   2.042  19.991  0.00  0.00    +0.000 C 
ATOM     14  N   UNL     1       4.351   3.447  19.670  0.00  0.00    +0.000 N 
ATOM     15  C   UNL     1       3.239   4.243  19.697  0.00  0.00    +0.000 A 
ATOM     16  C   UNL     1       3.665   5.486  19.294  0.00  0.00    +0.000 A 
ATOM     17  C   UNL     1       5.042   5.347  19.059  0.00  0.00    +0.000 A 
ATOM     18  N   UNL     1       5.467   4.099  19.291  0.00  0.00    +0.000 NA
ENDBRANCH   1  16
TORSDOF 1
ENDMDL
MODEL 9
REMARK VINA RESULT:      -6.0      0.667      1.070
REMARK  Name = 
REMARK  2 active torsions:
REMARK  status: ('A' for Active; 'I' for Inactive)
REMARK    1  A    between atoms: C_1  and  N_2
REMARK    2  A    between atoms: C_4  and  C_5
REMARK                            x       y       z     vdW  Elec       q    Type
REMARK                         _______ _______ _______ _____ _____    ______ ____
ROOT
ATOM      1  C   UNL     1       4.798   5.229  16.693  0.00  0.00    +0.000 A 
ATOM      2  N   UNL     1       4.839   6.344  17.388  0.00  0.00    +0.000 NA
ATOM      3  N   UNL     1       4.001   6.191  18.485  0.00  0.00    +0.000 NA
ATOM      4  C   UNL     1       3.428   5.014  18.391  0.00  0.00    +0.000 A 
ATOM      5  N   UNL     1       2.616   4.325  19.219  0.00  0.00    +0.000 N 
ATOM      6  C   UNL     1       2.507   4.722  20.626  0.00  0.00    +0.000 C 
ATOM      7  C   UNL     1       2.154   3.455  21.433  0.00  0.00    +0.000 C 
ATOM      8  O   UNL     1       0.948   2.826  20.951  0.00  0.00    +0.000 OA
ATOM      9  C   UNL     1       1.060   2.495  19.555  0.00  0.00    +0.000 C 
ATOM     10  C   UNL     1       1.368   3.737  18.710  0.00  0.00    +0.000 C 
ATOM     11  N   UNL     1       3.917   4.377  17.289  0.00  0.00    +0.000 N 
ATOM     12  H   UNL     1       3.741   3.422  17.038  0.00  0.00    +0.000 HD
ENDROOT
BRANCH   1  16
ATOM     13  C   UNL     1       8.112   5.296  12.969  0.00  0.00    +0.000 C 
ATOM     14  N   UNL     1       7.025   4.947  13.852  0.00  0.00    +0.000 N 
ATOM     15  C   UNL     1       6.620   5.629  14.966  0.00  0.00    +0.000 A 
ATOM     16  C   UNL     1       5.572   4.903  15.482  0.00  0.00    +0.000 A 
ATOM     17  C   UNL     1       5.412   3.815  14.611  0.00  0.00    +0.000 A 
ATOM     18  N   UNL     1       6.298   3.839  13.608  0.00  0.00    +0.000 NA
ENDBRANCH   1  16
TORSDOF 1
ENDMDL
