MODEL 1
REMARK VINA RESULT:      -6.7      0.000      0.000
REMARK  Name = 
REMARK  3 active torsions:
REMARK  status: ('A' for Active; 'I' for Inactive)
REMARK    1  A    between atoms: N_3  and  C_4
REMARK    2  A    between atoms: C_20  and  C_21
REMARK    3  A    between atoms: C_24  and  C_25
REMARK                            x       y       z     vdW  Elec       q    Type
REMARK                         _______ _______ _______ _____ _____    ______ ____
ROOT
ATOM      1  O   UNL     1      -1.762  17.172  21.603  0.00  0.00    +0.000 OA
ATOM      2  C   UNL     1      -0.953  16.296  21.315  0.00  0.00    +0.000 C 
ATOM      3  N   UNL     1      -0.983  15.005  21.782  0.00  0.00    +0.000 N 
ATOM      4  N   UNL     1       0.222  16.556  20.591  0.00  0.00    +0.000 N 
ATOM      5  C   UNL     1       0.623  17.961  20.533  0.00  0.00    +0.000 C 
ATOM      6  C   UNL     1       2.142  18.067  20.572  0.00  0.00    +0.000 C 
ATOM      7  C   UNL     1       2.795  17.132  19.592  0.00  0.00    +0.000 A 
ATOM      8  N   UNL     1       4.134  17.289  19.426  0.00  0.00    +0.000 NA
ATOM      9  C   UNL     1       4.768  16.439  18.591  0.00  0.00    +0.000 A 
ATOM     10  C   UNL     1       4.121  15.475  17.845  0.00  0.00    +0.000 A 
ATOM     11  C   UNL     1       2.747  15.351  17.998  0.00  0.00    +0.000 A 
ATOM     12  C   UNL     1       2.066  16.126  18.957  0.00  0.00    +0.000 A 
ATOM     13  C   UNL     1       0.617  15.797  19.375  0.00  0.00    +0.000 C 
ATOM     14  H   UNL     1      -0.113  14.514  21.659  0.00  0.00    +0.000 HD
ENDROOT
BRANCH   3  15
ATOM     15  C   UNL     1      -1.911  14.361  22.610  0.00  0.00    +0.000 A 
ATOM     16  C   UNL     1      -2.392  14.870  23.812  0.00  0.00    +0.000 A 
ATOM     17  C   UNL     1      -3.266  14.101  24.595  0.00  0.00    +0.000 A 
ATOM     18  C   UNL     1      -3.652  12.836  24.165  0.00  0.00    +0.000 A 
ATOM     19  F   UNL     1      -4.465  12.099  24.930  0.00  0.00    +0.000 F 
ATOM     20  C   UNL     1      -3.203  12.328  22.956  0.00  0.00    +0.000 A 
ATOM     21  C   UNL     1      -2.337  13.093  22.177  0.00  0.00    +0.000 A 
ENDBRANCH   3  15
BRANCH  13  22
ATOM     22  C   UNL     1       0.430  14.273  19.417  0.00  0.00    +0.000 A 
ATOM     23  C   UNL     1       1.325  13.452  20.132  0.00  0.00    +0.000 A 
ATOM     24  C   UNL     1       1.397  12.086  19.863  0.00  0.00    +0.000 A 
ATOM     25  C   UNL     1       0.537  11.508  18.922  0.00  0.00    +0.000 A 
ATOM     26  C   UNL     1      -0.482  12.291  18.359  0.00  0.00    +0.000 A 
ATOM     27  C   UNL     1      -0.536  13.665  18.603  0.00  0.00    +0.000 A 
BRANCH  25  28
ATOM     28  C   UNL     1       0.753  10.090  18.448  0.00  0.00    +0.000 C 
ATOM     29  F   UNL     1       1.883   9.937  17.702  0.00  0.00    +0.000 F 
ATOM     30  F   UNL     1       0.845   9.196  19.465  0.00  0.00    +0.000 F 
ATOM     31  F   UNL     1      -0.270   9.659  17.654  0.00  0.00    +0.000 F 
ENDBRANCH  25  28
ENDBRANCH  13  22
TORSDOF 3
ENDMDL
MODEL 2
REMARK VINA RESULT:      -6.6      2.375      6.362
REMARK  Name = 
REMARK  3 active torsions:
REMARK  status: ('A' for Active; 'I' for Inactive)
REMARK    1  A    between atoms: N_3  and  C_4
REMARK    2  A    between atoms: C_20  and  C_21
REMARK    3  A    between atoms: C_24  and  C_25
REMARK                            x       y       z     vdW  Elec       q    Type
REMARK                         _______ _______ _______ _____ _____    ______ ____
ROOT
ATOM      1  O   UNL     1       1.661  15.467  22.828  0.00  0.00    +0.000 OA
ATOM      2  C   UNL     1       0.794  15.001  22.096  0.00  0.00    +0.000 C 
ATOM      3  N   UNL     1       0.924  14.794  20.745  0.00  0.00    +0.000 N 
ATOM      4  N   UNL     1      -0.523  14.775  22.529  0.00  0.00    +0.000 N 
ATOM      5  C   UNL     1      -0.907  15.472  23.756  0.00  0.00    +0.000 C 
ATOM      6  C   UNL     1      -2.364  15.907  23.671  0.00  0.00    +0.000 C 
ATOM      7  C   UNL     1      -3.258  14.786  23.216  0.00  0.00    +0.000 A 
ATOM      8  N   UNL     1      -4.592  15.028  23.287  0.00  0.00    +0.000 NA
ATOM      9  C   UNL     1      -5.430  14.066  22.845  0.00  0.00    +0.000 A 
ATOM     10  C   UNL     1      -5.008  12.831  22.398  0.00  0.00    +0.000 A 
ATOM     11  C   UNL     1      -3.642  12.585  22.366  0.00  0.00    +0.000 A 
ATOM     12  C   UNL     1      -2.728  13.607  22.690  0.00  0.00    +0.000 A 
ATOM     13  C   UNL     1      -1.226  13.476  22.365  0.00  0.00    +0.000 C 
ATOM     14  H   UNL     1       0.045  14.662  20.274  0.00  0.00    +0.000 HD
ENDROOT
BRANCH   3  15
ATOM     15  C   UNL     1       2.023  14.987  19.900  0.00  0.00    +0.000 A 
ATOM     16  C   UNL     1       2.552  16.226  19.553  0.00  0.00    +0.000 A 
ATOM     17  C   UNL     1       3.612  16.300  18.637  0.00  0.00    +0.000 A 
ATOM     18  C   UNL     1       4.134  15.137  18.084  0.00  0.00    +0.000 A 
ATOM     19  F   UNL     1       5.126  15.218  17.191  0.00  0.00    +0.000 F 
ATOM     20  C   UNL     1       3.636  13.893  18.441  0.00  0.00    +0.000 A 
ATOM     21  C   UNL     1       2.584  13.819  19.353  0.00  0.00    +0.000 A 
ENDBRANCH   3  15
BRANCH  13  22
ATOM     22  C   UNL     1      -1.055  12.760  21.016  0.00  0.00    +0.000 A 
ATOM     23  C   UNL     1      -1.625  13.286  19.839  0.00  0.00    +0.000 A 
ATOM     24  C   UNL     1      -1.809  12.474  18.721  0.00  0.00    +0.000 A 
ATOM     25  C   UNL     1      -1.374  11.143  18.739  0.00  0.00    +0.000 A 
ATOM     26  C   UNL     1      -0.633  10.684  19.838  0.00  0.00    +0.000 A 
ATOM     27  C   UNL     1      -0.475  11.485  20.971  0.00  0.00    +0.000 A 
BRANCH  25  28
ATOM     28  C   UNL     1      -1.770  10.187  17.639  0.00  0.00    +0.000 C 
ATOM     29  F   UNL     1      -2.147  10.813  16.489  0.00  0.00    +0.000 F 
ATOM     30  F   UNL     1      -0.777   9.328  17.295  0.00  0.00    +0.000 F 
ATOM     31  F   UNL     1      -2.835   9.413  17.998  0.00  0.00    +0.000 F 
ENDBRANCH  25  28
ENDBRANCH  13  22
TORSDOF 3
ENDMDL
MODEL 3
REMARK VINA RESULT:      -6.6      2.381      6.445
REMARK  Name = 
REMARK  3 active torsions:
REMARK  status: ('A' for Active; 'I' for Inactive)
REMARK    1  A    between atoms: N_3  and  C_4
REMARK    2  A    between atoms: C_20  and  C_21
REMARK    3  A    between atoms: C_24  and  C_25
REMARK                            x       y       z     vdW  Elec       q    Type
REMARK                         _______ _______ _______ _____ _____    ______ ____
ROOT
ATOM      1  O   UNL     1       0.431  16.045  23.468  0.00  0.00    +0.000 OA
ATOM      2  C   UNL     1      -0.388  15.327  22.903  0.00  0.00    +0.000 C 
ATOM      3  N   UNL     1      -0.214  14.741  21.674  0.00  0.00    +0.000 N 
ATOM      4  N   UNL     1      -1.698  15.150  23.379  0.00  0.00    +0.000 N 
ATOM      5  C   UNL     1      -2.154  16.149  24.345  0.00  0.00    +0.000 C 
ATOM      6  C   UNL     1      -3.633  16.440  24.130  0.00  0.00    +0.000 C 
ATOM      7  C   UNL     1      -4.443  15.178  24.024  0.00  0.00    +0.000 A 
ATOM      8  N   UNL     1      -5.791  15.338  24.016  0.00  0.00    +0.000 NA
ATOM      9  C   UNL     1      -6.555  14.234  23.875  0.00  0.00    +0.000 A 
ATOM     10  C   UNL     1      -6.045  12.954  23.815  0.00  0.00    +0.000 A 
ATOM     11  C   UNL     1      -4.666  12.803  23.860  0.00  0.00    +0.000 A 
ATOM     12  C   UNL     1      -3.827  13.935  23.872  0.00  0.00    +0.000 A 
ATOM     13  C   UNL     1      -2.312  13.815  23.605  0.00  0.00    +0.000 C 
ATOM     14  H   UNL     1      -1.072  14.416  21.261  0.00  0.00    +0.000 HD
ENDROOT
BRANCH   3  15
ATOM     15  C   UNL     1       0.890  14.750  20.813  0.00  0.00    +0.000 A 
ATOM     16  C   UNL     1       1.192  15.772  19.919  0.00  0.00    +0.000 A 
ATOM     17  C   UNL     1       2.287  15.638  19.052  0.00  0.00    +0.000 A 
ATOM     18  C   UNL     1       3.068  14.489  19.092  0.00  0.00    +0.000 A 
ATOM     19  F   UNL     1       4.093  14.358  18.243  0.00  0.00    +0.000 F 
ATOM     20  C   UNL     1       2.795  13.475  19.996  0.00  0.00    +0.000 A 
ATOM     21  C   UNL     1       1.710  13.608  20.861  0.00  0.00    +0.000 A 
ENDBRANCH   3  15
BRANCH  13  22
ATOM     22  C   UNL     1      -2.065  12.747  22.527  0.00  0.00    +0.000 A 
ATOM     23  C   UNL     1      -1.177  11.677  22.757  0.00  0.00    +0.000 A 
ATOM     24  C   UNL     1      -0.660  10.950  21.686  0.00  0.00    +0.000 A 
ATOM     25  C   UNL     1      -1.065  11.237  20.378  0.00  0.00    +0.000 A 
ATOM     26  C   UNL     1      -2.095  12.169  20.173  0.00  0.00    +0.000 A 
ATOM     27  C   UNL     1      -2.592  12.921  21.239  0.00  0.00    +0.000 A 
BRANCH  25  28
ATOM     28  C   UNL     1      -0.349  10.628  19.196  0.00  0.00    +0.000 C 
ATOM     29  F   UNL     1       0.564   9.680  19.548  0.00  0.00    +0.000 F 
ATOM     30  F   UNL     1      -1.190  10.034  18.311  0.00  0.00    +0.000 F 
ATOM     31  F   UNL     1       0.349  11.562  18.489  0.00  0.00    +0.000 F 
ENDBRANCH  25  28
ENDBRANCH  13  22
TORSDOF 3
ENDMDL
MODEL 4
REMARK VINA RESULT:      -6.6      3.764      8.434
REMARK  Name = 
REMARK  3 active torsions:
REMARK  status: ('A' for Active; 'I' for Inactive)
REMARK    1  A    between atoms: N_3  and  C_4
REMARK    2  A    between atoms: C_20  and  C_21
REMARK    3  A    between atoms: C_24  and  C_25
REMARK                            x       y       z     vdW  Elec       q    Type
REMARK                         _______ _______ _______ _____ _____    ______ ____
ROOT
ATOM      1  O   UNL     1      -3.341  11.501  17.067  0.00  0.00    +0.000 OA
ATOM      2  C   UNL     1      -3.344  11.700  18.277  0.00  0.00    +0.000 C 
ATOM      3  N   UNL     1      -2.228  11.768  19.073  0.00  0.00    +0.000 N 
ATOM      4  N   UNL     1      -4.524  11.717  19.040  0.00  0.00    +0.000 N 
ATOM      5  C   UNL     1      -5.691  11.110  18.401  0.00  0.00    +0.000 C 
ATOM      6  C   UNL     1      -6.539  10.395  19.445  0.00  0.00    +0.000 C 
ATOM      7  C   UNL     1      -6.795  11.260  20.648  0.00  0.00    +0.000 A 
ATOM      8  N   UNL     1      -7.692  10.776  21.545  0.00  0.00    +0.000 NA
ATOM      9  C   UNL     1      -7.915  11.498  22.663  0.00  0.00    +0.000 A 
ATOM     10  C   UNL     1      -7.343  12.730  22.905  0.00  0.00    +0.000 A 
ATOM     11  C   UNL     1      -6.457  13.229  21.961  0.00  0.00    +0.000 A 
ATOM     12  C   UNL     1      -6.091  12.449  20.846  0.00  0.00    +0.000 A 
ATOM     13  C   UNL     1      -4.888  12.828  19.958  0.00  0.00    +0.000 C 
ATOM     14  H   UNL     1      -2.429  11.671  20.054  0.00  0.00    +0.000 HD
ENDROOT
BRANCH   3  15
ATOM     15  C   UNL     1      -0.871  11.692  18.739  0.00  0.00    +0.000 A 
ATOM     16  C   UNL     1      -0.154  10.509  18.584  0.00  0.00    +0.000 A 
ATOM     17  C   UNL     1       1.223  10.558  18.320  0.00  0.00    +0.000 A 
ATOM     18  C   UNL     1       1.866  11.785  18.209  0.00  0.00    +0.000 A 
ATOM     19  F   UNL     1       3.184  11.822  17.984  0.00  0.00    +0.000 F 
ATOM     20  C   UNL     1       1.160  12.972  18.333  0.00  0.00    +0.000 A 
ATOM     21  C   UNL     1      -0.209  12.924  18.593  0.00  0.00    +0.000 A 
ENDBRANCH   3  15
BRANCH  13  22
ATOM     22  C   UNL     1      -3.763  13.398  20.837  0.00  0.00    +0.000 A 
ATOM     23  C   UNL     1      -3.246  12.662  21.922  0.00  0.00    +0.000 A 
ATOM     24  C   UNL     1      -2.530  13.304  22.931  0.00  0.00    +0.000 A 
ATOM     25  C   UNL     1      -2.267  14.676  22.844  0.00  0.00    +0.000 A 
ATOM     26  C   UNL     1      -2.612  15.363  21.670  0.00  0.00    +0.000 A 
ATOM     27  C   UNL     1      -3.357  14.730  20.673  0.00  0.00    +0.000 A 
BRANCH  25  28
ATOM     28  C   UNL     1      -1.704  15.430  24.026  0.00  0.00    +0.000 C 
ATOM     29  F   UNL     1      -2.655  16.078  24.755  0.00  0.00    +0.000 F 
ATOM     30  F   UNL     1      -1.035  14.632  24.897  0.00  0.00    +0.000 F 
ATOM     31  F   UNL     1      -0.820  16.394  23.638  0.00  0.00    +0.000 F 
ENDBRANCH  25  28
ENDBRANCH  13  22
TORSDOF 3
ENDMDL
MODEL 5
REMARK VINA RESULT:      -6.6      2.353      6.403
REMARK  Name = 
REMARK  3 active torsions:
REMARK  status: ('A' for Active; 'I' for Inactive)
REMARK    1  A    between atoms: N_3  and  C_4
REMARK    2  A    between atoms: C_20  and  C_21
REMARK    3  A    between atoms: C_24  and  C_25
REMARK                            x       y       z     vdW  Elec       q    Type
REMARK                         _______ _______ _______ _____ _____    ______ ____
ROOT
ATOM      1  O   UNL     1       0.863  15.948  23.003  0.00  0.00    +0.000 OA
ATOM      2  C   UNL     1       0.008  15.213  22.521  0.00  0.00    +0.000 C 
ATOM      3  N   UNL     1       0.098  14.584  21.303  0.00  0.00    +0.000 N 
ATOM      4  N   UNL     1      -1.267  15.055  23.091  0.00  0.00    +0.000 N 
ATOM      5  C   UNL     1      -1.656  16.087  24.051  0.00  0.00    +0.000 C 
ATOM      6  C   UNL     1      -3.146  16.374  23.927  0.00  0.00    +0.000 C 
ATOM      7  C   UNL     1      -3.961  15.110  23.920  0.00  0.00    +0.000 A 
ATOM      8  N   UNL     1      -5.307  15.273  23.999  0.00  0.00    +0.000 NA
ATOM      9  C   UNL     1      -6.079  14.167  23.947  0.00  0.00    +0.000 A 
ATOM     10  C   UNL     1      -5.573  12.884  23.897  0.00  0.00    +0.000 A 
ATOM     11  C   UNL     1      -4.195  12.732  23.853  0.00  0.00    +0.000 A 
ATOM     12  C   UNL     1      -3.357  13.862  23.768  0.00  0.00    +0.000 A 
ATOM     13  C   UNL     1      -1.864  13.730  23.403  0.00  0.00    +0.000 C 
ATOM     14  H   UNL     1      -0.786  14.248  20.960  0.00  0.00    +0.000 HD
ENDROOT
BRANCH   3  15
ATOM     15  C   UNL     1       1.140  14.562  20.369  0.00  0.00    +0.000 A 
ATOM     16  C   UNL     1       2.110  13.569  20.284  0.00  0.00    +0.000 A 
ATOM     17  C   UNL     1       3.152  13.690  19.352  0.00  0.00    +0.000 A 
ATOM     18  C   UNL     1       3.209  14.799  18.515  0.00  0.00    +0.000 A 
ATOM     19  F   UNL     1       4.221  14.920  17.648  0.00  0.00    +0.000 F 
ATOM     20  C   UNL     1       2.234  15.783  18.570  0.00  0.00    +0.000 A 
ATOM     21  C   UNL     1       1.197  15.661  19.493  0.00  0.00    +0.000 A 
ENDBRANCH   3  15
BRANCH  13  22
ATOM     22  C   UNL     1      -1.691  12.626  22.348  0.00  0.00    +0.000 A 
ATOM     23  C   UNL     1      -0.805  11.550  22.563  0.00  0.00    +0.000 A 
ATOM     24  C   UNL     1      -0.357  10.782  21.490  0.00  0.00    +0.000 A 
ATOM     25  C   UNL     1      -0.831  11.035  20.196  0.00  0.00    +0.000 A 
ATOM     26  C   UNL     1      -1.858  11.974  20.019  0.00  0.00    +0.000 A 
ATOM     27  C   UNL     1      -2.285  12.766  21.086  0.00  0.00    +0.000 A 
BRANCH  25  28
ATOM     28  C   UNL     1      -0.189  10.378  18.998  0.00  0.00    +0.000 C 
ATOM     29  F   UNL     1       0.595   9.311  19.321  0.00  0.00    +0.000 F 
ATOM     30  F   UNL     1      -1.092   9.924  18.091  0.00  0.00    +0.000 F 
ATOM     31  F   UNL     1       0.627  11.239  18.323  0.00  0.00    +0.000 F 
ENDBRANCH  25  28
ENDBRANCH  13  22
TORSDOF 3
ENDMDL
MODEL 6
REMARK VINA RESULT:      -6.6      2.543      6.582
REMARK  Name = 
REMARK  3 active torsions:
REMARK  status: ('A' for Active; 'I' for Inactive)
REMARK    1  A    between atoms: N_3  and  C_4
REMARK    2  A    between atoms: C_20  and  C_21
REMARK    3  A    between atoms: C_24  and  C_25
REMARK                            x       y       z     vdW  Elec       q    Type
REMARK                         _______ _______ _______ _____ _____    ______ ____
ROOT
ATOM      1  O   UNL     1       1.570  14.827  22.610  0.00  0.00    +0.000 OA
ATOM      2  C   UNL     1       0.600  14.504  21.933  0.00  0.00    +0.000 C 
ATOM      3  N   UNL     1       0.591  14.388  20.565  0.00  0.00    +0.000 N 
ATOM      4  N   UNL     1      -0.691  14.372  22.471  0.00  0.00    +0.000 N 
ATOM      5  C   UNL     1      -0.895  15.007  23.773  0.00  0.00    +0.000 C 
ATOM      6  C   UNL     1      -2.301  15.584  23.854  0.00  0.00    +0.000 C 
ATOM      7  C   UNL     1      -3.341  14.592  23.411  0.00  0.00    +0.000 A 
ATOM      8  N   UNL     1      -4.632  14.953  23.623  0.00  0.00    +0.000 NA
ATOM      9  C   UNL     1      -5.599  14.113  23.197  0.00  0.00    +0.000 A 
ATOM     10  C   UNL     1      -5.345  12.880  22.632  0.00  0.00    +0.000 A 
ATOM     11  C   UNL     1      -4.020  12.509  22.455  0.00  0.00    +0.000 A 
ATOM     12  C   UNL     1      -2.982  13.411  22.760  0.00  0.00    +0.000 A 
ATOM     13  C   UNL     1      -1.534  13.162  22.288  0.00  0.00    +0.000 C 
ATOM     14  H   UNL     1      -0.335  14.376  20.171  0.00  0.00    +0.000 HD
ENDROOT
BRANCH   3  15
ATOM     15  C   UNL     1       1.626  14.538  19.636  0.00  0.00    +0.000 A 
ATOM     16  C   UNL     1       2.428  13.504  19.163  0.00  0.00    +0.000 A 
ATOM     17  C   UNL     1       3.486  13.787  18.286  0.00  0.00    +0.000 A 
ATOM     18  C   UNL     1       3.726  15.097  17.888  0.00  0.00    +0.000 A 
ATOM     19  F   UNL     1       4.754  15.361  17.073  0.00  0.00    +0.000 F 
ATOM     20  C   UNL     1       2.919  16.134  18.329  0.00  0.00    +0.000 A 
ATOM     21  C   UNL     1       1.866  15.853  19.198  0.00  0.00    +0.000 A 
ENDBRANCH   3  15
BRANCH  13  22
ATOM     22  C   UNL     1      -1.555  12.538  20.883  0.00  0.00    +0.000 A 
ATOM     23  C   UNL     1      -2.433  13.015  19.890  0.00  0.00    +0.000 A 
ATOM     24  C   UNL     1      -2.733  12.230  18.778  0.00  0.00    +0.000 A 
ATOM     25  C   UNL     1      -2.116  10.985  18.608  0.00  0.00    +0.000 A 
ATOM     26  C   UNL     1      -1.098  10.603  19.495  0.00  0.00    +0.000 A 
ATOM     27  C   UNL     1      -0.819  11.372  20.627  0.00  0.00    +0.000 A 
BRANCH  25  28
ATOM     28  C   UNL     1      -2.597  10.025  17.546  0.00  0.00    +0.000 C 
ATOM     29  F   UNL     1      -3.399   9.037  18.033  0.00  0.00    +0.000 F 
ATOM     30  F   UNL     1      -3.301  10.632  16.557  0.00  0.00    +0.000 F 
ATOM     31  F   UNL     1      -1.559   9.384  16.935  0.00  0.00    +0.000 F 
ENDBRANCH  25  28
ENDBRANCH  13  22
TORSDOF 3
ENDMDL
MODEL 7
REMARK VINA RESULT:      -6.6      3.639      5.988
REMARK  Name = 
REMARK  3 active torsions:
REMARK  status: ('A' for Active; 'I' for Inactive)
REMARK    1  A    between atoms: N_3  and  C_4
REMARK    2  A    between atoms: C_20  and  C_21
REMARK    3  A    between atoms: C_24  and  C_25
REMARK                            x       y       z     vdW  Elec       q    Type
REMARK                         _______ _______ _______ _____ _____    ______ ____
ROOT
ATOM      1  O   UNL     1      -4.428  13.472  21.396  0.00  0.00    +0.000 OA
ATOM      2  C   UNL     1      -3.560  13.322  20.541  0.00  0.00    +0.000 C 
ATOM      3  N   UNL     1      -2.401  14.053  20.452  0.00  0.00    +0.000 N 
ATOM      4  N   UNL     1      -3.727  12.480  19.430  0.00  0.00    +0.000 N 
ATOM      5  C   UNL     1      -5.108  12.098  19.135  0.00  0.00    +0.000 C 
ATOM      6  C   UNL     1      -5.311  12.009  17.629  0.00  0.00    +0.000 C 
ATOM      7  C   UNL     1      -4.227  11.208  16.963  0.00  0.00    +0.000 A 
ATOM      8  N   UNL     1      -4.424  10.921  15.651  0.00  0.00    +0.000 NA
ATOM      9  C   UNL     1      -3.453  10.243  15.003  0.00  0.00    +0.000 A 
ATOM     10  C   UNL     1      -2.314   9.764  15.617  0.00  0.00    +0.000 A 
ATOM     11  C   UNL     1      -2.144  10.034  16.968  0.00  0.00    +0.000 A 
ATOM     12  C   UNL     1      -3.066  10.852  17.651  0.00  0.00    +0.000 A 
ATOM     13  C   UNL     1      -2.749  11.428  19.047  0.00  0.00    +0.000 C 
ATOM     14  H   UNL     1      -1.949  13.976  19.556  0.00  0.00    +0.000 HD
ENDROOT
BRANCH   3  15
ATOM     15  C   UNL     1      -1.897  15.060  21.283  0.00  0.00    +0.000 A 
ATOM     16  C   UNL     1      -2.243  16.405  21.203  0.00  0.00    +0.000 A 
ATOM     17  C   UNL     1      -1.616  17.337  22.044  0.00  0.00    +0.000 A 
ATOM     18  C   UNL     1      -0.657  16.913  22.957  0.00  0.00    +0.000 A 
ATOM     19  F   UNL     1      -0.046  17.813  23.736  0.00  0.00    +0.000 F 
ATOM     20  C   UNL     1      -0.323  15.573  23.068  0.00  0.00    +0.000 A 
ATOM     21  C   UNL     1      -0.948  14.646  22.235  0.00  0.00    +0.000 A 
ENDBRANCH   3  15
BRANCH  13  22
ATOM     22  C   UNL     1      -1.261  11.805  19.119  0.00  0.00    +0.000 A 
ATOM     23  C   UNL     1      -0.439  11.320  20.156  0.00  0.00    +0.000 A 
ATOM     24  C   UNL     1       0.770  11.948  20.449  0.00  0.00    +0.000 A 
ATOM     25  C   UNL     1       1.207  13.030  19.675  0.00  0.00    +0.000 A 
ATOM     26  C   UNL     1       0.483  13.382  18.526  0.00  0.00    +0.000 A 
ATOM     27  C   UNL     1      -0.744  12.776  18.249  0.00  0.00    +0.000 A 
BRANCH  25  28
ATOM     28  C   UNL     1       2.385  13.866  20.114  0.00  0.00    +0.000 C 
ATOM     29  F   UNL     1       3.325  14.029  19.141  0.00  0.00    +0.000 F 
ATOM     30  F   UNL     1       2.033  15.114  20.515  0.00  0.00    +0.000 F 
ATOM     31  F   UNL     1       3.045  13.301  21.167  0.00  0.00    +0.000 F 
ENDBRANCH  25  28
ENDBRANCH  13  22
TORSDOF 3
ENDMDL
MODEL 8
REMARK VINA RESULT:      -6.6      1.563      2.136
REMARK  Name = 
REMARK  3 active torsions:
REMARK  status: ('A' for Active; 'I' for Inactive)
REMARK    1  A    between atoms: N_3  and  C_4
REMARK    2  A    between atoms: C_20  and  C_21
REMARK    3  A    between atoms: C_24  and  C_25
REMARK                            x       y       z     vdW  Elec       q    Type
REMARK                         _______ _______ _______ _____ _____    ______ ____
ROOT
ATOM      1  O   UNL     1      -2.626  16.406  20.408  0.00  0.00    +0.000 OA
ATOM      2  C   UNL     1      -1.626  15.702  20.507  0.00  0.00    +0.000 C 
ATOM      3  N   UNL     1      -1.467  14.672  21.401  0.00  0.00    +0.000 N 
ATOM      4  N   UNL     1      -0.433  15.977  19.817  0.00  0.00    +0.000 N 
ATOM      5  C   UNL     1      -0.315  17.335  19.288  0.00  0.00    +0.000 C 
ATOM      6  C   UNL     1       1.130  17.805  19.388  0.00  0.00    +0.000 C 
ATOM      7  C   UNL     1       2.092  16.780  18.853  0.00  0.00    +0.000 A 
ATOM      8  N   UNL     1       3.382  17.185  18.732  0.00  0.00    +0.000 NA
ATOM      9  C   UNL     1       4.287  16.281  18.300  0.00  0.00    +0.000 A 
ATOM     10  C   UNL     1       3.960  15.000  17.905  0.00  0.00    +0.000 A 
ATOM     11  C   UNL     1       2.631  14.612  18.001  0.00  0.00    +0.000 A 
ATOM     12  C   UNL     1       1.677  15.477  18.572  0.00  0.00    +0.000 A 
ATOM     13  C   UNL     1       0.277  14.973  18.982  0.00  0.00    +0.000 C 
ATOM     14  H   UNL     1      -0.508  14.390  21.519  0.00  0.00    +0.000 HD
ENDROOT
BRANCH   3  15
ATOM     15  C   UNL     1      -2.358  14.141  22.340  0.00  0.00    +0.000 A 
ATOM     16  C   UNL     1      -2.408  14.501  23.683  0.00  0.00    +0.000 A 
ATOM     17  C   UNL     1      -3.297  13.846  24.548  0.00  0.00    +0.000 A 
ATOM     18  C   UNL     1      -4.128  12.844  24.061  0.00  0.00    +0.000 A 
ATOM     19  F   UNL     1      -4.953  12.206  24.898  0.00  0.00    +0.000 F 
ATOM     20  C   UNL     1      -4.110  12.493  22.720  0.00  0.00    +0.000 A 
ATOM     21  C   UNL     1      -3.229  13.146  21.859  0.00  0.00    +0.000 A 
ENDBRANCH   3  15
BRANCH  13  22
ATOM     22  C   UNL     1       0.393  13.552  19.554  0.00  0.00    +0.000 A 
ATOM     23  C   UNL     1      -0.436  12.512  19.087  0.00  0.00    +0.000 A 
ATOM     24  C   UNL     1      -0.611  11.356  19.845  0.00  0.00    +0.000 A 
ATOM     25  C   UNL     1       0.085  11.191  21.049  0.00  0.00    +0.000 A 
ATOM     26  C   UNL     1       1.055  12.138  21.409  0.00  0.00    +0.000 A 
ATOM     27  C   UNL     1       1.209  13.312  20.669  0.00  0.00    +0.000 A 
BRANCH  25  28
ATOM     28  C   UNL     1      -0.263  10.065  21.993  0.00  0.00    +0.000 C 
ATOM     29  F   UNL     1      -1.205  10.406  22.917  0.00  0.00    +0.000 F 
ATOM     30  F   UNL     1      -0.737   8.963  21.357  0.00  0.00    +0.000 F 
ATOM     31  F   UNL     1       0.820   9.652  22.712  0.00  0.00    +0.000 F 
ENDBRANCH  25  28
ENDBRANCH  13  22
TORSDOF 3
ENDMDL
MODEL 9
REMARK VINA RESULT:      -6.6      3.682      6.603
REMARK  Name = 
REMARK  3 active torsions:
REMARK  status: ('A' for Active; 'I' for Inactive)
REMARK    1  A    between atoms: N_3  and  C_4
REMARK    2  A    between atoms: C_20  and  C_21
REMARK    3  A    between atoms: C_24  and  C_25
REMARK                            x       y       z     vdW  Elec       q    Type
REMARK                         _______ _______ _______ _____ _____    ______ ____
ROOT
ATOM      1  O   UNL     1      -1.689  10.185  18.389  0.00  0.00    +0.000 OA
ATOM      2  C   UNL     1      -0.980  10.946  19.039  0.00  0.00    +0.000 C 
ATOM      3  N   UNL     1       0.301  10.676  19.454  0.00  0.00    +0.000 N 
ATOM      4  N   UNL     1      -1.461  12.144  19.594  0.00  0.00    +0.000 N 
ATOM      5  C   UNL     1      -2.916  12.249  19.691  0.00  0.00    +0.000 C 
ATOM      6  C   UNL     1      -3.298  12.996  20.961  0.00  0.00    +0.000 C 
ATOM      7  C   UNL     1      -2.513  14.268  21.122  0.00  0.00    +0.000 A 
ATOM      8  N   UNL     1      -2.914  15.089  22.125  0.00  0.00    +0.000 NA
ATOM      9  C   UNL     1      -2.206  16.220  22.334  0.00  0.00    +0.000 A 
ATOM     10  C   UNL     1      -1.151  16.619  21.540  0.00  0.00    +0.000 A 
ATOM     11  C   UNL     1      -0.776  15.786  20.495  0.00  0.00    +0.000 A 
ATOM     12  C   UNL     1      -1.399  14.535  20.324  0.00  0.00    +0.000 A 
ATOM     13  C   UNL     1      -0.805  13.462  19.388  0.00  0.00    +0.000 C 
ATOM     14  H   UNL     1       0.622  11.288  20.185  0.00  0.00    +0.000 HD
ENDROOT
BRANCH   3  15
ATOM     15  C   UNL     1       1.115   9.563  19.216  0.00  0.00    +0.000 A 
ATOM     16  C   UNL     1       1.747   9.282  18.009  0.00  0.00    +0.000 A 
ATOM     17  C   UNL     1       2.481   8.095  17.866  0.00  0.00    +0.000 A 
ATOM     18  C   UNL     1       2.578   7.206  18.930  0.00  0.00    +0.000 A 
ATOM     19  F   UNL     1       3.257   6.064  18.776  0.00  0.00    +0.000 F 
ATOM     20  C   UNL     1       1.977   7.485  20.147  0.00  0.00    +0.000 A 
ATOM     21  C   UNL     1       1.250   8.666  20.291  0.00  0.00    +0.000 A 
ENDBRANCH   3  15
BRANCH  13  22
ATOM     22  C   UNL     1       0.729  13.495  19.479  0.00  0.00    +0.000 A 
ATOM     23  C   UNL     1       1.382  13.431  20.727  0.00  0.00    +0.000 A 
ATOM     24  C   UNL     1       2.707  13.845  20.849  0.00  0.00    +0.000 A 
ATOM     25  C   UNL     1       3.419  14.270  19.721  0.00  0.00    +0.000 A 
ATOM     26  C   UNL     1       2.828  14.145  18.455  0.00  0.00    +0.000 A 
ATOM     27  C   UNL     1       1.491  13.762  18.333  0.00  0.00    +0.000 A 
BRANCH  25  28
ATOM     28  C   UNL     1       4.766  14.939  19.866  0.00  0.00    +0.000 C 
ATOM     29  F   UNL     1       4.688  16.296  19.960  0.00  0.00    +0.000 F 
ATOM     30  F   UNL     1       5.453  14.522  20.960  0.00  0.00    +0.000 F 
ATOM     31  F   UNL     1       5.573  14.692  18.794  0.00  0.00    +0.000 F 
ENDBRANCH  25  28
ENDBRANCH  13  22
TORSDOF 3
ENDMDL
