MODEL 1
REMARK VINA RESULT:      -8.7      0.000      0.000
REMARK  Name = 
REMARK  4 active torsions:
REMARK  status: ('A' for Active; 'I' for Inactive)
REMARK    1  A    between atoms: C_1  and  C_2
REMARK    2  A    between atoms: C_5  and  C_7
REMARK    3  A    between atoms: C_10  and  C_11
REMARK    4  A    between atoms: C_23  and  C_25
REMARK                            x       y       z     vdW  Elec       q    Type
REMARK                         _______ _______ _______ _____ _____    ______ ____
ROOT
ATOM      1  C   UNL     1       2.483  13.231  20.998  0.00  0.00    +0.000 C 
ATOM      2  C   UNL     1       2.665  13.515  19.507  0.00  0.00    +0.000 C 
ATOM      3  C   UNL     1       2.238  12.313  18.654  0.00  0.00    +0.000 C 
ATOM      4  N   UNL     1       0.782  12.126  18.617  0.00  0.00    +0.000 N 
ATOM      5  C   UNL     1       0.101  10.916  18.754  0.00  0.00    +0.000 C 
ATOM      6  O   UNL     1      -1.127  10.847  18.773  0.00  0.00    +0.000 OA
ATOM      7  C   UNL     1       0.022  13.338  18.264  0.00  0.00    +0.000 C 
ATOM      8  C   UNL     1       0.487  14.586  19.035  0.00  0.00    +0.000 C 
ATOM      9  N   UNL     1       1.952  14.723  19.054  0.00  0.00    +0.000 N 
ATOM     10  C   UNL     1       2.507  15.989  18.842  0.00  0.00    +0.000 C 
ATOM     11  O   UNL     1       1.806  16.990  18.693  0.00  0.00    +0.000 OA
ENDROOT
BRANCH  10  12
ATOM     12  C   UNL     1       3.987  16.186  18.798  0.00  0.00    +0.000 A 
ATOM     13  C   UNL     1       4.532  17.182  19.616  0.00  0.00    +0.000 A 
ATOM     14  C   UNL     1       5.916  17.408  19.659  0.00  0.00    +0.000 A 
ATOM     15  C   UNL     1       6.769  16.587  18.900  0.00  0.00    +0.000 A 
ATOM     16  C   UNL     1       8.180  16.495  18.752  0.00  0.00    +0.000 A 
ATOM     17  C   UNL     1       8.445  15.461  17.882  0.00  0.00    +0.000 A 
ATOM     18  N   UNL     1       7.246  14.948  17.464  0.00  0.00    +0.000 N 
ATOM     19  C   UNL     1       6.205  15.624  18.063  0.00  0.00    +0.000 A 
ATOM     20  C   UNL     1       4.820  15.455  17.935  0.00  0.00    +0.000 A 
ATOM     21  H   UNL     1       7.138  14.165  16.834  0.00  0.00    +0.000 HD
ENDBRANCH  10  12
BRANCH   5  22
ATOM     22  C   UNL     1       0.857   9.642  18.929  0.00  0.00    +0.000 A 
ATOM     23  C   UNL     1       1.432   9.042  17.806  0.00  0.00    +0.000 A 
ATOM     24  C   UNL     1       2.131   7.832  17.933  0.00  0.00    +0.000 A 
ATOM     25  C   UNL     1       2.265   7.184  19.177  0.00  0.00    +0.000 A 
ATOM     26  C   UNL     1       1.702   7.822  20.294  0.00  0.00    +0.000 A 
ATOM     27  C   UNL     1       1.051   9.053  20.181  0.00  0.00    +0.000 A 
BRANCH  25  28
ATOM     28  C   UNL     1       3.014   5.915  19.321  0.00  0.00    +0.000 A 
ATOM     29  C   UNL     1       4.361   5.826  18.918  0.00  0.00    +0.000 A 
ATOM     30  C   UNL     1       5.096   4.645  19.073  0.00  0.00    +0.000 A 
ATOM     31  C   UNL     1       4.506   3.523  19.646  0.00  0.00    +0.000 A 
ATOM     32  C   UNL     1       3.179   3.581  20.057  0.00  0.00    +0.000 A 
ATOM     33  C   UNL     1       2.448   4.759  19.889  0.00  0.00    +0.000 A 
ATOM     34  F   UNL     1       1.168   4.753  20.294  0.00  0.00    +0.000 F 
ENDBRANCH  25  28
ENDBRANCH   5  22
TORSDOF 3
ENDMDL
MODEL 2
REMARK VINA RESULT:      -8.6      1.039      1.582
REMARK  Name = 
REMARK  4 active torsions:
REMARK  status: ('A' for Active; 'I' for Inactive)
REMARK    1  A    between atoms: C_1  and  C_2
REMARK    2  A    between atoms: C_5  and  C_7
REMARK    3  A    between atoms: C_10  and  C_11
REMARK    4  A    between atoms: C_23  and  C_25
REMARK                            x       y       z     vdW  Elec       q    Type
REMARK                         _______ _______ _______ _____ _____    ______ ____
ROOT
ATOM      1  C   UNL     1       2.913  13.589  20.983  0.00  0.00    +0.000 C 
ATOM      2  C   UNL     1       3.097  13.828  19.485  0.00  0.00    +0.000 C 
ATOM      3  C   UNL     1       2.493  12.683  18.659  0.00  0.00    +0.000 C 
ATOM      4  N   UNL     1       1.024  12.694  18.656  0.00  0.00    +0.000 N 
ATOM      5  C   UNL     1       0.190  11.587  18.826  0.00  0.00    +0.000 C 
ATOM      6  O   UNL     1      -1.035  11.684  18.872  0.00  0.00    +0.000 OA
ATOM      7  C   UNL     1       0.427  13.992  18.300  0.00  0.00    +0.000 C 
ATOM      8  C   UNL     1       1.072  15.175  19.042  0.00  0.00    +0.000 C 
ATOM      9  N   UNL     1       2.543  15.114  19.028  0.00  0.00    +0.000 N 
ATOM     10  C   UNL     1       3.257  16.291  18.784  0.00  0.00    +0.000 C 
ATOM     11  O   UNL     1       2.694  17.376  18.635  0.00  0.00    +0.000 OA
ENDROOT
BRANCH  10  12
ATOM     12  C   UNL     1       4.749  16.287  18.706  0.00  0.00    +0.000 A 
ATOM     13  C   UNL     1       5.435  17.311  19.369  0.00  0.00    +0.000 A 
ATOM     14  C   UNL     1       6.837  17.360  19.373  0.00  0.00    +0.000 A 
ATOM     15  C   UNL     1       7.561  16.335  18.737  0.00  0.00    +0.000 A 
ATOM     16  C   UNL     1       8.945  16.041  18.597  0.00  0.00    +0.000 A 
ATOM     17  C   UNL     1       9.056  14.868  17.884  0.00  0.00    +0.000 A 
ATOM     18  N   UNL     1       7.792  14.460  17.551  0.00  0.00    +0.000 N 
ATOM     19  C   UNL     1       6.860  15.344  18.050  0.00  0.00    +0.000 A 
ATOM     20  C   UNL     1       5.462  15.339  17.954  0.00  0.00    +0.000 A 
ATOM     21  H   UNL     1       7.570  13.616  17.041  0.00  0.00    +0.000 HD
ENDBRANCH  10  12
BRANCH   5  22
ATOM     22  C   UNL     1       0.773  10.226  19.005  0.00  0.00    +0.000 A 
ATOM     23  C   UNL     1       0.833   9.684  20.292  0.00  0.00    +0.000 A 
ATOM     24  C   UNL     1       1.396   8.415  20.497  0.00  0.00    +0.000 A 
ATOM     25  C   UNL     1       1.920   7.659  19.430  0.00  0.00    +0.000 A 
ATOM     26  C   UNL     1       1.820   8.214  18.143  0.00  0.00    +0.000 A 
ATOM     27  C   UNL     1       1.214   9.454  17.928  0.00  0.00    +0.000 A 
BRANCH  25  28
ATOM     28  C   UNL     1       2.500   6.312  19.637  0.00  0.00    +0.000 A 
ATOM     29  C   UNL     1       1.878   5.386  20.495  0.00  0.00    +0.000 A 
ATOM     30  C   UNL     1       2.392   4.098  20.682  0.00  0.00    +0.000 A 
ATOM     31  C   UNL     1       3.541   3.698  20.006  0.00  0.00    +0.000 A 
ATOM     32  C   UNL     1       4.177   4.590  19.149  0.00  0.00    +0.000 A 
ATOM     33  C   UNL     1       3.664   5.877  18.976  0.00  0.00    +0.000 A 
ATOM     34  F   UNL     1       4.326   6.699  18.145  0.00  0.00    +0.000 F 
ENDBRANCH  25  28
ENDBRANCH   5  22
TORSDOF 3
ENDMDL
MODEL 3
REMARK VINA RESULT:      -8.5      4.090      7.178
REMARK  Name = 
REMARK  4 active torsions:
REMARK  status: ('A' for Active; 'I' for Inactive)
REMARK    1  A    between atoms: C_1  and  C_2
REMARK    2  A    between atoms: C_5  and  C_7
REMARK    3  A    between atoms: C_10  and  C_11
REMARK    4  A    between atoms: C_23  and  C_25
REMARK                            x       y       z     vdW  Elec       q    Type
REMARK                         _______ _______ _______ _____ _____    ______ ____
ROOT
ATOM      1  C   UNL     1      -2.219  11.156  18.728  0.00  0.00    +0.000 C 
ATOM      2  C   UNL     1      -1.590  11.730  19.997  0.00  0.00    +0.000 C 
ATOM      3  C   UNL     1      -0.214  11.106  20.270  0.00  0.00    +0.000 C 
ATOM      4  N   UNL     1       0.820  11.573  19.339  0.00  0.00    +0.000 N 
ATOM      5  C   UNL     1       1.772  10.780  18.697  0.00  0.00    +0.000 C 
ATOM      6  O   UNL     1       2.571  11.237  17.881  0.00  0.00    +0.000 OA
ATOM      7  C   UNL     1       0.906  13.038  19.211  0.00  0.00    +0.000 C 
ATOM      8  C   UNL     1      -0.467  13.708  19.028  0.00  0.00    +0.000 C 
ATOM      9  N   UNL     1      -1.473  13.199  19.975  0.00  0.00    +0.000 N 
ATOM     10  C   UNL     1      -2.327  14.114  20.596  0.00  0.00    +0.000 C 
ATOM     11  O   UNL     1      -2.295  15.317  20.335  0.00  0.00    +0.000 OA
ENDROOT
BRANCH  10  12
ATOM     12  C   UNL     1      -3.335  13.667  21.605  0.00  0.00    +0.000 A 
ATOM     13  C   UNL     1      -2.993  13.783  22.957  0.00  0.00    +0.000 A 
ATOM     14  C   UNL     1      -3.894  13.418  23.967  0.00  0.00    +0.000 A 
ATOM     15  C   UNL     1      -5.179  12.971  23.611  0.00  0.00    +0.000 A 
ATOM     16  C   UNL     1      -6.333  12.585  24.347  0.00  0.00    +0.000 A 
ATOM     17  C   UNL     1      -7.322  12.268  23.444  0.00  0.00    +0.000 A 
ATOM     18  N   UNL     1      -6.800  12.409  22.185  0.00  0.00    +0.000 N 
ATOM     19  C   UNL     1      -5.489  12.826  22.258  0.00  0.00    +0.000 A 
ATOM     20  C   UNL     1      -4.563  13.093  21.241  0.00  0.00    +0.000 A 
ATOM     21  H   UNL     1      -7.311  12.260  21.326  0.00  0.00    +0.000 HD
ENDBRANCH  10  12
BRANCH   5  22
ATOM     22  C   UNL     1       1.825   9.311  18.953  0.00  0.00    +0.000 A 
ATOM     23  C   UNL     1       2.221   8.462  17.916  0.00  0.00    +0.000 A 
ATOM     24  C   UNL     1       2.259   7.074  18.117  0.00  0.00    +0.000 A 
ATOM     25  C   UNL     1       1.896   6.496  19.350  0.00  0.00    +0.000 A 
ATOM     26  C   UNL     1       1.530   7.374  20.384  0.00  0.00    +0.000 A 
ATOM     27  C   UNL     1       1.540   8.759  20.203  0.00  0.00    +0.000 A 
BRANCH  25  28
ATOM     28  C   UNL     1       1.950   5.034  19.574  0.00  0.00    +0.000 A 
ATOM     29  C   UNL     1       2.400   4.511  20.802  0.00  0.00    +0.000 A 
ATOM     30  C   UNL     1       2.430   3.133  21.046  0.00  0.00    +0.000 A 
ATOM     31  C   UNL     1       2.001   2.240  20.070  0.00  0.00    +0.000 A 
ATOM     32  C   UNL     1       1.547   2.726  18.848  0.00  0.00    +0.000 A 
ATOM     33  C   UNL     1       1.530   4.101  18.608  0.00  0.00    +0.000 A 
ATOM     34  F   UNL     1       1.092   4.512  17.406  0.00  0.00    +0.000 F 
ENDBRANCH  25  28
ENDBRANCH   5  22
TORSDOF 3
ENDMDL
MODEL 4
REMARK VINA RESULT:      -8.4      4.036      7.175
REMARK  Name = 
REMARK  4 active torsions:
REMARK  status: ('A' for Active; 'I' for Inactive)
REMARK    1  A    between atoms: C_1  and  C_2
REMARK    2  A    between atoms: C_5  and  C_7
REMARK    3  A    between atoms: C_10  and  C_11
REMARK    4  A    between atoms: C_23  and  C_25
REMARK                            x       y       z     vdW  Elec       q    Type
REMARK                         _______ _______ _______ _____ _____    ______ ____
ROOT
ATOM      1  C   UNL     1      -2.170  10.959  18.688  0.00  0.00    +0.000 C 
ATOM      2  C   UNL     1      -1.495  11.598  19.901  0.00  0.00    +0.000 C 
ATOM      3  C   UNL     1      -0.096  11.012  20.135  0.00  0.00    +0.000 C 
ATOM      4  N   UNL     1       0.885  11.459  19.137  0.00  0.00    +0.000 N 
ATOM      5  C   UNL     1       1.823  10.657  18.485  0.00  0.00    +0.000 C 
ATOM      6  O   UNL     1       2.574  11.094  17.614  0.00  0.00    +0.000 OA
ATOM      7  C   UNL     1       0.935  12.919  18.945  0.00  0.00    +0.000 C 
ATOM      8  C   UNL     1      -0.459  13.554  18.799  0.00  0.00    +0.000 C 
ATOM      9  N   UNL     1      -1.409  13.067  19.812  0.00  0.00    +0.000 N 
ATOM     10  C   UNL     1      -2.253  13.992  20.435  0.00  0.00    +0.000 C 
ATOM     11  O   UNL     1      -2.257  15.182  20.123  0.00  0.00    +0.000 OA
ENDROOT
BRANCH  10  12
ATOM     12  C   UNL     1      -3.204  13.569  21.507  0.00  0.00    +0.000 A 
ATOM     13  C   UNL     1      -2.701  13.451  22.808  0.00  0.00    +0.000 A 
ATOM     14  C   UNL     1      -3.535  13.093  23.878  0.00  0.00    +0.000 A 
ATOM     15  C   UNL     1      -4.907  12.894  23.641  0.00  0.00    +0.000 A 
ATOM     16  C   UNL     1      -6.020  12.589  24.471  0.00  0.00    +0.000 A 
ATOM     17  C   UNL     1      -7.141  12.547  23.673  0.00  0.00    +0.000 A 
ATOM     18  N   UNL     1      -6.744  12.774  22.382  0.00  0.00    +0.000 N 
ATOM     19  C   UNL     1      -5.382  12.979  22.332  0.00  0.00    +0.000 A 
ATOM     20  C   UNL     1      -4.542  13.238  21.241  0.00  0.00    +0.000 A 
ATOM     21  H   UNL     1      -7.363  12.819  21.584  0.00  0.00    +0.000 HD
ENDBRANCH  10  12
BRANCH   5  22
ATOM     22  C   UNL     1       1.918   9.202  18.798  0.00  0.00    +0.000 A 
ATOM     23  C   UNL     1       1.608   8.772  20.091  0.00  0.00    +0.000 A 
ATOM     24  C   UNL     1       1.709   7.412  20.426  0.00  0.00    +0.000 A 
ATOM     25  C   UNL     1       2.130   6.451  19.485  0.00  0.00    +0.000 A 
ATOM     26  C   UNL     1       2.407   6.906  18.186  0.00  0.00    +0.000 A 
ATOM     27  C   UNL     1       2.257   8.250  17.835  0.00  0.00    +0.000 A 
BRANCH  25  28
ATOM     28  C   UNL     1       2.223   5.013  19.826  0.00  0.00    +0.000 A 
ATOM     29  C   UNL     1       1.076   4.287  20.198  0.00  0.00    +0.000 A 
ATOM     30  C   UNL     1       1.136   2.920  20.495  0.00  0.00    +0.000 A 
ATOM     31  C   UNL     1       2.348   2.240  20.418  0.00  0.00    +0.000 A 
ATOM     32  C   UNL     1       3.498   2.930  20.050  0.00  0.00    +0.000 A 
ATOM     33  C   UNL     1       3.432   4.295  19.766  0.00  0.00    +0.000 A 
ATOM     34  F   UNL     1       4.576   4.911  19.428  0.00  0.00    +0.000 F 
ENDBRANCH  25  28
ENDBRANCH   5  22
TORSDOF 3
ENDMDL
MODEL 5
REMARK VINA RESULT:      -8.3      1.258      1.972
REMARK  Name = 
REMARK  4 active torsions:
REMARK  status: ('A' for Active; 'I' for Inactive)
REMARK    1  A    between atoms: C_1  and  C_2
REMARK    2  A    between atoms: C_5  and  C_7
REMARK    3  A    between atoms: C_10  and  C_11
REMARK    4  A    between atoms: C_23  and  C_25
REMARK                            x       y       z     vdW  Elec       q    Type
REMARK                         _______ _______ _______ _____ _____    ______ ____
ROOT
ATOM      1  C   UNL     1       2.979  13.625  21.009  0.00  0.00    +0.000 C 
ATOM      2  C   UNL     1       3.137  13.855  19.506  0.00  0.00    +0.000 C 
ATOM      3  C   UNL     1       2.501  12.716  18.697  0.00  0.00    +0.000 C 
ATOM      4  N   UNL     1       1.033  12.748  18.722  0.00  0.00    +0.000 N 
ATOM      5  C   UNL     1       0.186  11.655  18.912  0.00  0.00    +0.000 C 
ATOM      6  O   UNL     1      -1.037  11.771  18.981  0.00  0.00    +0.000 OA
ATOM      7  C   UNL     1       0.447  14.054  18.372  0.00  0.00    +0.000 C 
ATOM      8  C   UNL     1       1.124  15.231  19.097  0.00  0.00    +0.000 C 
ATOM      9  N   UNL     1       2.593  15.148  19.055  0.00  0.00    +0.000 N 
ATOM     10  C   UNL     1       3.320  16.313  18.793  0.00  0.00    +0.000 C 
ATOM     11  O   UNL     1       2.770  17.405  18.650  0.00  0.00    +0.000 OA
ENDROOT
BRANCH  10  12
ATOM     12  C   UNL     1       4.810  16.287  18.687  0.00  0.00    +0.000 A 
ATOM     13  C   UNL     1       5.387  15.262  17.928  0.00  0.00    +0.000 A 
ATOM     14  C   UNL     1       6.776  15.185  17.751  0.00  0.00    +0.000 A 
ATOM     15  C   UNL     1       7.595  16.183  18.309  0.00  0.00    +0.000 A 
ATOM     16  C   UNL     1       8.992  16.446  18.282  0.00  0.00    +0.000 A 
ATOM     17  C   UNL     1       9.216  17.603  18.994  0.00  0.00    +0.000 A 
ATOM     18  N   UNL     1       8.011  18.030  19.487  0.00  0.00    +0.000 N 
ATOM     19  C   UNL     1       7.006  17.175  19.093  0.00  0.00    +0.000 A 
ATOM     20  C   UNL     1       5.630  17.206  19.360  0.00  0.00    +0.000 A 
ATOM     21  H   UNL     1       7.873  18.869  20.034  0.00  0.00    +0.000 HD
ENDBRANCH  10  12
BRANCH   5  22
ATOM     22  C   UNL     1       0.752  10.286  19.085  0.00  0.00    +0.000 A 
ATOM     23  C   UNL     1       0.780   9.728  20.366  0.00  0.00    +0.000 A 
ATOM     24  C   UNL     1       1.326   8.450  20.567  0.00  0.00    +0.000 A 
ATOM     25  C   UNL     1       1.865   7.703  19.501  0.00  0.00    +0.000 A 
ATOM     26  C   UNL     1       1.799   8.275  18.220  0.00  0.00    +0.000 A 
ATOM     27  C   UNL     1       1.209   9.524  18.008  0.00  0.00    +0.000 A 
BRANCH  25  28
ATOM     28  C   UNL     1       2.429   6.348  19.703  0.00  0.00    +0.000 A 
ATOM     29  C   UNL     1       1.821   5.443  20.593  0.00  0.00    +0.000 A 
ATOM     30  C   UNL     1       2.319   4.147  20.776  0.00  0.00    +0.000 A 
ATOM     31  C   UNL     1       3.435   3.720  20.065  0.00  0.00    +0.000 A 
ATOM     32  C   UNL     1       4.056   4.591  19.175  0.00  0.00    +0.000 A 
ATOM     33  C   UNL     1       3.560   5.884  19.005  0.00  0.00    +0.000 A 
ATOM     34  F   UNL     1       4.206   6.684  18.142  0.00  0.00    +0.000 F 
ENDBRANCH  25  28
ENDBRANCH   5  22
TORSDOF 3
ENDMDL
MODEL 6
REMARK VINA RESULT:      -8.2      3.899      7.001
REMARK  Name = 
REMARK  4 active torsions:
REMARK  status: ('A' for Active; 'I' for Inactive)
REMARK    1  A    between atoms: C_1  and  C_2
REMARK    2  A    between atoms: C_5  and  C_7
REMARK    3  A    between atoms: C_10  and  C_11
REMARK    4  A    between atoms: C_23  and  C_25
REMARK                            x       y       z     vdW  Elec       q    Type
REMARK                         _______ _______ _______ _____ _____    ______ ____
ROOT
ATOM      1  C   UNL     1      -2.025  10.810  18.704  0.00  0.00    +0.000 C 
ATOM      2  C   UNL     1      -1.310  11.474  19.881  0.00  0.00    +0.000 C 
ATOM      3  C   UNL     1       0.104  10.906  20.066  0.00  0.00    +0.000 C 
ATOM      4  N   UNL     1       1.039  11.350  19.024  0.00  0.00    +0.000 N 
ATOM      5  C   UNL     1       1.960  10.550  18.346  0.00  0.00    +0.000 C 
ATOM      6  O   UNL     1       2.670  10.983  17.440  0.00  0.00    +0.000 OA
ATOM      7  C   UNL     1       1.064  12.807  18.811  0.00  0.00    +0.000 C 
ATOM      8  C   UNL     1      -0.342  13.425  18.712  0.00  0.00    +0.000 C 
ATOM      9  N   UNL     1      -1.245  12.942  19.768  0.00  0.00    +0.000 N 
ATOM     10  C   UNL     1      -2.074  13.865  20.412  0.00  0.00    +0.000 C 
ATOM     11  O   UNL     1      -2.105  15.051  20.084  0.00  0.00    +0.000 OA
ENDROOT
BRANCH  10  12
ATOM     12  C   UNL     1      -2.976  13.447  21.527  0.00  0.00    +0.000 A 
ATOM     13  C   UNL     1      -2.425  13.368  22.811  0.00  0.00    +0.000 A 
ATOM     14  C   UNL     1      -3.211  13.016  23.917  0.00  0.00    +0.000 A 
ATOM     15  C   UNL     1      -4.587  12.784  23.735  0.00  0.00    +0.000 A 
ATOM     16  C   UNL     1      -5.663  12.475  24.612  0.00  0.00    +0.000 A 
ATOM     17  C   UNL     1      -6.811  12.394  23.856  0.00  0.00    +0.000 A 
ATOM     18  N   UNL     1      -6.465  12.601  22.547  0.00  0.00    +0.000 N 
ATOM     19  C   UNL     1      -5.111  12.831  22.443  0.00  0.00    +0.000 A 
ATOM     20  C   UNL     1      -4.316  13.084  21.317  0.00  0.00    +0.000 A 
ATOM     21  H   UNL     1      -7.114  12.617  21.772  0.00  0.00    +0.000 HD
ENDBRANCH  10  12
BRANCH   5  22
ATOM     22  C   UNL     1       2.084   9.100  18.675  0.00  0.00    +0.000 A 
ATOM     23  C   UNL     1       1.690   8.663  19.942  0.00  0.00    +0.000 A 
ATOM     24  C   UNL     1       1.815   7.309  20.292  0.00  0.00    +0.000 A 
ATOM     25  C   UNL     1       2.344   6.362  19.394  0.00  0.00    +0.000 A 
ATOM     26  C   UNL     1       2.706   6.822  18.117  0.00  0.00    +0.000 A 
ATOM     27  C   UNL     1       2.535   8.158  17.748  0.00  0.00    +0.000 A 
BRANCH  25  28
ATOM     28  C   UNL     1       2.465   4.929  19.750  0.00  0.00    +0.000 A 
ATOM     29  C   UNL     1       3.676   4.239  19.553  0.00  0.00    +0.000 A 
ATOM     30  C   UNL     1       3.821   2.894  19.910  0.00  0.00    +0.000 A 
ATOM     31  C   UNL     1       2.758   2.204  20.484  0.00  0.00    +0.000 A 
ATOM     32  C   UNL     1       1.550   2.859  20.695  0.00  0.00    +0.000 A 
ATOM     33  C   UNL     1       1.409   4.198  20.326  0.00  0.00    +0.000 A 
ATOM     34  F   UNL     1       0.216   4.776  20.542  0.00  0.00    +0.000 F 
ENDBRANCH  25  28
ENDBRANCH   5  22
TORSDOF 3
ENDMDL
MODEL 7
REMARK VINA RESULT:      -8.2      0.810      1.248
REMARK  Name = 
REMARK  4 active torsions:
REMARK  status: ('A' for Active; 'I' for Inactive)
REMARK    1  A    between atoms: C_1  and  C_2
REMARK    2  A    between atoms: C_5  and  C_7
REMARK    3  A    between atoms: C_10  and  C_11
REMARK    4  A    between atoms: C_23  and  C_25
REMARK                            x       y       z     vdW  Elec       q    Type
REMARK                         _______ _______ _______ _____ _____    ______ ____
ROOT
ATOM      1  C   UNL     1       2.453  13.304  21.031  0.00  0.00    +0.000 C 
ATOM      2  C   UNL     1       2.655  13.585  19.542  0.00  0.00    +0.000 C 
ATOM      3  C   UNL     1       2.224  12.388  18.684  0.00  0.00    +0.000 C 
ATOM      4  N   UNL     1       0.766  12.219  18.630  0.00  0.00    +0.000 N 
ATOM      5  C   UNL     1       0.069  11.016  18.759  0.00  0.00    +0.000 C 
ATOM      6  O   UNL     1      -1.160  10.962  18.764  0.00  0.00    +0.000 OA
ATOM      7  C   UNL     1       0.026  13.440  18.268  0.00  0.00    +0.000 C 
ATOM      8  C   UNL     1       0.496  14.682  19.044  0.00  0.00    +0.000 C 
ATOM      9  N   UNL     1       1.963  14.801  19.081  0.00  0.00    +0.000 N 
ATOM     10  C   UNL     1       2.535  16.060  18.875  0.00  0.00    +0.000 C 
ATOM     11  O   UNL     1       1.848  17.070  18.717  0.00  0.00    +0.000 OA
ENDROOT
BRANCH  10  12
ATOM     12  C   UNL     1       4.018  16.239  18.848  0.00  0.00    +0.000 A 
ATOM     13  C   UNL     1       4.747  15.468  17.937  0.00  0.00    +0.000 A 
ATOM     14  C   UNL     1       6.139  15.600  17.825  0.00  0.00    +0.000 A 
ATOM     15  C   UNL     1       6.802  16.558  18.614  0.00  0.00    +0.000 A 
ATOM     16  C   UNL     1       8.152  16.991  18.716  0.00  0.00    +0.000 A 
ATOM     17  C   UNL     1       8.200  17.999  19.653  0.00  0.00    +0.000 A 
ATOM     18  N   UNL     1       6.936  18.166  20.153  0.00  0.00    +0.000 N 
ATOM     19  C   UNL     1       6.064  17.291  19.543  0.00  0.00    +0.000 A 
ATOM     20  C   UNL     1       4.689  17.098  19.734  0.00  0.00    +0.000 A 
ATOM     21  H   UNL     1       6.672  18.854  20.845  0.00  0.00    +0.000 HD
ENDBRANCH  10  12
BRANCH   5  22
ATOM     22  C   UNL     1       0.808   9.734  18.944  0.00  0.00    +0.000 A 
ATOM     23  C   UNL     1       1.377   9.120  17.825  0.00  0.00    +0.000 A 
ATOM     24  C   UNL     1       2.059   7.901  17.960  0.00  0.00    +0.000 A 
ATOM     25  C   UNL     1       2.182   7.259  19.209  0.00  0.00    +0.000 A 
ATOM     26  C   UNL     1       1.626   7.911  20.321  0.00  0.00    +0.000 A 
ATOM     27  C   UNL     1       0.992   9.150  20.199  0.00  0.00    +0.000 A 
BRANCH  25  28
ATOM     28  C   UNL     1       2.914   5.981  19.362  0.00  0.00    +0.000 A 
ATOM     29  C   UNL     1       4.241   5.854  18.907  0.00  0.00    +0.000 A 
ATOM     30  C   UNL     1       4.961   4.665  19.069  0.00  0.00    +0.000 A 
ATOM     31  C   UNL     1       4.376   3.572  19.700  0.00  0.00    +0.000 A 
ATOM     32  C   UNL     1       3.067   3.668  20.163  0.00  0.00    +0.000 A 
ATOM     33  C   UNL     1       2.351   4.853  19.989  0.00  0.00    +0.000 A 
ATOM     34  F   UNL     1       1.089   4.885  20.445  0.00  0.00    +0.000 F 
ENDBRANCH  25  28
ENDBRANCH   5  22
TORSDOF 3
ENDMDL
MODEL 8
REMARK VINA RESULT:      -8.1      1.036      1.633
REMARK  Name = 
REMARK  4 active torsions:
REMARK  status: ('A' for Active; 'I' for Inactive)
REMARK    1  A    between atoms: C_1  and  C_2
REMARK    2  A    between atoms: C_5  and  C_7
REMARK    3  A    between atoms: C_10  and  C_11
REMARK    4  A    between atoms: C_23  and  C_25
REMARK                            x       y       z     vdW  Elec       q    Type
REMARK                         _______ _______ _______ _____ _____    ______ ____
ROOT
ATOM      1  C   UNL     1       2.994  13.601  21.071  0.00  0.00    +0.000 C 
ATOM      2  C   UNL     1       3.135  13.911  19.581  0.00  0.00    +0.000 C 
ATOM      3  C   UNL     1       2.529  12.794  18.719  0.00  0.00    +0.000 C 
ATOM      4  N   UNL     1       1.061  12.778  18.753  0.00  0.00    +0.000 N 
ATOM      5  C   UNL     1       0.251  11.650  18.893  0.00  0.00    +0.000 C 
ATOM      6  O   UNL     1      -0.975  11.723  18.973  0.00  0.00    +0.000 OA
ATOM      7  C   UNL     1       0.432  14.080  18.473  0.00  0.00    +0.000 C 
ATOM      8  C   UNL     1       1.076  15.240  19.252  0.00  0.00    +0.000 C 
ATOM      9  N   UNL     1       2.547  15.207  19.199  0.00  0.00    +0.000 N 
ATOM     10  C   UNL     1       3.234  16.406  18.992  0.00  0.00    +0.000 C 
ATOM     11  O   UNL     1       2.649  17.486  18.906  0.00  0.00    +0.000 OA
ENDROOT
BRANCH  10  12
ATOM     12  C   UNL     1       4.724  16.433  18.877  0.00  0.00    +0.000 A 
ATOM     13  C   UNL     1       5.325  15.486  18.040  0.00  0.00    +0.000 A 
ATOM     14  C   UNL     1       6.715  15.465  17.850  0.00  0.00    +0.000 A 
ATOM     15  C   UNL     1       7.508  16.442  18.479  0.00  0.00    +0.000 A 
ATOM     16  C   UNL     1       8.896  16.748  18.465  0.00  0.00    +0.000 A 
ATOM     17  C   UNL     1       9.091  17.854  19.261  0.00  0.00    +0.000 A 
ATOM     18  N   UNL     1       7.878  18.206  19.792  0.00  0.00    +0.000 N 
ATOM     19  C   UNL     1       6.895  17.353  19.339  0.00  0.00    +0.000 A 
ATOM     20  C   UNL     1       5.521  17.322  19.614  0.00  0.00    +0.000 A 
ATOM     21  H   UNL     1       7.719  18.997  20.401  0.00  0.00    +0.000 HD
ENDBRANCH  10  12
BRANCH   5  22
ATOM     22  C   UNL     1       0.860  10.293  18.994  0.00  0.00    +0.000 A 
ATOM     23  C   UNL     1       0.874   9.653  20.236  0.00  0.00    +0.000 A 
ATOM     24  C   UNL     1       1.461   8.385  20.370  0.00  0.00    +0.000 A 
ATOM     25  C   UNL     1       2.055   7.728  19.275  0.00  0.00    +0.000 A 
ATOM     26  C   UNL     1       2.003   8.380  18.032  0.00  0.00    +0.000 A 
ATOM     27  C   UNL     1       1.374   9.619  17.883  0.00  0.00    +0.000 A 
BRANCH  25  28
ATOM     28  C   UNL     1       2.662   6.383  19.405  0.00  0.00    +0.000 A 
ATOM     29  C   UNL     1       3.880   6.080  18.768  0.00  0.00    +0.000 A 
ATOM     30  C   UNL     1       4.486   4.825  18.902  0.00  0.00    +0.000 A 
ATOM     31  C   UNL     1       3.893   3.842  19.687  0.00  0.00    +0.000 A 
ATOM     32  C   UNL     1       2.690   4.112  20.331  0.00  0.00    +0.000 A 
ATOM     33  C   UNL     1       2.086   5.362  20.184  0.00  0.00    +0.000 A 
ATOM     34  F   UNL     1       0.921   5.563  20.821  0.00  0.00    +0.000 F 
ENDBRANCH  25  28
ENDBRANCH   5  22
TORSDOF 3
ENDMDL
MODEL 9
REMARK VINA RESULT:      -8.1      4.087      7.166
REMARK  Name = 
REMARK  4 active torsions:
REMARK  status: ('A' for Active; 'I' for Inactive)
REMARK    1  A    between atoms: C_1  and  C_2
REMARK    2  A    between atoms: C_5  and  C_7
REMARK    3  A    between atoms: C_10  and  C_11
REMARK    4  A    between atoms: C_23  and  C_25
REMARK                            x       y       z     vdW  Elec       q    Type
REMARK                         _______ _______ _______ _____ _____    ______ ____
ROOT
ATOM      1  C   UNL     1      -2.177  11.212  18.647  0.00  0.00    +0.000 C 
ATOM      2  C   UNL     1      -1.551  11.720  19.945  0.00  0.00    +0.000 C 
ATOM      3  C   UNL     1      -0.180  11.074  20.195  0.00  0.00    +0.000 C 
ATOM      4  N   UNL     1       0.862  11.578  19.292  0.00  0.00    +0.000 N 
ATOM      5  C   UNL     1       1.812  10.809  18.618  0.00  0.00    +0.000 C 
ATOM      6  O   UNL     1       2.619  11.298  17.828  0.00  0.00    +0.000 OA
ATOM      7  C   UNL     1       0.959  13.046  19.234  0.00  0.00    +0.000 C 
ATOM      8  C   UNL     1      -0.408  13.734  19.077  0.00  0.00    +0.000 C 
ATOM      9  N   UNL     1      -1.422  13.188  19.993  0.00  0.00    +0.000 N 
ATOM     10  C   UNL     1      -2.274  14.079  20.653  0.00  0.00    +0.000 C 
ATOM     11  O   UNL     1      -2.231  15.292  20.450  0.00  0.00    +0.000 OA
ENDROOT
BRANCH  10  12
ATOM     12  C   UNL     1      -3.290  13.592  21.635  0.00  0.00    +0.000 A 
ATOM     13  C   UNL     1      -2.861  13.353  22.946  0.00  0.00    +0.000 A 
ATOM     14  C   UNL     1      -3.759  12.927  23.936  0.00  0.00    +0.000 A 
ATOM     15  C   UNL     1      -5.120  12.783  23.611  0.00  0.00    +0.000 A 
ATOM     16  C   UNL     1      -6.283  12.438  24.353  0.00  0.00    +0.000 A 
ATOM     17  C   UNL     1      -7.359  12.491  23.496  0.00  0.00    +0.000 A 
ATOM     18  N   UNL     1      -6.888  12.816  22.252  0.00  0.00    +0.000 N 
ATOM     19  C   UNL     1      -5.522  12.989  22.291  0.00  0.00    +0.000 A 
ATOM     20  C   UNL     1      -4.618  13.318  21.272  0.00  0.00    +0.000 A 
ATOM     21  H   UNL     1      -7.462  12.943  21.429  0.00  0.00    +0.000 HD
ENDBRANCH  10  12
BRANCH   5  22
ATOM     22  C   UNL     1       1.853   9.329  18.804  0.00  0.00    +0.000 A 
ATOM     23  C   UNL     1       2.241   8.527  17.727  0.00  0.00    +0.000 A 
ATOM     24  C   UNL     1       2.268   7.130  17.862  0.00  0.00    +0.000 A 
ATOM     25  C   UNL     1       1.902   6.499  19.067  0.00  0.00    +0.000 A 
ATOM     26  C   UNL     1       1.544   7.329  20.142  0.00  0.00    +0.000 A 
ATOM     27  C   UNL     1       1.566   8.721  20.028  0.00  0.00    +0.000 A 
BRANCH  25  28
ATOM     28  C   UNL     1       1.944   5.026  19.222  0.00  0.00    +0.000 A 
ATOM     29  C   UNL     1       1.744   4.181  18.113  0.00  0.00    +0.000 A 
ATOM     30  C   UNL     1       1.809   2.788  18.231  0.00  0.00    +0.000 A 
ATOM     31  C   UNL     1       2.086   2.202  19.463  0.00  0.00    +0.000 A 
ATOM     32  C   UNL     1       2.291   3.011  20.576  0.00  0.00    +0.000 A 
ATOM     33  C   UNL     1       2.214   4.399  20.453  0.00  0.00    +0.000 A 
ATOM     34  F   UNL     1       2.409   5.129  21.563  0.00  0.00    +0.000 F 
ENDBRANCH  25  28
ENDBRANCH   5  22
TORSDOF 3
ENDMDL
