MODEL 1
REMARK VINA RESULT:      -6.2      0.000      0.000
REMARK  Name = 
REMARK  11 active torsions:
REMARK  status: ('A' for Active; 'I' for Inactive)
REMARK    1  A    between atoms: C_2  and  C_3
REMARK    2  A    between atoms: C_3  and  N_4
REMARK    3  A    between atoms: N_6  and  C_7
REMARK    4  A    between atoms: C_7  and  C_8
REMARK    5  A    between atoms: C_14  and  C_15
REMARK    6  A    between atoms: C_14  and  C_16
REMARK    7  A    between atoms: C_21  and  O_22
REMARK    8  A    between atoms: O_22  and  C_23
REMARK    9  A    between atoms: C_23  and  C_24
REMARK   10  A    between atoms: C_24  and  O_25
REMARK   11  A    between atoms: O_25  and  C_26
REMARK                            x       y       z     vdW  Elec       q    Type
REMARK                         _______ _______ _______ _____ _____    ______ ____
ROOT
ATOM      1  N   UNL     1      -5.885  13.926  21.335  0.00  0.00    +0.000 N 
ATOM      2  C   UNL     1      -4.580  13.838  21.787  0.00  0.00    +0.000 A 
ATOM      3  N   UNL     1      -4.285  14.450  22.983  0.00  0.00    +0.000 N 
ATOM      4  N   UNL     1      -3.663  13.195  21.121  0.00  0.00    +0.000 NA
ATOM      5  C   UNL     1      -3.987  12.542  19.950  0.00  0.00    +0.000 A 
ATOM      6  C   UNL     1      -5.223  12.550  19.417  0.00  0.00    +0.000 A 
ATOM      7  C   UNL     1      -6.261  13.316  20.161  0.00  0.00    +0.000 A 
ATOM      8  O   UNL     1      -7.415  13.387  19.733  0.00  0.00    +0.000 OA
ATOM      9  C   UNL     1      -5.671  11.838  18.140  0.00  0.00    +0.000 C 
ATOM     10  C   UNL     1      -6.747  10.774  18.477  0.00  0.00    +0.000 C 
ATOM     11  C   UNL     1      -6.230  12.856  17.115  0.00  0.00    +0.000 C 
ATOM     12  C   UNL     1      -4.534  11.089  17.406  0.00  0.00    +0.000 C 
ATOM     13  C   UNL     1      -3.188  11.084  18.056  0.00  0.00    +0.000 A 
ATOM     14  C   UNL     1      -2.194  10.359  17.380  0.00  0.00    +0.000 A 
ATOM     15  C   UNL     1      -0.907  10.285  17.886  0.00  0.00    +0.000 A 
ATOM     16  C   UNL     1      -0.587  10.926  19.077  0.00  0.00    +0.000 A 
ATOM     17  C   UNL     1      -1.586  11.660  19.751  0.00  0.00    +0.000 A 
ATOM     18  C   UNL     1      -2.908  11.760  19.253  0.00  0.00    +0.000 A 
ATOM     19  H   UNL     1      -5.007  14.403  23.688  0.00  0.00    +0.000 HD
ENDROOT
BRANCH   3  20
ATOM     20  C   UNL     1      -2.959  14.592  23.540  0.00  0.00    +0.000 C 
ATOM     21  C   UNL     1      -3.029  14.760  25.048  0.00  0.00    +0.000 C 
ENDBRANCH   3  20
BRANCH   1  22
ATOM     22  C   UNL     1      -6.937  14.681  22.022  0.00  0.00    +0.000 C 
BRANCH  22  24
ATOM     23  C   UNL     1      -7.697  13.865  24.276  0.00  0.00    +0.000 C 
ATOM     24  C   UNL     1      -7.733  13.789  22.938  0.00  0.00    +0.000 C 
ENDBRANCH  22  24
ENDBRANCH   1  22
BRANCH  16  25
ATOM     25  O   UNL     1       0.665  10.892  19.648  0.00  0.00    +0.000 OA
BRANCH  25  26
ATOM     26  C   UNL     1       0.684  10.620  21.057  0.00  0.00    +0.000 C 
BRANCH  26  27
ATOM     27  C   UNL     1       0.615   9.122  21.328  0.00  0.00    +0.000 C 
BRANCH  27  28
ATOM     28  O   UNL     1      -0.479   8.874  22.217  0.00  0.00    +0.000 OA
ATOM     29  C   UNL     1      -0.689   9.956  23.113  0.00  0.00    +0.000 C 
ENDBRANCH  27  28
ENDBRANCH  26  27
ENDBRANCH  25  26
ENDBRANCH  16  25
TORSDOF 7
ENDMDL
MODEL 2
REMARK VINA RESULT:      -6.0      2.297      6.801
REMARK  Name = 
REMARK  11 active torsions:
REMARK  status: ('A' for Active; 'I' for Inactive)
REMARK    1  A    between atoms: C_2  and  C_3
REMARK    2  A    between atoms: C_3  and  N_4
REMARK    3  A    between atoms: N_6  and  C_7
REMARK    4  A    between atoms: C_7  and  C_8
REMARK    5  A    between atoms: C_14  and  C_15
REMARK    6  A    between atoms: C_14  and  C_16
REMARK    7  A    between atoms: C_21  and  O_22
REMARK    8  A    between atoms: O_22  and  C_23
REMARK    9  A    between atoms: C_23  and  C_24
REMARK   10  A    between atoms: C_24  and  O_25
REMARK   11  A    between atoms: O_25  and  C_26
REMARK                            x       y       z     vdW  Elec       q    Type
REMARK                         _______ _______ _______ _____ _____    ______ ____
ROOT
ATOM      1  N   UNL     1      -2.899  10.485  17.578  0.00  0.00    +0.000 N 
ATOM      2  C   UNL     1      -3.928  11.212  18.151  0.00  0.00    +0.000 A 
ATOM      3  N   UNL     1      -5.169  11.112  17.567  0.00  0.00    +0.000 N 
ATOM      4  N   UNL     1      -3.742  11.955  19.205  0.00  0.00    +0.000 NA
ATOM      5  C   UNL     1      -2.503  12.002  19.810  0.00  0.00    +0.000 A 
ATOM      6  C   UNL     1      -1.430  11.332  19.350  0.00  0.00    +0.000 A 
ATOM      7  C   UNL     1      -1.636  10.513  18.123  0.00  0.00    +0.000 A 
ATOM      8  O   UNL     1      -0.701   9.881  17.627  0.00  0.00    +0.000 OA
ATOM      9  C   UNL     1      -0.032  11.312  19.969  0.00  0.00    +0.000 C 
ATOM     10  C   UNL     1       0.327   9.873  20.419  0.00  0.00    +0.000 C 
ATOM     11  C   UNL     1       1.019  11.832  18.957  0.00  0.00    +0.000 C 
ATOM     12  C   UNL     1       0.113  12.208  21.221  0.00  0.00    +0.000 C 
ATOM     13  C   UNL     1      -1.115  12.905  21.709  0.00  0.00    +0.000 A 
ATOM     14  C   UNL     1      -0.950  13.675  22.871  0.00  0.00    +0.000 A 
ATOM     15  C   UNL     1      -2.018  14.368  23.416  0.00  0.00    +0.000 A 
ATOM     16  C   UNL     1      -3.271  14.303  22.817  0.00  0.00    +0.000 A 
ATOM     17  C   UNL     1      -3.433  13.534  21.645  0.00  0.00    +0.000 A 
ATOM     18  C   UNL     1      -2.357  12.821  21.062  0.00  0.00    +0.000 A 
ATOM     19  H   UNL     1      -5.412  10.201  17.207  0.00  0.00    +0.000 HD
ENDROOT
BRANCH   3  20
ATOM     20  C   UNL     1      -6.324  11.904  17.928  0.00  0.00    +0.000 C 
ATOM     21  C   UNL     1      -6.428  13.131  17.040  0.00  0.00    +0.000 C 
ENDBRANCH   3  20
BRANCH   1  22
ATOM     22  C   UNL     1      -3.047   9.678  16.363  0.00  0.00    +0.000 C 
BRANCH  22  24
ATOM     23  C   UNL     1      -3.277  10.118  13.898  0.00  0.00    +0.000 C 
ATOM     24  C   UNL     1      -2.949  10.535  15.130  0.00  0.00    +0.000 C 
ENDBRANCH  22  24
ENDBRANCH   1  22
BRANCH  16  25
ATOM     25  O   UNL     1      -4.382  14.955  23.303  0.00  0.00    +0.000 OA
BRANCH  25  26
ATOM     26  C   UNL     1      -5.614  14.634  22.640  0.00  0.00    +0.000 C 
BRANCH  26  27
ATOM     27  C   UNL     1      -6.563  13.895  23.575  0.00  0.00    +0.000 C 
BRANCH  27  28
ATOM     28  O   UNL     1      -6.531  12.503  23.242  0.00  0.00    +0.000 OA
ATOM     29  C   UNL     1      -7.835  11.942  23.185  0.00  0.00    +0.000 C 
ENDBRANCH  27  28
ENDBRANCH  26  27
ENDBRANCH  25  26
ENDBRANCH  16  25
TORSDOF 7
ENDMDL
MODEL 3
REMARK VINA RESULT:      -6.0      2.251      7.687
REMARK  Name = 
REMARK  11 active torsions:
REMARK  status: ('A' for Active; 'I' for Inactive)
REMARK    1  A    between atoms: C_2  and  C_3
REMARK    2  A    between atoms: C_3  and  N_4
REMARK    3  A    between atoms: N_6  and  C_7
REMARK    4  A    between atoms: C_7  and  C_8
REMARK    5  A    between atoms: C_14  and  C_15
REMARK    6  A    between atoms: C_14  and  C_16
REMARK    7  A    between atoms: C_21  and  O_22
REMARK    8  A    between atoms: O_22  and  C_23
REMARK    9  A    between atoms: C_23  and  C_24
REMARK   10  A    between atoms: C_24  and  O_25
REMARK   11  A    between atoms: O_25  and  C_26
REMARK                            x       y       z     vdW  Elec       q    Type
REMARK                         _______ _______ _______ _____ _____    ______ ____
ROOT
ATOM      1  N   UNL     1      -0.622  11.463  18.878  0.00  0.00    +0.000 N 
ATOM      2  C   UNL     1      -1.801  11.478  18.151  0.00  0.00    +0.000 A 
ATOM      3  N   UNL     1      -1.732  11.093  16.833  0.00  0.00    +0.000 N 
ATOM      4  N   UNL     1      -2.935  11.830  18.687  0.00  0.00    +0.000 NA
ATOM      5  C   UNL     1      -2.997  12.162  20.024  0.00  0.00    +0.000 A 
ATOM      6  C   UNL     1      -1.920  12.175  20.832  0.00  0.00    +0.000 A 
ATOM      7  C   UNL     1      -0.618  11.808  20.209  0.00  0.00    +0.000 A 
ATOM      8  O   UNL     1       0.419  11.811  20.876  0.00  0.00    +0.000 OA
ATOM      9  C   UNL     1      -1.904  12.509  22.324  0.00  0.00    +0.000 C 
ATOM     10  C   UNL     1      -1.438  11.275  23.138  0.00  0.00    +0.000 C 
ATOM     11  C   UNL     1      -0.971  13.714  22.603  0.00  0.00    +0.000 C 
ATOM     12  C   UNL     1      -3.284  12.910  22.894  0.00  0.00    +0.000 C 
ATOM     13  C   UNL     1      -4.452  12.848  21.963  0.00  0.00    +0.000 A 
ATOM     14  C   UNL     1      -5.694  13.179  22.530  0.00  0.00    +0.000 A 
ATOM     15  C   UNL     1      -6.846  13.159  21.763  0.00  0.00    +0.000 A 
ATOM     16  C   UNL     1      -6.786  12.803  20.421  0.00  0.00    +0.000 A 
ATOM     17  C   UNL     1      -5.537  12.479  19.852  0.00  0.00    +0.000 A 
ATOM     18  C   UNL     1      -4.340  12.498  20.609  0.00  0.00    +0.000 A 
ATOM     19  H   UNL     1      -1.090  10.340  16.629  0.00  0.00    +0.000 HD
ENDROOT
BRANCH   3  20
ATOM     20  C   UNL     1      -2.817  11.184  15.882  0.00  0.00    +0.000 C 
ATOM     21  C   UNL     1      -3.008   9.860  15.163  0.00  0.00    +0.000 C 
ENDBRANCH   3  20
BRANCH   1  22
ATOM     22  C   UNL     1       0.684  11.125  18.306  0.00  0.00    +0.000 C 
BRANCH  22  24
ATOM     23  C   UNL     1       1.987   8.986  18.082  0.00  0.00    +0.000 C 
ATOM     24  C   UNL     1       0.817   9.640  18.098  0.00  0.00    +0.000 C 
ENDBRANCH  22  24
ENDBRANCH   1  22
BRANCH  16  25
ATOM     25  O   UNL     1      -7.888  12.751  19.597  0.00  0.00    +0.000 OA
BRANCH  25  26
ATOM     26  C   UNL     1      -7.748  13.446  18.348  0.00  0.00    +0.000 C 
BRANCH  26  27
ATOM     27  C   UNL     1      -7.860  14.953  18.544  0.00  0.00    +0.000 C 
BRANCH  27  28
ATOM     28  O   UNL     1      -6.787  15.581  17.834  0.00  0.00    +0.000 OA
ATOM     29  C   UNL     1      -7.084  15.734  16.453  0.00  0.00    +0.000 C 
ENDBRANCH  27  28
ENDBRANCH  26  27
ENDBRANCH  25  26
ENDBRANCH  16  25
TORSDOF 7
ENDMDL
MODEL 4
REMARK VINA RESULT:      -5.9      7.379     11.929
REMARK  Name = 
REMARK  11 active torsions:
REMARK  status: ('A' for Active; 'I' for Inactive)
REMARK    1  A    between atoms: C_2  and  C_3
REMARK    2  A    between atoms: C_3  and  N_4
REMARK    3  A    between atoms: N_6  and  C_7
REMARK    4  A    between atoms: C_7  and  C_8
REMARK    5  A    between atoms: C_14  and  C_15
REMARK    6  A    between atoms: C_14  and  C_16
REMARK    7  A    between atoms: C_21  and  O_22
REMARK    8  A    between atoms: O_22  and  C_23
REMARK    9  A    between atoms: C_23  and  C_24
REMARK   10  A    between atoms: C_24  and  O_25
REMARK   11  A    between atoms: O_25  and  C_26
REMARK                            x       y       z     vdW  Elec       q    Type
REMARK                         _______ _______ _______ _____ _____    ______ ____
ROOT
ATOM      1  N   UNL     1       6.073   4.949  16.630  0.00  0.00    +0.000 N 
ATOM      2  C   UNL     1       5.923   6.221  17.154  0.00  0.00    +0.000 A 
ATOM      3  N   UNL     1       6.822   7.179  16.747  0.00  0.00    +0.000 N 
ATOM      4  N   UNL     1       4.967   6.513  17.989  0.00  0.00    +0.000 NA
ATOM      5  C   UNL     1       4.040   5.554  18.345  0.00  0.00    +0.000 A 
ATOM      6  C   UNL     1       4.079   4.287  17.894  0.00  0.00    +0.000 A 
ATOM      7  C   UNL     1       5.195   3.945  16.969  0.00  0.00    +0.000 A 
ATOM      8  O   UNL     1       5.313   2.802  16.523  0.00  0.00    +0.000 OA
ATOM      9  C   UNL     1       3.085   3.172  18.221  0.00  0.00    +0.000 C 
ATOM     10  C   UNL     1       2.366   2.708  16.929  0.00  0.00    +0.000 C 
ATOM     11  C   UNL     1       3.809   1.974  18.888  0.00  0.00    +0.000 C 
ATOM     12  C   UNL     1       1.974   3.590  19.211  0.00  0.00    +0.000 C 
ATOM     13  C   UNL     1       1.957   5.018  19.656  0.00  0.00    +0.000 A 
ATOM     14  C   UNL     1       0.908   5.367  20.521  0.00  0.00    +0.000 A 
ATOM     15  C   UNL     1       0.791   6.661  21.000  0.00  0.00    +0.000 A 
ATOM     16  C   UNL     1       1.712   7.631  20.624  0.00  0.00    +0.000 A 
ATOM     17  C   UNL     1       2.769   7.275  19.761  0.00  0.00    +0.000 A 
ATOM     18  C   UNL     1       2.919   5.959  19.260  0.00  0.00    +0.000 A 
ATOM     19  H   UNL     1       7.114   7.124  15.782  0.00  0.00    +0.000 HD
ENDROOT
BRANCH   3  20
ATOM     20  C   UNL     1       6.917   8.515  17.291  0.00  0.00    +0.000 C 
ATOM     21  C   UNL     1       8.243   8.706  18.006  0.00  0.00    +0.000 C 
ENDBRANCH   3  20
BRANCH   1  22
ATOM     22  C   UNL     1       7.163   4.560  15.730  0.00  0.00    +0.000 C 
BRANCH  22  24
ATOM     23  C   UNL     1       6.400   3.905  13.425  0.00  0.00    +0.000 C 
ATOM     24  C   UNL     1       6.805   4.841  14.295  0.00  0.00    +0.000 C 
ENDBRANCH  22  24
ENDBRANCH   1  22
BRANCH  16  25
ATOM     25  O   UNL     1       1.658   8.939  21.050  0.00  0.00    +0.000 OA
BRANCH  25  26
ATOM     26  C   UNL     1       1.220   9.119  22.406  0.00  0.00    +0.000 C 
BRANCH  26  27
ATOM     27  C   UNL     1      -0.183   9.709  22.456  0.00  0.00    +0.000 C 
BRANCH  27  28
ATOM     28  O   UNL     1      -0.074  11.136  22.433  0.00  0.00    +0.000 OA
ATOM     29  C   UNL     1      -1.247  11.765  22.930  0.00  0.00    +0.000 C 
ENDBRANCH  27  28
ENDBRANCH  26  27
ENDBRANCH  25  26
ENDBRANCH  16  25
TORSDOF 7
ENDMDL
MODEL 5
REMARK VINA RESULT:      -5.8      7.398     11.985
REMARK  Name = 
REMARK  11 active torsions:
REMARK  status: ('A' for Active; 'I' for Inactive)
REMARK    1  A    between atoms: C_2  and  C_3
REMARK    2  A    between atoms: C_3  and  N_4
REMARK    3  A    between atoms: N_6  and  C_7
REMARK    4  A    between atoms: C_7  and  C_8
REMARK    5  A    between atoms: C_14  and  C_15
REMARK    6  A    between atoms: C_14  and  C_16
REMARK    7  A    between atoms: C_21  and  O_22
REMARK    8  A    between atoms: O_22  and  C_23
REMARK    9  A    between atoms: C_23  and  C_24
REMARK   10  A    between atoms: C_24  and  O_25
REMARK   11  A    between atoms: O_25  and  C_26
REMARK                            x       y       z     vdW  Elec       q    Type
REMARK                         _______ _______ _______ _____ _____    ______ ____
ROOT
ATOM      1  N   UNL     1       6.095   4.991  16.547  0.00  0.00    +0.000 N 
ATOM      2  C   UNL     1       5.951   6.248  17.110  0.00  0.00    +0.000 A 
ATOM      3  N   UNL     1       6.852   7.215  16.729  0.00  0.00    +0.000 N 
ATOM      4  N   UNL     1       4.999   6.517  17.958  0.00  0.00    +0.000 NA
ATOM      5  C   UNL     1       4.072   5.551  18.289  0.00  0.00    +0.000 A 
ATOM      6  C   UNL     1       4.105   4.297  17.800  0.00  0.00    +0.000 A 
ATOM      7  C   UNL     1       5.215   3.981  16.860  0.00  0.00    +0.000 A 
ATOM      8  O   UNL     1       5.328   2.851  16.380  0.00  0.00    +0.000 OA
ATOM      9  C   UNL     1       3.109   3.176  18.098  0.00  0.00    +0.000 C 
ATOM     10  C   UNL     1       2.383   2.754  16.795  0.00  0.00    +0.000 C 
ATOM     11  C   UNL     1       3.831   1.957  18.725  0.00  0.00    +0.000 C 
ATOM     12  C   UNL     1       2.003   3.568  19.104  0.00  0.00    +0.000 C 
ATOM     13  C   UNL     1       1.992   4.981  19.592  0.00  0.00    +0.000 A 
ATOM     14  C   UNL     1       0.948   5.308  20.472  0.00  0.00    +0.000 A 
ATOM     15  C   UNL     1       0.837   6.586  20.991  0.00  0.00    +0.000 A 
ATOM     16  C   UNL     1       1.760   7.565  20.640  0.00  0.00    +0.000 A 
ATOM     17  C   UNL     1       2.812   7.232  19.762  0.00  0.00    +0.000 A 
ATOM     18  C   UNL     1       2.956   5.931  19.221  0.00  0.00    +0.000 A 
ATOM     19  H   UNL     1       7.139   7.188  15.761  0.00  0.00    +0.000 HD
ENDROOT
BRANCH   3  20
ATOM     20  C   UNL     1       6.953   8.534  17.313  0.00  0.00    +0.000 C 
ATOM     21  C   UNL     1       8.258   8.680  18.075  0.00  0.00    +0.000 C 
ENDBRANCH   3  20
BRANCH   1  22
ATOM     22  C   UNL     1       7.179   4.627  15.631  0.00  0.00    +0.000 C 
BRANCH  22  24
ATOM     23  C   UNL     1       6.496   3.871  13.332  0.00  0.00    +0.000 C 
ATOM     24  C   UNL     1       6.777   4.855  14.199  0.00  0.00    +0.000 C 
ENDBRANCH  22  24
ENDBRANCH   1  22
BRANCH  16  25
ATOM     25  O   UNL     1       1.712   8.860  21.106  0.00  0.00    +0.000 OA
BRANCH  25  26
ATOM     26  C   UNL     1       0.404   9.326  21.471  0.00  0.00    +0.000 C 
BRANCH  26  27
ATOM     27  C   UNL     1      -0.029  10.490  20.588  0.00  0.00    +0.000 C 
BRANCH  27  28
ATOM     28  O   UNL     1      -0.915   9.988  19.582  0.00  0.00    +0.000 OA
ATOM     29  C   UNL     1      -0.462  10.299  18.273  0.00  0.00    +0.000 C 
ENDBRANCH  27  28
ENDBRANCH  26  27
ENDBRANCH  25  26
ENDBRANCH  16  25
TORSDOF 7
ENDMDL
MODEL 6
REMARK VINA RESULT:      -5.6      1.786      6.047
REMARK  Name = 
REMARK  11 active torsions:
REMARK  status: ('A' for Active; 'I' for Inactive)
REMARK    1  A    between atoms: C_2  and  C_3
REMARK    2  A    between atoms: C_3  and  N_4
REMARK    3  A    between atoms: N_6  and  C_7
REMARK    4  A    between atoms: C_7  and  C_8
REMARK    5  A    between atoms: C_14  and  C_15
REMARK    6  A    between atoms: C_14  and  C_16
REMARK    7  A    between atoms: C_21  and  O_22
REMARK    8  A    between atoms: O_22  and  C_23
REMARK    9  A    between atoms: C_23  and  C_24
REMARK   10  A    between atoms: C_24  and  O_25
REMARK   11  A    between atoms: O_25  and  C_26
REMARK                            x       y       z     vdW  Elec       q    Type
REMARK                         _______ _______ _______ _____ _____    ______ ____
ROOT
ATOM      1  N   UNL     1      -0.805  11.536  20.003  0.00  0.00    +0.000 N 
ATOM      2  C   UNL     1      -1.469  12.331  20.922  0.00  0.00    +0.000 A 
ATOM      3  N   UNL     1      -0.737  12.813  21.982  0.00  0.00    +0.000 N 
ATOM      4  N   UNL     1      -2.732  12.626  20.792  0.00  0.00    +0.000 NA
ATOM      5  C   UNL     1      -3.439  12.179  19.695  0.00  0.00    +0.000 A 
ATOM      6  C   UNL     1      -2.899  11.407  18.733  0.00  0.00    +0.000 A 
ATOM      7  C   UNL     1      -1.466  11.041  18.902  0.00  0.00    +0.000 A 
ATOM      8  O   UNL     1      -0.900  10.324  18.075  0.00  0.00    +0.000 OA
ATOM      9  C   UNL     1      -3.603  10.888  17.479  0.00  0.00    +0.000 C 
ATOM     10  C   UNL     1      -2.921  11.464  16.212  0.00  0.00    +0.000 C 
ATOM     11  C   UNL     1      -3.577   9.339  17.441  0.00  0.00    +0.000 C 
ATOM     12  C   UNL     1      -5.095  11.282  17.386  0.00  0.00    +0.000 C 
ATOM     13  C   UNL     1      -5.637  12.166  18.464  0.00  0.00    +0.000 A 
ATOM     14  C   UNL     1      -6.984  12.535  18.321  0.00  0.00    +0.000 A 
ATOM     15  C   UNL     1      -7.595  13.349  19.259  0.00  0.00    +0.000 A 
ATOM     16  C   UNL     1      -6.876  13.817  20.353  0.00  0.00    +0.000 A 
ATOM     17  C   UNL     1      -5.524  13.439  20.497  0.00  0.00    +0.000 A 
ATOM     18  C   UNL     1      -4.875  12.600  19.559  0.00  0.00    +0.000 A 
ATOM     19  H   UNL     1       0.217  13.070  21.774  0.00  0.00    +0.000 HD
ENDROOT
BRANCH   3  20
ATOM     20  C   UNL     1      -1.283  13.530  23.112  0.00  0.00    +0.000 C 
ATOM     21  C   UNL     1      -0.797  14.969  23.115  0.00  0.00    +0.000 C 
ENDBRANCH   3  20
BRANCH   1  22
ATOM     22  C   UNL     1       0.598  11.135  20.134  0.00  0.00    +0.000 C 
BRANCH  22  24
ATOM     23  C   UNL     1       0.843   9.490  22.020  0.00  0.00    +0.000 C 
ATOM     24  C   UNL     1       0.713   9.749  20.711  0.00  0.00    +0.000 C 
ENDBRANCH  22  24
ENDBRANCH   1  22
BRANCH  16  25
ATOM     25  O   UNL     1      -7.410  14.637  21.321  0.00  0.00    +0.000 OA
BRANCH  25  26
ATOM     26  C   UNL     1      -6.825  14.498  22.625  0.00  0.00    +0.000 C 
BRANCH  26  27
ATOM     27  C   UNL     1      -7.901  14.410  23.701  0.00  0.00    +0.000 C 
BRANCH  27  28
ATOM     28  O   UNL     1      -7.917  13.074  24.214  0.00  0.00    +0.000 OA
ATOM     29  C   UNL     1      -6.647  12.447  24.100  0.00  0.00    +0.000 C 
ENDBRANCH  27  28
ENDBRANCH  26  27
ENDBRANCH  25  26
ENDBRANCH  16  25
TORSDOF 7
ENDMDL
MODEL 7
REMARK VINA RESULT:      -5.6      2.624      5.141
REMARK  Name = 
REMARK  11 active torsions:
REMARK  status: ('A' for Active; 'I' for Inactive)
REMARK    1  A    between atoms: C_2  and  C_3
REMARK    2  A    between atoms: C_3  and  N_4
REMARK    3  A    between atoms: N_6  and  C_7
REMARK    4  A    between atoms: C_7  and  C_8
REMARK    5  A    between atoms: C_14  and  C_15
REMARK    6  A    between atoms: C_14  and  C_16
REMARK    7  A    between atoms: C_21  and  O_22
REMARK    8  A    between atoms: O_22  and  C_23
REMARK    9  A    between atoms: C_23  and  C_24
REMARK   10  A    between atoms: C_24  and  O_25
REMARK   11  A    between atoms: O_25  and  C_26
REMARK                            x       y       z     vdW  Elec       q    Type
REMARK                         _______ _______ _______ _____ _____    ______ ____
ROOT
ATOM      1  N   UNL     1      -5.288  11.991  18.079  0.00  0.00    +0.000 N 
ATOM      2  C   UNL     1      -4.239  11.426  17.375  0.00  0.00    +0.000 A 
ATOM      3  N   UNL     1      -4.523  10.897  16.137  0.00  0.00    +0.000 N 
ATOM      4  N   UNL     1      -3.026  11.400  17.850  0.00  0.00    +0.000 NA
ATOM      5  C   UNL     1      -2.746  11.982  19.069  0.00  0.00    +0.000 A 
ATOM      6  C   UNL     1      -3.682  12.568  19.840  0.00  0.00    +0.000 A 
ATOM      7  C   UNL     1      -5.075  12.564  19.311  0.00  0.00    +0.000 A 
ATOM      8  O   UNL     1      -5.993  13.065  19.962  0.00  0.00    +0.000 OA
ATOM      9  C   UNL     1      -3.456  13.252  21.188  0.00  0.00    +0.000 C 
ATOM     10  C   UNL     1      -3.818  14.756  21.086  0.00  0.00    +0.000 C 
ATOM     11  C   UNL     1      -4.303  12.573  22.293  0.00  0.00    +0.000 C 
ATOM     12  C   UNL     1      -1.993  13.190  21.687  0.00  0.00    +0.000 C 
ATOM     13  C   UNL     1      -0.988  12.557  20.779  0.00  0.00    +0.000 A 
ATOM     14  C   UNL     1       0.335  12.558  21.250  0.00  0.00    +0.000 A 
ATOM     15  C   UNL     1       1.352  11.997  20.497  0.00  0.00    +0.000 A 
ATOM     16  C   UNL     1       1.073  11.430  19.259  0.00  0.00    +0.000 A 
ATOM     17  C   UNL     1      -0.258  11.423  18.791  0.00  0.00    +0.000 A 
ATOM     18  C   UNL     1      -1.320  11.983  19.543  0.00  0.00    +0.000 A 
ATOM     19  H   UNL     1      -5.207  11.403  15.593  0.00  0.00    +0.000 HD
ENDROOT
BRANCH   3  20
ATOM     20  C   UNL     1      -3.599  10.140  15.323  0.00  0.00    +0.000 C 
ATOM     21  C   UNL     1      -4.076  10.090  13.883  0.00  0.00    +0.000 C 
ENDBRANCH   3  20
BRANCH   1  22
ATOM     22  C   UNL     1      -6.676  11.997  17.609  0.00  0.00    +0.000 C 
BRANCH  22  24
ATOM     23  C   UNL     1      -7.629  14.291  17.217  0.00  0.00    +0.000 C 
ATOM     24  C   UNL     1      -6.959  13.217  16.774  0.00  0.00    +0.000 C 
ENDBRANCH  22  24
ENDBRANCH   1  22
BRANCH  16  25
ATOM     25  O   UNL     1       2.030  10.862  18.448  0.00  0.00    +0.000 OA
BRANCH  25  26
ATOM     26  C   UNL     1       1.682   9.580  17.902  0.00  0.00    +0.000 C 
BRANCH  26  27
ATOM     27  C   UNL     1       2.033   8.458  18.872  0.00  0.00    +0.000 C 
BRANCH  27  28
ATOM     28  O   UNL     1       2.342   7.285  18.111  0.00  0.00    +0.000 OA
ATOM     29  C   UNL     1       2.614   6.169  18.946  0.00  0.00    +0.000 C 
ENDBRANCH  27  28
ENDBRANCH  26  27
ENDBRANCH  25  26
ENDBRANCH  16  25
TORSDOF 7
ENDMDL
MODEL 8
REMARK VINA RESULT:      -5.6      2.531      7.020
REMARK  Name = 
REMARK  11 active torsions:
REMARK  status: ('A' for Active; 'I' for Inactive)
REMARK    1  A    between atoms: C_2  and  C_3
REMARK    2  A    between atoms: C_3  and  N_4
REMARK    3  A    between atoms: N_6  and  C_7
REMARK    4  A    between atoms: C_7  and  C_8
REMARK    5  A    between atoms: C_14  and  C_15
REMARK    6  A    between atoms: C_14  and  C_16
REMARK    7  A    between atoms: C_21  and  O_22
REMARK    8  A    between atoms: O_22  and  C_23
REMARK    9  A    between atoms: C_23  and  C_24
REMARK   10  A    between atoms: C_24  and  O_25
REMARK   11  A    between atoms: O_25  and  C_26
REMARK                            x       y       z     vdW  Elec       q    Type
REMARK                         _______ _______ _______ _____ _____    ______ ____
ROOT
ATOM      1  N   UNL     1      -2.834  10.551  17.612  0.00  0.00    +0.000 N 
ATOM      2  C   UNL     1      -3.823  11.341  18.173  0.00  0.00    +0.000 A 
ATOM      3  N   UNL     1      -5.073  11.284  17.601  0.00  0.00    +0.000 N 
ATOM      4  N   UNL     1      -3.594  12.101  19.206  0.00  0.00    +0.000 NA
ATOM      5  C   UNL     1      -2.349  12.105  19.801  0.00  0.00    +0.000 A 
ATOM      6  C   UNL     1      -1.313  11.374  19.350  0.00  0.00    +0.000 A 
ATOM      7  C   UNL     1      -1.566  10.534  18.147  0.00  0.00    +0.000 A 
ATOM      8  O   UNL     1      -0.666   9.847  17.661  0.00  0.00    +0.000 OA
ATOM      9  C   UNL     1       0.088  11.304  19.960  0.00  0.00    +0.000 C 
ATOM     10  C   UNL     1       0.383   9.862  20.445  0.00  0.00    +0.000 C 
ATOM     11  C   UNL     1       1.154  11.749  18.927  0.00  0.00    +0.000 C 
ATOM     12  C   UNL     1       0.286  12.225  21.187  0.00  0.00    +0.000 C 
ATOM     13  C   UNL     1      -0.905  12.991  21.666  0.00  0.00    +0.000 A 
ATOM     14  C   UNL     1      -0.694  13.782  22.806  0.00  0.00    +0.000 A 
ATOM     15  C   UNL     1      -1.724  14.538  23.340  0.00  0.00    +0.000 A 
ATOM     16  C   UNL     1      -2.984  14.517  22.753  0.00  0.00    +0.000 A 
ATOM     17  C   UNL     1      -3.190  13.726  21.602  0.00  0.00    +0.000 A 
ATOM     18  C   UNL     1      -2.154  12.949  21.029  0.00  0.00    +0.000 A 
ATOM     19  H   UNL     1      -5.361  10.376  17.267  0.00  0.00    +0.000 HD
ENDROOT
BRANCH   3  20
ATOM     20  C   UNL     1      -6.186  12.138  17.950  0.00  0.00    +0.000 C 
ATOM     21  C   UNL     1      -7.101  11.442  18.942  0.00  0.00    +0.000 C 
ENDBRANCH   3  20
BRANCH   1  22
ATOM     22  C   UNL     1      -3.030   9.722  16.420  0.00  0.00    +0.000 C 
BRANCH  22  24
ATOM     23  C   UNL     1      -3.117  10.061  13.930  0.00  0.00    +0.000 C 
ATOM     24  C   UNL     1      -2.905  10.541  15.164  0.00  0.00    +0.000 C 
ENDBRANCH  22  24
ENDBRANCH   1  22
BRANCH  16  25
ATOM     25  O   UNL     1      -4.059  15.232  23.229  0.00  0.00    +0.000 OA
BRANCH  25  26
ATOM     26  C   UNL     1      -5.346  14.679  22.914  0.00  0.00    +0.000 C 
BRANCH  26  27
ATOM     27  C   UNL     1      -6.440  15.322  23.756  0.00  0.00    +0.000 C 
BRANCH  27  28
ATOM     28  O   UNL     1      -5.962  16.588  24.226  0.00  0.00    +0.000 OA
ATOM     29  C   UNL     1      -6.643  17.672  23.611  0.00  0.00    +0.000 C 
ENDBRANCH  27  28
ENDBRANCH  26  27
ENDBRANCH  25  26
ENDBRANCH  16  25
TORSDOF 7
ENDMDL
MODEL 9
REMARK VINA RESULT:      -5.6      2.760      7.002
REMARK  Name = 
REMARK  11 active torsions:
REMARK  status: ('A' for Active; 'I' for Inactive)
REMARK    1  A    between atoms: C_2  and  C_3
REMARK    2  A    between atoms: C_3  and  N_4
REMARK    3  A    between atoms: N_6  and  C_7
REMARK    4  A    between atoms: C_7  and  C_8
REMARK    5  A    between atoms: C_14  and  C_15
REMARK    6  A    between atoms: C_14  and  C_16
REMARK    7  A    between atoms: C_21  and  O_22
REMARK    8  A    between atoms: O_22  and  C_23
REMARK    9  A    between atoms: C_23  and  C_24
REMARK   10  A    between atoms: C_24  and  O_25
REMARK   11  A    between atoms: O_25  and  C_26
REMARK                            x       y       z     vdW  Elec       q    Type
REMARK                         _______ _______ _______ _____ _____    ______ ____
ROOT
ATOM      1  N   UNL     1      -2.908  10.483  17.577  0.00  0.00    +0.000 N 
ATOM      2  C   UNL     1      -3.934  11.220  18.144  0.00  0.00    +0.000 A 
ATOM      3  N   UNL     1      -5.172  11.133  17.551  0.00  0.00    +0.000 N 
ATOM      4  N   UNL     1      -3.749  11.959  19.201  0.00  0.00    +0.000 NA
ATOM      5  C   UNL     1      -2.514  11.993  19.815  0.00  0.00    +0.000 A 
ATOM      6  C   UNL     1      -1.445  11.313  19.361  0.00  0.00    +0.000 A 
ATOM      7  C   UNL     1      -1.649  10.498  18.132  0.00  0.00    +0.000 A 
ATOM      8  O   UNL     1      -0.717   9.859  17.641  0.00  0.00    +0.000 OA
ATOM      9  C   UNL     1      -0.052  11.279  19.991  0.00  0.00    +0.000 C 
ATOM     10  C   UNL     1       0.290   9.836  20.441  0.00  0.00    +0.000 C 
ATOM     11  C   UNL     1       1.013  11.791  18.988  0.00  0.00    +0.000 C 
ATOM     12  C   UNL     1       0.094  12.172  21.245  0.00  0.00    +0.000 C 
ATOM     13  C   UNL     1      -1.132  12.880  21.726  0.00  0.00    +0.000 A 
ATOM     14  C   UNL     1      -0.968  13.647  22.890  0.00  0.00    +0.000 A 
ATOM     15  C   UNL     1      -2.033  14.349  23.428  0.00  0.00    +0.000 A 
ATOM     16  C   UNL     1      -3.282  14.297  22.820  0.00  0.00    +0.000 A 
ATOM     17  C   UNL     1      -3.442  13.532  21.646  0.00  0.00    +0.000 A 
ATOM     18  C   UNL     1      -2.369  12.810  21.069  0.00  0.00    +0.000 A 
ATOM     19  H   UNL     1      -5.421  10.224  17.188  0.00  0.00    +0.000 HD
ENDROOT
BRANCH   3  20
ATOM     20  C   UNL     1      -6.322  11.935  17.905  0.00  0.00    +0.000 C 
ATOM     21  C   UNL     1      -6.481  13.095  16.938  0.00  0.00    +0.000 C 
ENDBRANCH   3  20
BRANCH   1  22
ATOM     22  C   UNL     1      -3.055   9.680  16.361  0.00  0.00    +0.000 C 
BRANCH  22  24
ATOM     23  C   UNL     1      -3.177  10.100  13.884  0.00  0.00    +0.000 C 
ATOM     24  C   UNL     1      -2.939  10.538  15.129  0.00  0.00    +0.000 C 
ENDBRANCH  22  24
ENDBRANCH   1  22
BRANCH  16  25
ATOM     25  O   UNL     1      -4.390  14.959  23.299  0.00  0.00    +0.000 OA
BRANCH  25  26
ATOM     26  C   UNL     1      -4.247  16.384  23.410  0.00  0.00    +0.000 C 
BRANCH  26  27
ATOM     27  C   UNL     1      -4.474  16.847  24.843  0.00  0.00    +0.000 C 
BRANCH  27  28
ATOM     28  O   UNL     1      -3.208  17.204  25.408  0.00  0.00    +0.000 OA
ATOM     29  C   UNL     1      -2.448  18.022  24.530  0.00  0.00    +0.000 C 
ENDBRANCH  27  28
ENDBRANCH  26  27
ENDBRANCH  25  26
ENDBRANCH  16  25
TORSDOF 7
ENDMDL
