MODEL 1
REMARK VINA RESULT:      -7.0      0.000      0.000
REMARK  Name = 
REMARK  11 active torsions:
REMARK  status: ('A' for Active; 'I' for Inactive)
REMARK    1  A    between atoms: C_1  and  C_2
REMARK    2  A    between atoms: C_2  and  C_3
REMARK    3  A    between atoms: C_3  and  C_4
REMARK    4  A    between atoms: C_4  and  C_5
REMARK    5  A    between atoms: C_5  and  N_6
REMARK    6  A    between atoms: C_5  and  P_7
REMARK    7  A    between atoms: P_7  and  O_9
REMARK    8  A    between atoms: P_7  and  C_10
REMARK    9  A    between atoms: C_10  and  O_11
REMARK   10  A    between atoms: C_10  and  C_12
REMARK   11  A    between atoms: C_15  and  O_16
REMARK                            x       y       z     vdW  Elec       q    Type
REMARK                         _______ _______ _______ _____ _____    ______ ____
ROOT
ATOM      1  P   UNL     1       6.442   4.450  16.306  0.00  0.00    +0.000 P 
ATOM      2  O   UNL     1       7.919   4.439  16.771  0.00  0.00    +0.000 OA
ENDROOT
BRANCH   1   3
ATOM      3  O   UNL     1       6.145   6.048  15.936  0.00  0.00    +0.000 OA
ATOM      4  H   UNL     1       6.524   6.313  15.079  0.00  0.00    +0.000 HD
ENDBRANCH   1   3
BRANCH   1   5
ATOM      5  C   UNL     1       7.003   4.242  14.577  0.00  0.00    +0.000 C 
BRANCH   5   6
ATOM      6  N   UNL     1       7.722   5.496  14.244  0.00  0.00    +0.000 NA
ATOM      7  H   UNL     1       7.922   6.031  15.086  0.00  0.00    +0.000 HD
ATOM      8  H   UNL     1       7.136   6.086  13.657  0.00  0.00    +0.000 HD
ENDBRANCH   5   6
BRANCH   5   9
ATOM      9  C   UNL     1       5.838   4.038  13.592  0.00  0.00    +0.000 C 
BRANCH   9  10
ATOM     10  C   UNL     1       6.267   3.507  12.215  0.00  0.00    +0.000 C 
BRANCH  10  12
ATOM     11  C   UNL     1       3.982   3.283  11.183  0.00  0.00    +0.000 C 
ATOM     12  C   UNL     1       5.235   2.549  11.634  0.00  0.00    +0.000 C 
ENDBRANCH  10  12
ENDBRANCH   9  10
ENDBRANCH   5   9
ENDBRANCH   1   5
BRANCH   1  13
ATOM     13  C   UNL     1       5.882   4.658  18.036  0.00  0.00    +0.000 C 
BRANCH  13  14
ATOM     14  C   UNL     1       4.496   4.086  18.362  0.00  0.00    +0.000 A 
ATOM     15  C   UNL     1       4.375   3.078  19.340  0.00  0.00    +0.000 A 
ATOM     16  C   UNL     1       3.212   2.306  19.429  0.00  0.00    +0.000 A 
ATOM     17  C   UNL     1       2.162   2.547  18.550  0.00  0.00    +0.000 A 
ATOM     18  C   UNL     1       2.238   3.568  17.610  0.00  0.00    +0.000 A 
ATOM     19  C   UNL     1       3.397   4.343  17.522  0.00  0.00    +0.000 A 
BRANCH  17  20
ATOM     20  O   UNL     1       1.040   1.772  18.555  0.00  0.00    +0.000 OA
ATOM     21  H   UNL     1       1.240   0.949  19.033  0.00  0.00    +0.000 HD
ENDBRANCH  17  20
ENDBRANCH  13  14
BRANCH  13  22
ATOM     22  O   UNL     1       5.921   6.047  18.413  0.00  0.00    +0.000 OA
ATOM     23  H   UNL     1       6.881   6.208  18.563  0.00  0.00    +0.000 HD
ENDBRANCH  13  22
ENDBRANCH   1  13
TORSDOF 10
ENDMDL
MODEL 2
REMARK VINA RESULT:      -6.9      0.777      1.377
REMARK  Name = 
REMARK  11 active torsions:
REMARK  status: ('A' for Active; 'I' for Inactive)
REMARK    1  A    between atoms: C_1  and  C_2
REMARK    2  A    between atoms: C_2  and  C_3
REMARK    3  A    between atoms: C_3  and  C_4
REMARK    4  A    between atoms: C_4  and  C_5
REMARK    5  A    between atoms: C_5  and  N_6
REMARK    6  A    between atoms: C_5  and  P_7
REMARK    7  A    between atoms: P_7  and  O_9
REMARK    8  A    between atoms: P_7  and  C_10
REMARK    9  A    between atoms: C_10  and  O_11
REMARK   10  A    between atoms: C_10  and  C_12
REMARK   11  A    between atoms: C_15  and  O_16
REMARK                            x       y       z     vdW  Elec       q    Type
REMARK                         _______ _______ _______ _____ _____    ______ ____
ROOT
ATOM      1  P   UNL     1       6.068   4.641  16.313  0.00  0.00    +0.000 P 
ATOM      2  O   UNL     1       7.490   4.829  16.898  0.00  0.00    +0.000 OA
ENDROOT
BRANCH   1   3
ATOM      3  O   UNL     1       5.691   6.134  15.674  0.00  0.00    +0.000 OA
ATOM      4  H   UNL     1       6.461   6.580  15.279  0.00  0.00    +0.000 HD
ENDBRANCH   1   3
BRANCH   1   5
ATOM      5  C   UNL     1       6.808   4.228  14.691  0.00  0.00    +0.000 C 
BRANCH   5   6
ATOM      6  N   UNL     1       7.645   5.400  14.333  0.00  0.00    +0.000 NA
ATOM      7  H   UNL     1       7.066   6.171  14.009  0.00  0.00    +0.000 HD
ATOM      8  H   UNL     1       8.265   5.159  13.561  0.00  0.00    +0.000 HD
ENDBRANCH   5   6
BRANCH   5   9
ATOM      9  C   UNL     1       5.753   3.993  13.596  0.00  0.00    +0.000 C 
BRANCH   9  10
ATOM     10  C   UNL     1       6.326   3.432  12.285  0.00  0.00    +0.000 C 
BRANCH  10  12
ATOM     11  C   UNL     1       4.048   3.237  11.229  0.00  0.00    +0.000 C 
ATOM     12  C   UNL     1       5.335   2.509  11.586  0.00  0.00    +0.000 C 
ENDBRANCH  10  12
ENDBRANCH   9  10
ENDBRANCH   5   9
ENDBRANCH   1   5
BRANCH   1  13
ATOM     13  C   UNL     1       5.328   5.054  17.935  0.00  0.00    +0.000 C 
BRANCH  13  14
ATOM     14  C   UNL     1       4.064   4.269  18.312  0.00  0.00    +0.000 A 
ATOM     15  C   UNL     1       2.850   4.554  17.656  0.00  0.00    +0.000 A 
ATOM     16  C   UNL     1       1.632   4.116  18.187  0.00  0.00    +0.000 A 
ATOM     17  C   UNL     1       1.625   3.381  19.367  0.00  0.00    +0.000 A 
ATOM     18  C   UNL     1       2.813   3.045  20.005  0.00  0.00    +0.000 A 
ATOM     19  C   UNL     1       4.031   3.478  19.475  0.00  0.00    +0.000 A 
BRANCH  17  20
ATOM     20  O   UNL     1       0.457   2.997  19.957  0.00  0.00    +0.000 OA
ATOM     21  H   UNL     1       0.156   2.176  19.530  0.00  0.00    +0.000 HD
ENDBRANCH  17  20
ENDBRANCH  13  14
BRANCH  13  22
ATOM     22  O   UNL     1       5.051   6.464  18.018  0.00  0.00    +0.000 OA
ATOM     23  H   UNL     1       5.023   6.739  17.072  0.00  0.00    +0.000 HD
ENDBRANCH  13  22
ENDBRANCH   1  13
TORSDOF 10
ENDMDL
MODEL 3
REMARK VINA RESULT:      -6.8      1.888      2.148
REMARK  Name = 
REMARK  11 active torsions:
REMARK  status: ('A' for Active; 'I' for Inactive)
REMARK    1  A    between atoms: C_1  and  C_2
REMARK    2  A    between atoms: C_2  and  C_3
REMARK    3  A    between atoms: C_3  and  C_4
REMARK    4  A    between atoms: C_4  and  C_5
REMARK    5  A    between atoms: C_5  and  N_6
REMARK    6  A    between atoms: C_5  and  P_7
REMARK    7  A    between atoms: P_7  and  O_9
REMARK    8  A    between atoms: P_7  and  C_10
REMARK    9  A    between atoms: C_10  and  O_11
REMARK   10  A    between atoms: C_10  and  C_12
REMARK   11  A    between atoms: C_15  and  O_16
REMARK                            x       y       z     vdW  Elec       q    Type
REMARK                         _______ _______ _______ _____ _____    ______ ____
ROOT
ATOM      1  P   UNL     1       5.414   5.184  17.158  0.00  0.00    +0.000 P 
ATOM      2  O   UNL     1       5.836   4.529  18.497  0.00  0.00    +0.000 OA
ENDROOT
BRANCH   1   3
ATOM      3  O   UNL     1       6.508   6.424  16.950  0.00  0.00    +0.000 OA
ATOM      4  H   UNL     1       6.160   7.144  16.394  0.00  0.00    +0.000 HD
ENDBRANCH   1   3
BRANCH   1   5
ATOM      5  C   UNL     1       6.600   4.104  16.276  0.00  0.00    +0.000 C 
BRANCH   5   6
ATOM      6  N   UNL     1       7.883   4.251  17.008  0.00  0.00    +0.000 NA
ATOM      7  H   UNL     1       7.802   3.884  17.953  0.00  0.00    +0.000 HD
ATOM      8  H   UNL     1       8.118   5.238  17.099  0.00  0.00    +0.000 HD
ENDBRANCH   5   6
BRANCH   5   9
ATOM      9  C   UNL     1       6.795   4.509  14.805  0.00  0.00    +0.000 C 
BRANCH   9  10
ATOM     10  C   UNL     1       5.601   4.171  13.898  0.00  0.00    +0.000 C 
BRANCH  10  12
ATOM     11  C   UNL     1       4.861   3.149  11.720  0.00  0.00    +0.000 C 
ATOM     12  C   UNL     1       6.047   3.508  12.601  0.00  0.00    +0.000 C 
ENDBRANCH  10  12
ENDBRANCH   9  10
ENDBRANCH   5   9
ENDBRANCH   1   5
BRANCH   1  13
ATOM     13  C   UNL     1       4.229   6.263  18.040  0.00  0.00    +0.000 C 
BRANCH  13  14
ATOM     14  C   UNL     1       2.974   5.570  18.589  0.00  0.00    +0.000 A 
ATOM     15  C   UNL     1       2.646   5.708  19.952  0.00  0.00    +0.000 A 
ATOM     16  C   UNL     1       1.728   4.842  20.557  0.00  0.00    +0.000 A 
ATOM     17  C   UNL     1       1.127   3.845  19.799  0.00  0.00    +0.000 A 
ATOM     18  C   UNL     1       1.397   3.720  18.441  0.00  0.00    +0.000 A 
ATOM     19  C   UNL     1       2.310   4.585  17.834  0.00  0.00    +0.000 A 
BRANCH  17  20
ATOM     20  O   UNL     1       0.282   2.935  20.363  0.00  0.00    +0.000 OA
ATOM     21  H   UNL     1      -0.080   3.322  21.179  0.00  0.00    +0.000 HD
ENDBRANCH  17  20
ENDBRANCH  13  14
BRANCH  13  22
ATOM     22  O   UNL     1       3.832   7.365  17.203  0.00  0.00    +0.000 OA
ATOM     23  H   UNL     1       4.681   7.839  17.045  0.00  0.00    +0.000 HD
ENDBRANCH  13  22
ENDBRANCH   1  13
TORSDOF 10
ENDMDL
MODEL 4
REMARK VINA RESULT:      -6.6      1.265      1.816
REMARK  Name = 
REMARK  11 active torsions:
REMARK  status: ('A' for Active; 'I' for Inactive)
REMARK    1  A    between atoms: C_1  and  C_2
REMARK    2  A    between atoms: C_2  and  C_3
REMARK    3  A    between atoms: C_3  and  C_4
REMARK    4  A    between atoms: C_4  and  C_5
REMARK    5  A    between atoms: C_5  and  N_6
REMARK    6  A    between atoms: C_5  and  P_7
REMARK    7  A    between atoms: P_7  and  O_9
REMARK    8  A    between atoms: P_7  and  C_10
REMARK    9  A    between atoms: C_10  and  O_11
REMARK   10  A    between atoms: C_10  and  C_12
REMARK   11  A    between atoms: C_15  and  O_16
REMARK                            x       y       z     vdW  Elec       q    Type
REMARK                         _______ _______ _______ _____ _____    ______ ____
ROOT
ATOM      1  P   UNL     1       5.831   4.890  16.400  0.00  0.00    +0.000 P 
ATOM      2  O   UNL     1       4.802   3.740  16.262  0.00  0.00    +0.000 OA
ENDROOT
BRANCH   1   3
ATOM      3  O   UNL     1       7.083   4.213  17.268  0.00  0.00    +0.000 OA
ATOM      4  H   UNL     1       6.822   3.399  17.734  0.00  0.00    +0.000 HD
ENDBRANCH   1   3
BRANCH   1   5
ATOM      5  C   UNL     1       6.672   4.297  14.887  0.00  0.00    +0.000 C 
BRANCH   5   6
ATOM      6  N   UNL     1       7.585   5.397  14.490  0.00  0.00    +0.000 NA
ATOM      7  H   UNL     1       8.541   5.190  14.771  0.00  0.00    +0.000 HD
ATOM      8  H   UNL     1       7.322   6.256  14.969  0.00  0.00    +0.000 HD
ENDBRANCH   5   6
BRANCH   5   9
ATOM      9  C   UNL     1       5.693   3.998  13.738  0.00  0.00    +0.000 C 
BRANCH   9  10
ATOM     10  C   UNL     1       6.372   3.520  12.445  0.00  0.00    +0.000 C 
BRANCH  10  12
ATOM     11  C   UNL     1       4.182   3.192  11.246  0.00  0.00    +0.000 C 
ATOM     12  C   UNL     1       5.491   2.545  11.674  0.00  0.00    +0.000 C 
ENDBRANCH  10  12
ENDBRANCH   9  10
ENDBRANCH   5   9
ENDBRANCH   1   5
BRANCH   1  13
ATOM     13  C   UNL     1       4.990   5.482  17.914  0.00  0.00    +0.000 C 
BRANCH  13  14
ATOM     14  C   UNL     1       3.868   4.584  18.450  0.00  0.00    +0.000 A 
ATOM     15  C   UNL     1       2.531   4.861  18.102  0.00  0.00    +0.000 A 
ATOM     16  C   UNL     1       1.473   4.292  18.819  0.00  0.00    +0.000 A 
ATOM     17  C   UNL     1       1.748   3.436  19.879  0.00  0.00    +0.000 A 
ATOM     18  C   UNL     1       3.058   3.108  20.210  0.00  0.00    +0.000 A 
ATOM     19  C   UNL     1       4.116   3.671  19.493  0.00  0.00    +0.000 A 
BRANCH  17  20
ATOM     20  O   UNL     1       0.750   2.917  20.650  0.00  0.00    +0.000 OA
ATOM     21  H   UNL     1       1.101   2.141  21.120  0.00  0.00    +0.000 HD
ENDBRANCH  17  20
ENDBRANCH  13  14
BRANCH  13  22
ATOM     22  O   UNL     1       4.477   6.812  17.716  0.00  0.00    +0.000 OA
ATOM     23  H   UNL     1       4.845   7.308  18.484  0.00  0.00    +0.000 HD
ENDBRANCH  13  22
ENDBRANCH   1  13
TORSDOF 10
ENDMDL
MODEL 5
REMARK VINA RESULT:      -6.5      3.317      5.126
REMARK  Name = 
REMARK  11 active torsions:
REMARK  status: ('A' for Active; 'I' for Inactive)
REMARK    1  A    between atoms: C_1  and  C_2
REMARK    2  A    between atoms: C_2  and  C_3
REMARK    3  A    between atoms: C_3  and  C_4
REMARK    4  A    between atoms: C_4  and  C_5
REMARK    5  A    between atoms: C_5  and  N_6
REMARK    6  A    between atoms: C_5  and  P_7
REMARK    7  A    between atoms: P_7  and  O_9
REMARK    8  A    between atoms: P_7  and  C_10
REMARK    9  A    between atoms: C_10  and  O_11
REMARK   10  A    between atoms: C_10  and  C_12
REMARK   11  A    between atoms: C_15  and  O_16
REMARK                            x       y       z     vdW  Elec       q    Type
REMARK                         _______ _______ _______ _____ _____    ______ ____
ROOT
ATOM      1  P   UNL     1       5.295   4.497  17.334  0.00  0.00    +0.000 P 
ATOM      2  O   UNL     1       5.355   3.466  16.180  0.00  0.00    +0.000 OA
ENDROOT
BRANCH   1   3
ATOM      3  O   UNL     1       5.812   3.642  18.669  0.00  0.00    +0.000 OA
ATOM      4  H   UNL     1       6.727   3.322  18.580  0.00  0.00    +0.000 HD
ENDBRANCH   1   3
BRANCH   1   5
ATOM      5  C   UNL     1       7.050   4.916  17.029  0.00  0.00    +0.000 C 
BRANCH   5   6
ATOM      6  N   UNL     1       7.773   4.492  18.253  0.00  0.00    +0.000 NA
ATOM      7  H   UNL     1       8.769   4.392  18.068  0.00  0.00    +0.000 HD
ATOM      8  H   UNL     1       7.441   3.576  18.551  0.00  0.00    +0.000 HD
ENDBRANCH   5   6
BRANCH   5   9
ATOM      9  C   UNL     1       7.273   6.420  16.793  0.00  0.00    +0.000 C 
BRANCH   9  10
ATOM     10  C   UNL     1       7.801   7.176  18.022  0.00  0.00    +0.000 C 
BRANCH  10  12
ATOM     11  C   UNL     1       8.821   9.344  18.795  0.00  0.00    +0.000 C 
ATOM     12  C   UNL     1       7.956   8.666  17.743  0.00  0.00    +0.000 C 
ENDBRANCH  10  12
ENDBRANCH   9  10
ENDBRANCH   5   9
ENDBRANCH   1   5
BRANCH   1  13
ATOM     13  C   UNL     1       3.540   4.078  17.640  0.00  0.00    +0.000 C 
BRANCH  13  14
ATOM     14  C   UNL     1       2.749   5.087  18.482  0.00  0.00    +0.000 A 
ATOM     15  C   UNL     1       2.828   6.460  18.173  0.00  0.00    +0.000 A 
ATOM     16  C   UNL     1       2.408   7.425  19.096  0.00  0.00    +0.000 A 
ATOM     17  C   UNL     1       1.896   7.020  20.324  0.00  0.00    +0.000 A 
ATOM     18  C   UNL     1       1.763   5.671  20.631  0.00  0.00    +0.000 A 
ATOM     19  C   UNL     1       2.178   4.706  19.710  0.00  0.00    +0.000 A 
BRANCH  17  20
ATOM     20  O   UNL     1       1.543   7.926  21.279  0.00  0.00    +0.000 OA
ATOM     21  H   UNL     1       0.735   7.607  21.717  0.00  0.00    +0.000 HD
ENDBRANCH  17  20
ENDBRANCH  13  14
BRANCH  13  22
ATOM     22  O   UNL     1       3.432   2.774  18.239  0.00  0.00    +0.000 OA
ATOM     23  H   UNL     1       2.890   2.945  19.044  0.00  0.00    +0.000 HD
ENDBRANCH  13  22
ENDBRANCH   1  13
TORSDOF 10
ENDMDL
MODEL 6
REMARK VINA RESULT:      -6.5      1.261      1.716
REMARK  Name = 
REMARK  11 active torsions:
REMARK  status: ('A' for Active; 'I' for Inactive)
REMARK    1  A    between atoms: C_1  and  C_2
REMARK    2  A    between atoms: C_2  and  C_3
REMARK    3  A    between atoms: C_3  and  C_4
REMARK    4  A    between atoms: C_4  and  C_5
REMARK    5  A    between atoms: C_5  and  N_6
REMARK    6  A    between atoms: C_5  and  P_7
REMARK    7  A    between atoms: P_7  and  O_9
REMARK    8  A    between atoms: P_7  and  C_10
REMARK    9  A    between atoms: C_10  and  O_11
REMARK   10  A    between atoms: C_10  and  C_12
REMARK   11  A    between atoms: C_15  and  O_16
REMARK                            x       y       z     vdW  Elec       q    Type
REMARK                         _______ _______ _______ _____ _____    ______ ____
ROOT
ATOM      1  P   UNL     1       5.719   4.644  17.003  0.00  0.00    +0.000 P 
ATOM      2  O   UNL     1       7.234   4.522  17.304  0.00  0.00    +0.000 OA
ENDROOT
BRANCH   1   3
ATOM      3  O   UNL     1       5.366   6.239  17.331  0.00  0.00    +0.000 OA
ATOM      4  H   UNL     1       5.896   6.859  16.799  0.00  0.00    +0.000 HD
ENDBRANCH   1   3
BRANCH   1   5
ATOM      5  C   UNL     1       6.117   5.170  15.296  0.00  0.00    +0.000 C 
BRANCH   5   6
ATOM      6  N   UNL     1       5.515   6.518  15.151  0.00  0.00    +0.000 NA
ATOM      7  H   UNL     1       6.094   7.109  14.559  0.00  0.00    +0.000 HD
ATOM      8  H   UNL     1       5.468   6.975  16.060  0.00  0.00    +0.000 HD
ENDBRANCH   5   6
BRANCH   5   9
ATOM      9  C   UNL     1       5.535   4.226  14.230  0.00  0.00    +0.000 C 
BRANCH   9  10
ATOM     10  C   UNL     1       6.490   3.934  13.062  0.00  0.00    +0.000 C 
BRANCH  10  12
ATOM     11  C   UNL     1       4.488   3.389  11.637  0.00  0.00    +0.000 C 
ATOM     12  C   UNL     1       5.881   2.955  12.066  0.00  0.00    +0.000 C 
ENDBRANCH  10  12
ENDBRANCH   9  10
ENDBRANCH   5   9
ENDBRANCH   1   5
BRANCH   1  13
ATOM     13  C   UNL     1       5.321   4.117  18.710  0.00  0.00    +0.000 C 
BRANCH  13  14
ATOM     14  C   UNL     1       3.935   3.490  18.910  0.00  0.00    +0.000 A 
ATOM     15  C   UNL     1       2.967   3.610  17.893  0.00  0.00    +0.000 A 
ATOM     16  C   UNL     1       1.616   3.358  18.159  0.00  0.00    +0.000 A 
ATOM     17  C   UNL     1       1.232   2.973  19.438  0.00  0.00    +0.000 A 
ATOM     18  C   UNL     1       2.174   2.799  20.445  0.00  0.00    +0.000 A 
ATOM     19  C   UNL     1       3.524   3.047  20.181  0.00  0.00    +0.000 A 
BRANCH  17  20
ATOM     20  O   UNL     1      -0.080   2.786  19.759  0.00  0.00    +0.000 OA
ATOM     21  H   UNL     1      -0.620   3.339  19.168  0.00  0.00    +0.000 HD
ENDBRANCH  17  20
ENDBRANCH  13  14
BRANCH  13  22
ATOM     22  O   UNL     1       5.479   5.217  19.625  0.00  0.00    +0.000 OA
ATOM     23  H   UNL     1       6.347   5.027  20.051  0.00  0.00    +0.000 HD
ENDBRANCH  13  22
ENDBRANCH   1  13
TORSDOF 10
ENDMDL
MODEL 7
REMARK VINA RESULT:      -6.5      3.356      5.159
REMARK  Name = 
REMARK  11 active torsions:
REMARK  status: ('A' for Active; 'I' for Inactive)
REMARK    1  A    between atoms: C_1  and  C_2
REMARK    2  A    between atoms: C_2  and  C_3
REMARK    3  A    between atoms: C_3  and  C_4
REMARK    4  A    between atoms: C_4  and  C_5
REMARK    5  A    between atoms: C_5  and  N_6
REMARK    6  A    between atoms: C_5  and  P_7
REMARK    7  A    between atoms: P_7  and  O_9
REMARK    8  A    between atoms: P_7  and  C_10
REMARK    9  A    between atoms: C_10  and  O_11
REMARK   10  A    between atoms: C_10  and  C_12
REMARK   11  A    between atoms: C_15  and  O_16
REMARK                            x       y       z     vdW  Elec       q    Type
REMARK                         _______ _______ _______ _____ _____    ______ ____
ROOT
ATOM      1  P   UNL     1       6.458   5.396  17.266  0.00  0.00    +0.000 P 
ATOM      2  O   UNL     1       7.304   5.154  15.991  0.00  0.00    +0.000 OA
ENDROOT
BRANCH   1   3
ATOM      3  O   UNL     1       6.901   4.156  18.289  0.00  0.00    +0.000 OA
ATOM      4  H   UNL     1       6.180   3.520  18.444  0.00  0.00    +0.000 HD
ENDBRANCH   1   3
BRANCH   1   5
ATOM      5  C   UNL     1       7.839   6.363  17.978  0.00  0.00    +0.000 C 
BRANCH   5   6
ATOM      6  N   UNL     1       7.796   6.092  19.436  0.00  0.00    +0.000 NA
ATOM      7  H   UNL     1       8.720   6.192  19.849  0.00  0.00    +0.000 HD
ATOM      8  H   UNL     1       7.508   5.129  19.601  0.00  0.00    +0.000 HD
ENDBRANCH   5   6
BRANCH   5   9
ATOM      9  C   UNL     1       7.700   7.875  17.729  0.00  0.00    +0.000 C 
BRANCH   9  10
ATOM     10  C   UNL     1       8.612   8.742  18.612  0.00  0.00    +0.000 C 
BRANCH  10  12
ATOM     11  C   UNL     1       9.453  11.074  19.050  0.00  0.00    +0.000 C 
ATOM     12  C   UNL     1       8.745  10.157  18.064  0.00  0.00    +0.000 C 
ENDBRANCH  10  12
ENDBRANCH   9  10
ENDBRANCH   5   9
ENDBRANCH   1   5
BRANCH   1  13
ATOM     13  C   UNL     1       5.078   4.429  16.554  0.00  0.00    +0.000 C 
BRANCH  13  14
ATOM     14  C   UNL     1       3.754   4.483  17.328  0.00  0.00    +0.000 A 
ATOM     15  C   UNL     1       3.566   5.477  18.309  0.00  0.00    +0.000 A 
ATOM     16  C   UNL     1       2.540   5.363  19.254  0.00  0.00    +0.000 A 
ATOM     17  C   UNL     1       1.692   4.261  19.213  0.00  0.00    +0.000 A 
ATOM     18  C   UNL     1       1.827   3.294  18.225  0.00  0.00    +0.000 A 
ATOM     19  C   UNL     1       2.848   3.407  17.278  0.00  0.00    +0.000 A 
BRANCH  17  20
ATOM     20  O   UNL     1       0.726   4.074  20.157  0.00  0.00    +0.000 OA
ATOM     21  H   UNL     1       0.419   4.947  20.456  0.00  0.00    +0.000 HD
ENDBRANCH  17  20
ENDBRANCH  13  14
BRANCH  13  22
ATOM     22  O   UNL     1       5.465   3.054  16.376  0.00  0.00    +0.000 OA
ATOM     23  H   UNL     1       5.467   2.949  15.397  0.00  0.00    +0.000 HD
ENDBRANCH  13  22
ENDBRANCH   1  13
TORSDOF 10
ENDMDL
MODEL 8
REMARK VINA RESULT:      -6.4      3.245      4.561
REMARK  Name = 
REMARK  11 active torsions:
REMARK  status: ('A' for Active; 'I' for Inactive)
REMARK    1  A    between atoms: C_1  and  C_2
REMARK    2  A    between atoms: C_2  and  C_3
REMARK    3  A    between atoms: C_3  and  C_4
REMARK    4  A    between atoms: C_4  and  C_5
REMARK    5  A    between atoms: C_5  and  N_6
REMARK    6  A    between atoms: C_5  and  P_7
REMARK    7  A    between atoms: P_7  and  O_9
REMARK    8  A    between atoms: P_7  and  C_10
REMARK    9  A    between atoms: C_10  and  O_11
REMARK   10  A    between atoms: C_10  and  C_12
REMARK   11  A    between atoms: C_15  and  O_16
REMARK                            x       y       z     vdW  Elec       q    Type
REMARK                         _______ _______ _______ _____ _____    ______ ____
ROOT
ATOM      1  P   UNL     1       4.639   5.029  17.243  0.00  0.00    +0.000 P 
ATOM      2  O   UNL     1       5.850   4.144  16.857  0.00  0.00    +0.000 OA
ENDROOT
BRANCH   1   3
ATOM      3  O   UNL     1       4.892   5.385  18.851  0.00  0.00    +0.000 OA
ATOM      4  H   UNL     1       5.725   5.014  19.193  0.00  0.00    +0.000 HD
ENDBRANCH   1   3
BRANCH   1   5
ATOM      5  C   UNL     1       5.623   6.520  16.846  0.00  0.00    +0.000 C 
BRANCH   5   6
ATOM      6  N   UNL     1       5.305   6.835  15.431  0.00  0.00    +0.000 NA
ATOM      7  H   UNL     1       6.149   7.075  14.917  0.00  0.00    +0.000 HD
ATOM      8  H   UNL     1       4.696   7.650  15.387  0.00  0.00    +0.000 HD
ENDBRANCH   5   6
BRANCH   5   9
ATOM      9  C   UNL     1       7.138   6.293  16.996  0.00  0.00    +0.000 C 
BRANCH   9  10
ATOM     10  C   UNL     1       7.800   7.173  18.068  0.00  0.00    +0.000 C 
BRANCH  10  12
ATOM     11  C   UNL     1       8.730   9.456  18.578  0.00  0.00    +0.000 C 
ATOM     12  C   UNL     1       7.858   8.634  17.641  0.00  0.00    +0.000 C 
ENDBRANCH  10  12
ENDBRANCH   9  10
ENDBRANCH   5   9
ENDBRANCH   1   5
BRANCH   1  13
ATOM     13  C   UNL     1       3.655   3.538  17.640  0.00  0.00    +0.000 C 
BRANCH  13  14
ATOM     14  C   UNL     1       3.014   3.513  19.033  0.00  0.00    +0.000 A 
ATOM     15  C   UNL     1       3.640   2.794  20.071  0.00  0.00    +0.000 A 
ATOM     16  C   UNL     1       2.939   2.467  21.238  0.00  0.00    +0.000 A 
ATOM     17  C   UNL     1       1.614   2.869  21.375  0.00  0.00    +0.000 A 
ATOM     18  C   UNL     1       0.991   3.621  20.386  0.00  0.00    +0.000 A 
ATOM     19  C   UNL     1       1.690   3.952  19.222  0.00  0.00    +0.000 A 
BRANCH  17  20
ATOM     20  O   UNL     1       0.873   2.511  22.461  0.00  0.00    +0.000 OA
ATOM     21  H   UNL     1      -0.009   2.913  22.375  0.00  0.00    +0.000 HD
ENDBRANCH  17  20
ENDBRANCH  13  14
BRANCH  13  22
ATOM     22  O   UNL     1       4.448   2.350  17.462  0.00  0.00    +0.000 OA
ATOM     23  H   UNL     1       4.273   1.842  18.288  0.00  0.00    +0.000 HD
ENDBRANCH  13  22
ENDBRANCH   1  13
TORSDOF 10
ENDMDL
MODEL 9
REMARK VINA RESULT:      -6.4      1.150      1.358
REMARK  Name = 
REMARK  11 active torsions:
REMARK  status: ('A' for Active; 'I' for Inactive)
REMARK    1  A    between atoms: C_1  and  C_2
REMARK    2  A    between atoms: C_2  and  C_3
REMARK    3  A    between atoms: C_3  and  C_4
REMARK    4  A    between atoms: C_4  and  C_5
REMARK    5  A    between atoms: C_5  and  N_6
REMARK    6  A    between atoms: C_5  and  P_7
REMARK    7  A    between atoms: P_7  and  O_9
REMARK    8  A    between atoms: P_7  and  C_10
REMARK    9  A    between atoms: C_10  and  O_11
REMARK   10  A    between atoms: C_10  and  C_12
REMARK   11  A    between atoms: C_15  and  O_16
REMARK                            x       y       z     vdW  Elec       q    Type
REMARK                         _______ _______ _______ _____ _____    ______ ____
ROOT
ATOM      1  P   UNL     1       6.059   4.719  17.010  0.00  0.00    +0.000 P 
ATOM      2  O   UNL     1       5.447   3.396  16.486  0.00  0.00    +0.000 OA
ENDROOT
BRANCH   1   3
ATOM      3  O   UNL     1       7.653   4.339  17.310  0.00  0.00    +0.000 OA
ATOM      4  H   UNL     1       7.781   3.401  17.538  0.00  0.00    +0.000 HD
ENDBRANCH   1   3
BRANCH   1   5
ATOM      5  C   UNL     1       6.569   5.140  15.303  0.00  0.00    +0.000 C 
BRANCH   5   6
ATOM      6  N   UNL     1       5.677   6.251  14.890  0.00  0.00    +0.000 NA
ATOM      7  H   UNL     1       6.205   6.980  14.417  0.00  0.00    +0.000 HD
ATOM      8  H   UNL     1       5.260   6.684  15.713  0.00  0.00    +0.000 HD
ENDBRANCH   5   6
BRANCH   5   9
ATOM      9  C   UNL     1       6.413   3.962  14.326  0.00  0.00    +0.000 C 
BRANCH   9  10
ATOM     10  C   UNL     1       5.282   4.143  13.301  0.00  0.00    +0.000 C 
BRANCH  10  12
ATOM     11  C   UNL     1       4.194   3.172  11.249  0.00  0.00    +0.000 C 
ATOM     12  C   UNL     1       5.449   3.212  12.107  0.00  0.00    +0.000 C 
ENDBRANCH  10  12
ENDBRANCH   9  10
ENDBRANCH   5   9
ENDBRANCH   1   5
BRANCH   1  13
ATOM     13  C   UNL     1       5.549   4.298  18.716  0.00  0.00    +0.000 C 
BRANCH  13  14
ATOM     14  C   UNL     1       4.077   3.904  18.895  0.00  0.00    +0.000 A 
ATOM     15  C   UNL     1       3.758   2.656  19.467  0.00  0.00    +0.000 A 
ATOM     16  C   UNL     1       2.472   2.120  19.343  0.00  0.00    +0.000 A 
ATOM     17  C   UNL     1       1.496   2.837  18.658  0.00  0.00    +0.000 A 
ATOM     18  C   UNL     1       1.773   4.091  18.128  0.00  0.00    +0.000 A 
ATOM     19  C   UNL     1       3.056   4.630  18.254  0.00  0.00    +0.000 A 
BRANCH  17  20
ATOM     20  O   UNL     1       0.251   2.321  18.451  0.00  0.00    +0.000 OA
ATOM     21  H   UNL     1       0.162   1.515  18.988  0.00  0.00    +0.000 HD
ENDBRANCH  17  20
ENDBRANCH  13  14
BRANCH  13  22
ATOM     22  O   UNL     1       5.862   5.378  19.615  0.00  0.00    +0.000 OA
ATOM     23  H   UNL     1       5.439   5.093  20.458  0.00  0.00    +0.000 HD
ENDBRANCH  13  22
ENDBRANCH   1  13
TORSDOF 10
ENDMDL
