MODEL 1
REMARK VINA RESULT:      -7.4      0.000      0.000
REMARK  Name = 
REMARK  6 active torsions:
REMARK  status: ('A' for Active; 'I' for Inactive)
REMARK    1  A    between atoms: N_1  and  C_2
REMARK    2  A    between atoms: C_4  and  C_5
REMARK    3  A    between atoms: N_7  and  N_8
REMARK    4  A    between atoms: C_9  and  C_10
REMARK    5  A    between atoms: C_14  and  N_15
REMARK    6  A    between atoms: C_21  and  O_22
REMARK                            x       y       z     vdW  Elec       q    Type
REMARK                         _______ _______ _______ _____ _____    ______ ____
ROOT
ATOM      1  C   UNL     1       3.353   6.529  17.912  0.00  0.00    +0.000 C 
ATOM      2  O   UNL     1       2.372   5.862  18.237  0.00  0.00    +0.000 OA
ATOM      3  N   UNL     1       3.319   7.890  17.632  0.00  0.00    +0.000 N 
ATOM      4  H   UNL     1       4.161   8.395  17.370  0.00  0.00    +0.000 HD
ENDROOT
BRANCH   1   7
ATOM      5  C   UNL     1       6.598   5.275  16.510  0.00  0.00    +0.000 A 
ATOM      6  C   UNL     1       5.381   5.931  16.612  0.00  0.00    +0.000 A 
ATOM      7  C   UNL     1       4.674   5.857  17.810  0.00  0.00    +0.000 A 
ATOM      8  N   UNL     1       5.143   5.198  18.898  0.00  0.00    +0.000 NA
ATOM      9  N   UNL     1       6.364   4.592  18.827  0.00  0.00    +0.000 NA
ATOM     10  C   UNL     1       7.058   4.657  17.669  0.00  0.00    +0.000 A 
BRANCH   5  11
ATOM     11  N   UNL     1       7.401   5.443  15.371  0.00  0.00    +0.000 N 
ATOM     12  H   UNL     1       6.918   5.326  14.486  0.00  0.00    +0.000 HD
ATOM     13  H   UNL     1       8.268   4.910  15.427  0.00  0.00    +0.000 HD
ENDBRANCH   5  11
BRANCH  10  14
ATOM     14  O   UNL     1       8.276   4.036  17.670  0.00  0.00    +0.000 OA
ATOM     15  H   UNL     1       8.669   4.375  18.493  0.00  0.00    +0.000 HD
ENDBRANCH  10  14
ENDBRANCH   1   7
BRANCH   3  16
ATOM     16  N   UNL     1       2.114   8.515  17.721  0.00  0.00    +0.000 NA
ATOM     17  C   UNL     1       1.892   9.316  18.709  0.00  0.00    +0.000 C 
BRANCH  17  18
ATOM     18  C   UNL     1       0.577   9.998  18.808  0.00  0.00    +0.000 A 
ATOM     19  C   UNL     1       0.304  10.826  19.908  0.00  0.00    +0.000 A 
ATOM     20  C   UNL     1      -0.921  11.489  20.014  0.00  0.00    +0.000 A 
ATOM     21  C   UNL     1      -1.887  11.321  19.025  0.00  0.00    +0.000 A 
ATOM     22  C   UNL     1      -1.620  10.481  17.934  0.00  0.00    +0.000 A 
ATOM     23  C   UNL     1      -0.385   9.818  17.813  0.00  0.00    +0.000 A 
BRANCH  22  24
ATOM     24  N   UNL     1      -2.654  10.285  16.909  0.00  0.00    +0.000 N 
ATOM     25  O   UNL     1      -2.510  10.866  15.825  0.00  0.00    +0.000 OA
ATOM     26  O   UNL     1      -3.611   9.553  17.194  0.00  0.00    +0.000 OA
ENDBRANCH  22  24
ENDBRANCH  17  18
ENDBRANCH   3  16
TORSDOF 6
ENDMDL
MODEL 2
REMARK VINA RESULT:      -7.3      6.926      8.552
REMARK  Name = 
REMARK  6 active torsions:
REMARK  status: ('A' for Active; 'I' for Inactive)
REMARK    1  A    between atoms: N_1  and  C_2
REMARK    2  A    between atoms: C_4  and  C_5
REMARK    3  A    between atoms: N_7  and  N_8
REMARK    4  A    between atoms: C_9  and  C_10
REMARK    5  A    between atoms: C_14  and  N_15
REMARK    6  A    between atoms: C_21  and  O_22
REMARK                            x       y       z     vdW  Elec       q    Type
REMARK                         _______ _______ _______ _____ _____    ______ ____
ROOT
ATOM      1  C   UNL     1       7.722   6.951  17.917  0.00  0.00    +0.000 C 
ATOM      2  O   UNL     1       8.004   6.592  19.060  0.00  0.00    +0.000 OA
ATOM      3  N   UNL     1       7.848   8.254  17.449  0.00  0.00    +0.000 N 
ATOM      4  H   UNL     1       7.603   8.495  16.493  0.00  0.00    +0.000 HD
ENDROOT
BRANCH   1   7
ATOM      5  C   UNL     1       5.876   4.007  16.503  0.00  0.00    +0.000 A 
ATOM      6  C   UNL     1       6.321   4.969  17.397  0.00  0.00    +0.000 A 
ATOM      7  C   UNL     1       7.216   5.940  16.953  0.00  0.00    +0.000 A 
ATOM      8  N   UNL     1       7.646   6.007  15.669  0.00  0.00    +0.000 NA
ATOM      9  N   UNL     1       7.175   5.098  14.766  0.00  0.00    +0.000 NA
ATOM     10  C   UNL     1       6.307   4.151  15.187  0.00  0.00    +0.000 A 
BRANCH   5  11
ATOM     11  N   UNL     1       4.871   3.102  16.877  0.00  0.00    +0.000 N 
ATOM     12  H   UNL     1       5.207   2.208  17.222  0.00  0.00    +0.000 HD
ATOM     13  H   UNL     1       4.149   3.009  16.163  0.00  0.00    +0.000 HD
ENDBRANCH   5  11
BRANCH  10  14
ATOM     14  O   UNL     1       5.869   3.279  14.230  0.00  0.00    +0.000 OA
ATOM     15  H   UNL     1       6.705   3.007  13.814  0.00  0.00    +0.000 HD
ENDBRANCH  10  14
ENDBRANCH   1   7
BRANCH   3  16
ATOM     16  N   UNL     1       8.309   9.188  18.324  0.00  0.00    +0.000 NA
ATOM     17  C   UNL     1       8.912  10.234  17.866  0.00  0.00    +0.000 C 
BRANCH  17  18
ATOM     18  C   UNL     1       9.417  11.254  18.820  0.00  0.00    +0.000 A 
ATOM     19  C   UNL     1       9.485  10.952  20.190  0.00  0.00    +0.000 A 
ATOM     20  C   UNL     1       9.970  11.891  21.102  0.00  0.00    +0.000 A 
ATOM     21  C   UNL     1      10.383  13.144  20.654  0.00  0.00    +0.000 A 
ATOM     22  C   UNL     1      10.300  13.450  19.287  0.00  0.00    +0.000 A 
ATOM     23  C   UNL     1       9.823  12.508  18.360  0.00  0.00    +0.000 A 
BRANCH  22  24
ATOM     24  N   UNL     1      10.710  14.783  18.825  0.00  0.00    +0.000 N 
ATOM     25  O   UNL     1      11.923  15.007  18.710  0.00  0.00    +0.000 OA
ATOM     26  O   UNL     1       9.815  15.605  18.582  0.00  0.00    +0.000 OA
ENDBRANCH  22  24
ENDBRANCH  17  18
ENDBRANCH   3  16
TORSDOF 6
ENDMDL
MODEL 3
REMARK VINA RESULT:      -7.3      2.821      3.318
REMARK  Name = 
REMARK  6 active torsions:
REMARK  status: ('A' for Active; 'I' for Inactive)
REMARK    1  A    between atoms: N_1  and  C_2
REMARK    2  A    between atoms: C_4  and  C_5
REMARK    3  A    between atoms: N_7  and  N_8
REMARK    4  A    between atoms: C_9  and  C_10
REMARK    5  A    between atoms: C_14  and  N_15
REMARK    6  A    between atoms: C_21  and  O_22
REMARK                            x       y       z     vdW  Elec       q    Type
REMARK                         _______ _______ _______ _____ _____    ______ ____
ROOT
ATOM      1  C   UNL     1       2.479   6.799  19.599  0.00  0.00    +0.000 C 
ATOM      2  O   UNL     1       2.484   7.475  18.570  0.00  0.00    +0.000 OA
ATOM      3  N   UNL     1       1.840   7.168  20.777  0.00  0.00    +0.000 N 
ATOM      4  H   UNL     1       1.865   6.570  21.598  0.00  0.00    +0.000 HD
ENDROOT
BRANCH   1   7
ATOM      5  C   UNL     1       5.096   4.183  18.985  0.00  0.00    +0.000 A 
ATOM      6  C   UNL     1       4.448   5.409  19.008  0.00  0.00    +0.000 A 
ATOM      7  C   UNL     1       3.192   5.496  19.603  0.00  0.00    +0.000 A 
ATOM      8  N   UNL     1       2.586   4.437  20.196  0.00  0.00    +0.000 NA
ATOM      9  N   UNL     1       3.236   3.237  20.226  0.00  0.00    +0.000 NA
ATOM     10  C   UNL     1       4.456   3.142  19.651  0.00  0.00    +0.000 A 
BRANCH   5  11
ATOM     11  N   UNL     1       6.417   4.088  18.522  0.00  0.00    +0.000 N 
ATOM     12  H   UNL     1       7.051   4.792  18.887  0.00  0.00    +0.000 HD
ATOM     13  H   UNL     1       6.465   3.994  17.508  0.00  0.00    +0.000 HD
ENDBRANCH   5  11
BRANCH  10  14
ATOM     14  O   UNL     1       5.053   1.914  19.725  0.00  0.00    +0.000 OA
ATOM     15  H   UNL     1       4.289   1.332  19.877  0.00  0.00    +0.000 HD
ENDBRANCH  10  14
ENDBRANCH   1   7
BRANCH   3  16
ATOM     16  N   UNL     1       1.186   8.361  20.784  0.00  0.00    +0.000 NA
ATOM     17  C   UNL     1       0.446   8.666  21.798  0.00  0.00    +0.000 C 
BRANCH  17  18
ATOM     18  C   UNL     1      -0.270   9.967  21.806  0.00  0.00    +0.000 A 
ATOM     19  C   UNL     1      -0.850  10.433  22.997  0.00  0.00    +0.000 A 
ATOM     20  C   UNL     1      -1.515  11.661  23.031  0.00  0.00    +0.000 A 
ATOM     21  C   UNL     1      -1.614  12.428  21.873  0.00  0.00    +0.000 A 
ATOM     22  C   UNL     1      -1.048  11.954  20.680  0.00  0.00    +0.000 A 
ATOM     23  C   UNL     1      -0.367  10.724  20.638  0.00  0.00    +0.000 A 
BRANCH  22  24
ATOM     24  N   UNL     1      -1.180  12.754  19.455  0.00  0.00    +0.000 N 
ATOM     25  O   UNL     1      -0.906  13.960  19.520  0.00  0.00    +0.000 OA
ATOM     26  O   UNL     1      -1.563  12.173  18.431  0.00  0.00    +0.000 OA
ENDBRANCH  22  24
ENDBRANCH  17  18
ENDBRANCH   3  16
TORSDOF 6
ENDMDL
MODEL 4
REMARK VINA RESULT:      -7.1      6.958      8.332
REMARK  Name = 
REMARK  6 active torsions:
REMARK  status: ('A' for Active; 'I' for Inactive)
REMARK    1  A    between atoms: N_1  and  C_2
REMARK    2  A    between atoms: C_4  and  C_5
REMARK    3  A    between atoms: N_7  and  N_8
REMARK    4  A    between atoms: C_9  and  C_10
REMARK    5  A    between atoms: C_14  and  N_15
REMARK    6  A    between atoms: C_21  and  O_22
REMARK                            x       y       z     vdW  Elec       q    Type
REMARK                         _______ _______ _______ _____ _____    ______ ____
ROOT
ATOM      1  C   UNL     1       7.722   6.905  17.957  0.00  0.00    +0.000 C 
ATOM      2  O   UNL     1       7.955   6.511  19.099  0.00  0.00    +0.000 OA
ATOM      3  N   UNL     1       7.883   8.218  17.531  0.00  0.00    +0.000 N 
ATOM      4  H   UNL     1       7.678   8.489  16.573  0.00  0.00    +0.000 HD
ENDROOT
BRANCH   1   7
ATOM      5  C   UNL     1       5.943   3.990  16.405  0.00  0.00    +0.000 A 
ATOM      6  C   UNL     1       6.364   4.920  17.343  0.00  0.00    +0.000 A 
ATOM      7  C   UNL     1       7.240   5.927  16.947  0.00  0.00    +0.000 A 
ATOM      8  N   UNL     1       7.674   6.061  15.669  0.00  0.00    +0.000 NA
ATOM      9  N   UNL     1       7.225   5.183  14.724  0.00  0.00    +0.000 NA
ATOM     10  C   UNL     1       6.375   4.201  15.099  0.00  0.00    +0.000 A 
BRANCH   5  11
ATOM     11  N   UNL     1       4.955   3.049  16.733  0.00  0.00    +0.000 N 
ATOM     12  H   UNL     1       4.438   2.677  15.942  0.00  0.00    +0.000 HD
ATOM     13  H   UNL     1       4.351   3.370  17.489  0.00  0.00    +0.000 HD
ENDBRANCH   5  11
BRANCH  10  14
ATOM     14  O   UNL     1       5.959   3.363  14.102  0.00  0.00    +0.000 OA
ATOM     15  H   UNL     1       4.995   3.373  14.226  0.00  0.00    +0.000 HD
ENDBRANCH  10  14
ENDBRANCH   1   7
BRANCH   3  16
ATOM     16  N   UNL     1       8.322   9.121  18.448  0.00  0.00    +0.000 NA
ATOM     17  C   UNL     1       9.133  10.054  18.074  0.00  0.00    +0.000 C 
BRANCH  17  18
ATOM     18  C   UNL     1       9.614  11.040  19.075  0.00  0.00    +0.000 A 
ATOM     19  C   UNL     1      10.707  11.866  18.767  0.00  0.00    +0.000 A 
ATOM     20  C   UNL     1      11.166  12.810  19.687  0.00  0.00    +0.000 A 
ATOM     21  C   UNL     1      10.543  12.931  20.927  0.00  0.00    +0.000 A 
ATOM     22  C   UNL     1       9.461  12.094  21.240  0.00  0.00    +0.000 A 
ATOM     23  C   UNL     1       8.984  11.147  20.315  0.00  0.00    +0.000 A 
BRANCH  22  24
ATOM     24  N   UNL     1       8.825  12.206  22.559  0.00  0.00    +0.000 N 
ATOM     25  O   UNL     1       8.237  11.211  23.004  0.00  0.00    +0.000 OA
ATOM     26  O   UNL     1       8.914  13.293  23.147  0.00  0.00    +0.000 OA
ENDBRANCH  22  24
ENDBRANCH  17  18
ENDBRANCH   3  16
TORSDOF 6
ENDMDL
MODEL 5
REMARK VINA RESULT:      -7.1      1.949      2.161
REMARK  Name = 
REMARK  6 active torsions:
REMARK  status: ('A' for Active; 'I' for Inactive)
REMARK    1  A    between atoms: N_1  and  C_2
REMARK    2  A    between atoms: C_4  and  C_5
REMARK    3  A    between atoms: N_7  and  N_8
REMARK    4  A    between atoms: C_9  and  C_10
REMARK    5  A    between atoms: C_14  and  N_15
REMARK    6  A    between atoms: C_21  and  O_22
REMARK                            x       y       z     vdW  Elec       q    Type
REMARK                         _______ _______ _______ _____ _____    ______ ____
ROOT
ATOM      1  C   UNL     1       3.247   6.461  18.058  0.00  0.00    +0.000 C 
ATOM      2  O   UNL     1       2.310   5.787  18.485  0.00  0.00    +0.000 OA
ATOM      3  N   UNL     1       3.151   7.799  17.696  0.00  0.00    +0.000 N 
ATOM      4  H   UNL     1       3.959   8.310  17.351  0.00  0.00    +0.000 HD
ENDROOT
BRANCH   1   7
ATOM      5  C   UNL     1       6.542   5.409  16.606  0.00  0.00    +0.000 A 
ATOM      6  C   UNL     1       5.312   6.033  16.749  0.00  0.00    +0.000 A 
ATOM      7  C   UNL     1       4.581   5.822  17.916  0.00  0.00    +0.000 A 
ATOM      8  N   UNL     1       5.038   5.058  18.939  0.00  0.00    +0.000 NA
ATOM      9  N   UNL     1       6.270   4.480  18.832  0.00  0.00    +0.000 NA
ATOM     10  C   UNL     1       6.987   4.678  17.703  0.00  0.00    +0.000 A 
BRANCH   5  11
ATOM     11  N   UNL     1       7.365   5.708  15.510  0.00  0.00    +0.000 N 
ATOM     12  H   UNL     1       8.103   6.380  15.699  0.00  0.00    +0.000 HD
ATOM     13  H   UNL     1       6.829   5.929  14.672  0.00  0.00    +0.000 HD
ENDBRANCH   5  11
BRANCH  10  14
ATOM     14  O   UNL     1       8.215   4.078  17.667  0.00  0.00    +0.000 OA
ATOM     15  H   UNL     1       8.007   3.185  17.991  0.00  0.00    +0.000 HD
ENDBRANCH  10  14
ENDBRANCH   1   7
BRANCH   3  16
ATOM     16  N   UNL     1       1.933   8.393  17.821  0.00  0.00    +0.000 NA
ATOM     17  C   UNL     1       1.874   9.661  18.058  0.00  0.00    +0.000 C 
BRANCH  17  18
ATOM     18  C   UNL     1       0.545  10.310  18.196  0.00  0.00    +0.000 A 
ATOM     19  C   UNL     1      -0.605   9.643  17.745  0.00  0.00    +0.000 A 
ATOM     20  C   UNL     1      -1.866  10.228  17.878  0.00  0.00    +0.000 A 
ATOM     21  C   UNL     1      -1.986  11.490  18.455  0.00  0.00    +0.000 A 
ATOM     22  C   UNL     1      -0.835  12.163  18.891  0.00  0.00    +0.000 A 
ATOM     23  C   UNL     1       0.438  11.577  18.771  0.00  0.00    +0.000 A 
BRANCH  22  24
ATOM     24  N   UNL     1      -0.965  13.506  19.473  0.00  0.00    +0.000 N 
ATOM     25  O   UNL     1      -0.336  14.430  18.940  0.00  0.00    +0.000 OA
ATOM     26  O   UNL     1      -1.695  13.631  20.466  0.00  0.00    +0.000 OA
ENDBRANCH  22  24
ENDBRANCH  17  18
ENDBRANCH   3  16
TORSDOF 6
ENDMDL
MODEL 6
REMARK VINA RESULT:      -7.0      3.040      3.670
REMARK  Name = 
REMARK  6 active torsions:
REMARK  status: ('A' for Active; 'I' for Inactive)
REMARK    1  A    between atoms: N_1  and  C_2
REMARK    2  A    between atoms: C_4  and  C_5
REMARK    3  A    between atoms: N_7  and  N_8
REMARK    4  A    between atoms: C_9  and  C_10
REMARK    5  A    between atoms: C_14  and  N_15
REMARK    6  A    between atoms: C_21  and  O_22
REMARK                            x       y       z     vdW  Elec       q    Type
REMARK                         _______ _______ _______ _____ _____    ______ ____
ROOT
ATOM      1  C   UNL     1       2.498   6.525  19.595  0.00  0.00    +0.000 C 
ATOM      2  O   UNL     1       2.549   7.259  18.608  0.00  0.00    +0.000 OA
ATOM      3  N   UNL     1       1.960   6.897  20.821  0.00  0.00    +0.000 N 
ATOM      4  H   UNL     1       1.941   6.250  21.605  0.00  0.00    +0.000 HD
ENDROOT
BRANCH   1   7
ATOM      5  C   UNL     1       2.658   2.792  19.268  0.00  0.00    +0.000 A 
ATOM      6  C   UNL     1       2.153   4.082  19.332  0.00  0.00    +0.000 A 
ATOM      7  C   UNL     1       3.038   5.145  19.490  0.00  0.00    +0.000 A 
ATOM      8  N   UNL     1       4.382   4.977  19.549  0.00  0.00    +0.000 NA
ATOM      9  N   UNL     1       4.896   3.718  19.435  0.00  0.00    +0.000 NA
ATOM     10  C   UNL     1       4.045   2.679  19.282  0.00  0.00    +0.000 A 
BRANCH   5  11
ATOM     11  N   UNL     1       1.812   1.713  18.969  0.00  0.00    +0.000 N 
ATOM     12  H   UNL     1       1.590   1.603  17.984  0.00  0.00    +0.000 HD
ATOM     13  H   UNL     1       0.989   1.689  19.569  0.00  0.00    +0.000 HD
ENDBRANCH   5  11
BRANCH  10  14
ATOM     14  O   UNL     1       4.627   1.447  19.165  0.00  0.00    +0.000 OA
ATOM     15  H   UNL     1       3.854   0.859  19.212  0.00  0.00    +0.000 HD
ENDBRANCH  10  14
ENDBRANCH   1   7
BRANCH   3  16
ATOM     16  N   UNL     1       1.464   8.159  20.928  0.00  0.00    +0.000 NA
ATOM     17  C   UNL     1       0.271   8.329  21.390  0.00  0.00    +0.000 C 
BRANCH  17  18
ATOM     18  C   UNL     1      -0.272   9.707  21.506  0.00  0.00    +0.000 A 
ATOM     19  C   UNL     1      -0.599  10.221  22.771  0.00  0.00    +0.000 A 
ATOM     20  C   UNL     1      -1.096  11.519  22.905  0.00  0.00    +0.000 A 
ATOM     21  C   UNL     1      -1.280  12.310  21.774  0.00  0.00    +0.000 A 
ATOM     22  C   UNL     1      -0.968  11.790  20.508  0.00  0.00    +0.000 A 
ATOM     23  C   UNL     1      -0.457  10.488  20.365  0.00  0.00    +0.000 A 
BRANCH  22  24
ATOM     24  N   UNL     1      -1.192  12.619  19.317  0.00  0.00    +0.000 N 
ATOM     25  O   UNL     1      -0.855  13.810  19.370  0.00  0.00    +0.000 OA
ATOM     26  O   UNL     1      -1.709  12.076  18.331  0.00  0.00    +0.000 OA
ENDBRANCH  22  24
ENDBRANCH  17  18
ENDBRANCH   3  16
TORSDOF 6
ENDMDL
MODEL 7
REMARK VINA RESULT:      -7.0      3.502      3.953
REMARK  Name = 
REMARK  6 active torsions:
REMARK  status: ('A' for Active; 'I' for Inactive)
REMARK    1  A    between atoms: N_1  and  C_2
REMARK    2  A    between atoms: C_4  and  C_5
REMARK    3  A    between atoms: N_7  and  N_8
REMARK    4  A    between atoms: C_9  and  C_10
REMARK    5  A    between atoms: C_14  and  N_15
REMARK    6  A    between atoms: C_21  and  O_22
REMARK                            x       y       z     vdW  Elec       q    Type
REMARK                         _______ _______ _______ _____ _____    ______ ____
ROOT
ATOM      1  C   UNL     1       2.413   5.836  19.127  0.00  0.00    +0.000 C 
ATOM      2  O   UNL     1       2.228   6.580  18.163  0.00  0.00    +0.000 OA
ATOM      3  N   UNL     1       2.224   6.208  20.452  0.00  0.00    +0.000 N 
ATOM      4  H   UNL     1       2.389   5.552  21.211  0.00  0.00    +0.000 HD
ENDROOT
BRANCH   1   7
ATOM      5  C   UNL     1       4.257   2.588  19.471  0.00  0.00    +0.000 A 
ATOM      6  C   UNL     1       3.815   3.877  19.724  0.00  0.00    +0.000 A 
ATOM      7  C   UNL     1       2.863   4.442  18.879  0.00  0.00    +0.000 A 
ATOM      8  N   UNL     1       2.320   3.770  17.834  0.00  0.00    +0.000 NA
ATOM      9  N   UNL     1       2.708   2.481  17.605  0.00  0.00    +0.000 NA
ATOM     10  C   UNL     1       3.632   1.924  18.419  0.00  0.00    +0.000 A 
BRANCH   5  11
ATOM     11  N   UNL     1       5.107   1.938  20.379  0.00  0.00    +0.000 N 
ATOM     12  H   UNL     1       4.949   2.170  21.354  0.00  0.00    +0.000 HD
ATOM     13  H   UNL     1       6.087   2.004  20.106  0.00  0.00    +0.000 HD
ENDBRANCH   5  11
BRANCH  10  14
ATOM     14  O   UNL     1       3.968   0.629  18.138  0.00  0.00    +0.000 OA
ATOM     15  H   UNL     1       4.821   0.543  18.596  0.00  0.00    +0.000 HD
ENDBRANCH  10  14
ENDBRANCH   1   7
BRANCH   3  16
ATOM     16  N   UNL     1       1.814   7.483  20.690  0.00  0.00    +0.000 NA
ATOM     17  C   UNL     1       0.680   7.680  21.276  0.00  0.00    +0.000 C 
BRANCH  17  18
ATOM     18  C   UNL     1       0.230   9.071  21.535  0.00  0.00    +0.000 A 
ATOM     19  C   UNL     1      -0.414   9.380  22.744  0.00  0.00    +0.000 A 
ATOM     20  C   UNL     1      -0.831  10.685  23.014  0.00  0.00    +0.000 A 
ATOM     21  C   UNL     1      -0.618  11.690  22.074  0.00  0.00    +0.000 A 
ATOM     22  C   UNL     1       0.011  11.377  20.859  0.00  0.00    +0.000 A 
ATOM     23  C   UNL     1       0.445  10.068  20.582  0.00  0.00    +0.000 A 
BRANCH  22  24
ATOM     24  N   UNL     1       0.208  12.435  19.860  0.00  0.00    +0.000 N 
ATOM     25  O   UNL     1       0.308  12.098  18.673  0.00  0.00    +0.000 OA
ATOM     26  O   UNL     1       0.267  13.604  20.268  0.00  0.00    +0.000 OA
ENDBRANCH  22  24
ENDBRANCH  17  18
ENDBRANCH   3  16
TORSDOF 6
ENDMDL
MODEL 8
REMARK VINA RESULT:      -7.0      2.890      8.924
REMARK  Name = 
REMARK  6 active torsions:
REMARK  status: ('A' for Active; 'I' for Inactive)
REMARK    1  A    between atoms: N_1  and  C_2
REMARK    2  A    between atoms: C_4  and  C_5
REMARK    3  A    between atoms: N_7  and  N_8
REMARK    4  A    between atoms: C_9  and  C_10
REMARK    5  A    between atoms: C_14  and  N_15
REMARK    6  A    between atoms: C_21  and  O_22
REMARK                            x       y       z     vdW  Elec       q    Type
REMARK                         _______ _______ _______ _____ _____    ______ ____
ROOT
ATOM      1  C   UNL     1       1.225   9.349  19.434  0.00  0.00    +0.000 C 
ATOM      2  O   UNL     1       1.375   9.791  18.296  0.00  0.00    +0.000 OA
ATOM      3  N   UNL     1       1.708   8.120  19.869  0.00  0.00    +0.000 N 
ATOM      4  H   UNL     1       1.557   7.803  20.823  0.00  0.00    +0.000 HD
ENDROOT
BRANCH   1   7
ATOM      5  C   UNL     1      -1.251  11.738  20.927  0.00  0.00    +0.000 A 
ATOM      6  C   UNL     1      -0.584  10.950  20.002  0.00  0.00    +0.000 A 
ATOM      7  C   UNL     1       0.486  10.168  20.429  0.00  0.00    +0.000 A 
ATOM      8  N   UNL     1       0.884  10.116  21.725  0.00  0.00    +0.000 NA
ATOM      9  N   UNL     1       0.203  10.847  22.655  0.00  0.00    +0.000 NA
ATOM     10  C   UNL     1      -0.837  11.610  22.250  0.00  0.00    +0.000 A 
BRANCH   5  11
ATOM     11  N   UNL     1      -2.417  12.428  20.562  0.00  0.00    +0.000 N 
ATOM     12  H   UNL     1      -2.704  13.156  21.209  0.00  0.00    +0.000 HD
ATOM     13  H   UNL     1      -3.177  11.797  20.309  0.00  0.00    +0.000 HD
ENDBRANCH   5  11
BRANCH  10  14
ATOM     14  O   UNL     1      -1.479  12.309  23.234  0.00  0.00    +0.000 OA
ATOM     15  H   UNL     1      -1.486  11.663  23.961  0.00  0.00    +0.000 HD
ENDBRANCH  10  14
ENDBRANCH   1   7
BRANCH   3  16
ATOM     16  N   UNL     1       2.385   7.361  18.965  0.00  0.00    +0.000 NA
ATOM     17  C   UNL     1       3.050   6.335  19.379  0.00  0.00    +0.000 C 
BRANCH  17  18
ATOM     18  C   UNL     1       3.790   5.506  18.394  0.00  0.00    +0.000 A 
ATOM     19  C   UNL     1       3.164   4.392  17.812  0.00  0.00    +0.000 A 
ATOM     20  C   UNL     1       3.837   3.608  16.873  0.00  0.00    +0.000 A 
ATOM     21  C   UNL     1       5.145   3.925  16.514  0.00  0.00    +0.000 A 
ATOM     22  C   UNL     1       5.775   5.029  17.108  0.00  0.00    +0.000 A 
ATOM     23  C   UNL     1       5.102   5.831  18.047  0.00  0.00    +0.000 A 
BRANCH  22  24
ATOM     24  N   UNL     1       7.164   5.342  16.747  0.00  0.00    +0.000 N 
ATOM     25  O   UNL     1       7.452   6.526  16.526  0.00  0.00    +0.000 OA
ATOM     26  O   UNL     1       7.964   4.399  16.679  0.00  0.00    +0.000 OA
ENDBRANCH  22  24
ENDBRANCH  17  18
ENDBRANCH   3  16
TORSDOF 6
ENDMDL
MODEL 9
REMARK VINA RESULT:      -7.0      2.204      2.500
REMARK  Name = 
REMARK  6 active torsions:
REMARK  status: ('A' for Active; 'I' for Inactive)
REMARK    1  A    between atoms: N_1  and  C_2
REMARK    2  A    between atoms: C_4  and  C_5
REMARK    3  A    between atoms: N_7  and  N_8
REMARK    4  A    between atoms: C_9  and  C_10
REMARK    5  A    between atoms: C_14  and  N_15
REMARK    6  A    between atoms: C_21  and  O_22
REMARK                            x       y       z     vdW  Elec       q    Type
REMARK                         _______ _______ _______ _____ _____    ______ ____
ROOT
ATOM      1  C   UNL     1       3.365   6.391  18.492  0.00  0.00    +0.000 C 
ATOM      2  O   UNL     1       2.623   5.789  19.268  0.00  0.00    +0.000 OA
ATOM      3  N   UNL     1       3.083   7.636  17.944  0.00  0.00    +0.000 N 
ATOM      4  H   UNL     1       3.733   8.091  17.309  0.00  0.00    +0.000 HD
ENDROOT
BRANCH   1   7
ATOM      5  C   UNL     1       6.301   5.294  16.431  0.00  0.00    +0.000 A 
ATOM      6  C   UNL     1       5.112   5.906  16.797  0.00  0.00    +0.000 A 
ATOM      7  C   UNL     1       4.656   5.766  18.105  0.00  0.00    +0.000 A 
ATOM      8  N   UNL     1       5.345   5.081  19.052  0.00  0.00    +0.000 NA
ATOM      9  N   UNL     1       6.543   4.517  18.719  0.00  0.00    +0.000 NA
ATOM     10  C   UNL     1       6.994   4.648  17.451  0.00  0.00    +0.000 A 
BRANCH   5  11
ATOM     11  N   UNL     1       6.860   5.529  15.166  0.00  0.00    +0.000 N 
ATOM     12  H   UNL     1       7.698   6.103  15.168  0.00  0.00    +0.000 HD
ATOM     13  H   UNL     1       6.166   5.839  14.487  0.00  0.00    +0.000 HD
ENDBRANCH   5  11
BRANCH  10  14
ATOM     14  O   UNL     1       8.203   4.067  17.188  0.00  0.00    +0.000 OA
ATOM     15  H   UNL     1       8.129   3.879  16.237  0.00  0.00    +0.000 HD
ENDBRANCH  10  14
ENDBRANCH   1   7
BRANCH   3  16
ATOM     16  N   UNL     1       1.902   8.217  18.290  0.00  0.00    +0.000 NA
ATOM     17  C   UNL     1       1.794   9.502  18.237  0.00  0.00    +0.000 C 
BRANCH  17  18
ATOM     18  C   UNL     1       0.507  10.138  18.616  0.00  0.00    +0.000 A 
ATOM     19  C   UNL     1      -0.580  10.090  17.728  0.00  0.00    +0.000 A 
ATOM     20  C   UNL     1      -1.804  10.668  18.070  0.00  0.00    +0.000 A 
ATOM     21  C   UNL     1      -1.950  11.307  19.299  0.00  0.00    +0.000 A 
ATOM     22  C   UNL     1      -0.859  11.368  20.179  0.00  0.00    +0.000 A 
ATOM     23  C   UNL     1       0.375  10.780  19.848  0.00  0.00    +0.000 A 
BRANCH  22  24
ATOM     24  N   UNL     1      -1.010  12.068  21.461  0.00  0.00    +0.000 N 
ATOM     25  O   UNL     1      -2.155  12.218  21.907  0.00  0.00    +0.000 OA
ATOM     26  O   UNL     1       0.021  12.472  22.018  0.00  0.00    +0.000 OA
ENDBRANCH  22  24
ENDBRANCH  17  18
ENDBRANCH   3  16
TORSDOF 6
ENDMDL
