MODEL 1
REMARK VINA RESULT:      -7.6      0.000      0.000
REMARK  Name = 
REMARK  16 active torsions:
REMARK  status: ('A' for Active; 'I' for Inactive)
REMARK    1  A    between atoms: C_1  and  C_2
REMARK    2  A    between atoms: C_2  and  C_3
REMARK    3  A    between atoms: C_3  and  C_4
REMARK    4  A    between atoms: C_4  and  C_5
REMARK    5  A    between atoms: C_5  and  N_6
REMARK    6  A    between atoms: C_5  and  C_7
REMARK    7  A    between atoms: N_9  and  C_10
REMARK    8  A    between atoms: C_12  and  C_13
REMARK    9  A    between atoms: N_15  and  C_16
REMARK   10  A    between atoms: C_16  and  C_17
REMARK   11  A    between atoms: C_16  and  C_25
REMARK   12  A    between atoms: C_17  and  C_18
REMARK   13  A    between atoms: C_21  and  O_22
REMARK   14  A    between atoms: C_25  and  O_27
REMARK   15  A    between atoms: O_27  and  C_28
REMARK   16  A    between atoms: C_31  and  N_32
REMARK                            x       y       z     vdW  Elec       q    Type
REMARK                         _______ _______ _______ _____ _____    ______ ____
ROOT
ATOM      1  C   UNL     1       3.745   6.305  18.329  0.00  0.00    +0.000 A 
ATOM      2  C   UNL     1       3.253   7.587  18.013  0.00  0.00    +0.000 A 
ATOM      3  C   UNL     1       2.182   8.146  18.729  0.00  0.00    +0.000 A 
ATOM      4  C   UNL     1       1.573   7.416  19.749  0.00  0.00    +0.000 A 
ATOM      5  C   UNL     1       2.095   6.178  20.118  0.00  0.00    +0.000 A 
ATOM      6  C   UNL     1       3.186   5.612  19.434  0.00  0.00    +0.000 A 
ENDROOT
BRANCH   1   9
ATOM      7  C   UNL     1       6.060   5.428  17.865  0.00  0.00    +0.000 C 
ATOM      8  O   UNL     1       6.564   5.674  18.964  0.00  0.00    +0.000 OA
ATOM      9  N   UNL     1       4.730   5.634  17.537  0.00  0.00    +0.000 N 
ATOM     10  H   UNL     1       4.464   5.460  16.580  0.00  0.00    +0.000 HD
BRANCH   7  11
ATOM     11  C   UNL     1       6.972   4.939  16.692  0.00  0.00    +0.000 C 
BRANCH  11  12
ATOM     12  N   UNL     1       8.073   4.126  17.275  0.00  0.00    +0.000 NA
ATOM     13  H   UNL     1       8.824   4.783  17.527  0.00  0.00    +0.000 HD
ATOM     14  H   UNL     1       8.500   3.584  16.523  0.00  0.00    +0.000 HD
ENDBRANCH  11  12
BRANCH  11  15
ATOM     15  C   UNL     1       6.290   4.049  15.644  0.00  0.00    +0.000 C 
BRANCH  15  16
ATOM     16  C   UNL     1       6.221   4.658  14.245  0.00  0.00    +0.000 C 
BRANCH  16  18
ATOM     17  C   UNL     1       6.754   3.648  11.998  0.00  0.00    +0.000 C 
ATOM     18  C   UNL     1       5.825   3.607  13.202  0.00  0.00    +0.000 C 
ENDBRANCH  16  18
ENDBRANCH  15  16
ENDBRANCH  11  15
ENDBRANCH   7  11
ENDBRANCH   1   9
BRANCH   3  19
ATOM     19  C   UNL     1       1.648   9.509  18.448  0.00  0.00    +0.000 C 
ATOM     20  O   UNL     1       2.015  10.122  17.455  0.00  0.00    +0.000 OA
ATOM     21  N   UNL     1       0.678   9.971  19.304  0.00  0.00    +0.000 N 
ATOM     22  H   UNL     1       0.373   9.406  20.091  0.00  0.00    +0.000 HD
BRANCH  21  23
ATOM     23  C   UNL     1      -0.022  11.252  19.108  0.00  0.00    +0.000 C 
BRANCH  23  24
ATOM     24  C   UNL     1       0.596  12.289  20.058  0.00  0.00    +0.000 C 
ATOM     25  O   UNL     1       1.350  13.188  19.699  0.00  0.00    +0.000 OA
BRANCH  24  26
ATOM     26  O   UNL     1       0.162  12.105  21.336  0.00  0.00    +0.000 OA
ATOM     27  C   UNL     1      -0.249  13.309  21.993  0.00  0.00    +0.000 C 
ENDBRANCH  24  26
ENDBRANCH  23  24
BRANCH  23  28
ATOM     28  C   UNL     1      -1.556  11.196  19.267  0.00  0.00    +0.000 C 
BRANCH  28  29
ATOM     29  C   UNL     1      -2.326  10.864  18.005  0.00  0.00    +0.000 A 
ATOM     30  C   UNL     1      -1.816   9.968  17.052  0.00  0.00    +0.000 A 
ATOM     31  C   UNL     1      -2.506   9.738  15.859  0.00  0.00    +0.000 A 
ATOM     32  C   UNL     1      -3.707  10.399  15.624  0.00  0.00    +0.000 A 
ATOM     33  C   UNL     1      -4.250  11.255  16.573  0.00  0.00    +0.000 A 
ATOM     34  C   UNL     1      -3.562  11.476  17.767  0.00  0.00    +0.000 A 
BRANCH  32  35
ATOM     35  O   UNL     1      -4.395  10.235  14.457  0.00  0.00    +0.000 OA
ATOM     36  H   UNL     1      -5.344  10.224  14.659  0.00  0.00    +0.000 HD
ENDBRANCH  32  35
ENDBRANCH  28  29
ENDBRANCH  23  28
ENDBRANCH  21  23
ENDBRANCH   3  19
BRANCH   6  37
ATOM     37  N   UNL     1       3.749   4.455  19.980  0.00  0.00    +0.000 N 
ATOM     38  H   UNL     1       4.754   4.438  20.091  0.00  0.00    +0.000 HD
ATOM     39  H   UNL     1       3.230   3.843  20.588  0.00  0.00    +0.000 HD
ENDBRANCH   6  37
TORSDOF 14
ENDMDL
MODEL 2
REMARK VINA RESULT:      -7.6      3.192      9.893
REMARK  Name = 
REMARK  16 active torsions:
REMARK  status: ('A' for Active; 'I' for Inactive)
REMARK    1  A    between atoms: C_1  and  C_2
REMARK    2  A    between atoms: C_2  and  C_3
REMARK    3  A    between atoms: C_3  and  C_4
REMARK    4  A    between atoms: C_4  and  C_5
REMARK    5  A    between atoms: C_5  and  N_6
REMARK    6  A    between atoms: C_5  and  C_7
REMARK    7  A    between atoms: N_9  and  C_10
REMARK    8  A    between atoms: C_12  and  C_13
REMARK    9  A    between atoms: N_15  and  C_16
REMARK   10  A    between atoms: C_16  and  C_17
REMARK   11  A    between atoms: C_16  and  C_25
REMARK   12  A    between atoms: C_17  and  C_18
REMARK   13  A    between atoms: C_21  and  O_22
REMARK   14  A    between atoms: C_25  and  O_27
REMARK   15  A    between atoms: O_27  and  C_28
REMARK   16  A    between atoms: C_31  and  N_32
REMARK                            x       y       z     vdW  Elec       q    Type
REMARK                         _______ _______ _______ _____ _____    ______ ____
ROOT
ATOM      1  C   UNL     1       1.035   9.053  19.742  0.00  0.00    +0.000 A 
ATOM      2  C   UNL     1       1.880   7.927  19.767  0.00  0.00    +0.000 A 
ATOM      3  C   UNL     1       2.674   7.595  18.657  0.00  0.00    +0.000 A 
ATOM      4  C   UNL     1       2.606   8.370  17.500  0.00  0.00    +0.000 A 
ATOM      5  C   UNL     1       1.828   9.526  17.488  0.00  0.00    +0.000 A 
ATOM      6  C   UNL     1       1.049   9.893  18.600  0.00  0.00    +0.000 A 
ENDROOT
BRANCH   1   9
ATOM      7  C   UNL     1       0.150  10.412  21.670  0.00  0.00    +0.000 C 
ATOM      8  O   UNL     1       0.942  11.355  21.597  0.00  0.00    +0.000 OA
ATOM      9  N   UNL     1       0.100   9.346  20.786  0.00  0.00    +0.000 N 
ATOM     10  H   UNL     1      -0.547   8.603  21.003  0.00  0.00    +0.000 HD
BRANCH   7  11
ATOM     11  C   UNL     1      -0.824  10.316  22.891  0.00  0.00    +0.000 C 
BRANCH  11  12
ATOM     12  N   UNL     1      -0.073   9.720  24.029  0.00  0.00    +0.000 NA
ATOM     13  H   UNL     1      -0.289  10.290  24.857  0.00  0.00    +0.000 HD
ATOM     14  H   UNL     1       0.920   9.908  23.887  0.00  0.00    +0.000 HD
ENDBRANCH  11  12
BRANCH  11  15
ATOM     15  C   UNL     1      -1.386  11.650  23.401  0.00  0.00    +0.000 C 
BRANCH  15  16
ATOM     16  C   UNL     1      -2.659  12.112  22.691  0.00  0.00    +0.000 C 
BRANCH  16  18
ATOM     17  C   UNL     1      -3.771  14.314  23.203  0.00  0.00    +0.000 C 
ATOM     18  C   UNL     1      -3.581  12.872  23.649  0.00  0.00    +0.000 C 
ENDBRANCH  16  18
ENDBRANCH  15  16
ENDBRANCH  11  15
ENDBRANCH   7  11
ENDBRANCH   1   9
BRANCH   3  19
ATOM     19  C   UNL     1       3.603   6.430  18.649  0.00  0.00    +0.000 C 
ATOM     20  O   UNL     1       3.987   5.941  19.703  0.00  0.00    +0.000 OA
ATOM     21  N   UNL     1       3.910   5.904  17.417  0.00  0.00    +0.000 N 
ATOM     22  H   UNL     1       3.530   6.318  16.571  0.00  0.00    +0.000 HD
BRANCH  21  23
ATOM     23  C   UNL     1       4.732   4.695  17.242  0.00  0.00    +0.000 C 
BRANCH  23  24
ATOM     24  C   UNL     1       5.571   4.862  15.967  0.00  0.00    +0.000 C 
ATOM     25  O   UNL     1       5.957   5.944  15.535  0.00  0.00    +0.000 OA
BRANCH  24  26
ATOM     26  O   UNL     1       5.865   3.656  15.409  0.00  0.00    +0.000 OA
ATOM     27  C   UNL     1       6.206   3.721  14.020  0.00  0.00    +0.000 C 
ENDBRANCH  24  26
ENDBRANCH  23  24
BRANCH  23  28
ATOM     28  C   UNL     1       3.950   3.364  17.223  0.00  0.00    +0.000 C 
BRANCH  28  29
ATOM     29  C   UNL     1       3.127   3.078  18.463  0.00  0.00    +0.000 A 
ATOM     30  C   UNL     1       1.731   3.220  18.462  0.00  0.00    +0.000 A 
ATOM     31  C   UNL     1       1.001   3.028  19.638  0.00  0.00    +0.000 A 
ATOM     32  C   UNL     1       1.668   2.689  20.811  0.00  0.00    +0.000 A 
ATOM     33  C   UNL     1       3.044   2.501  20.821  0.00  0.00    +0.000 A 
ATOM     34  C   UNL     1       3.769   2.685  19.643  0.00  0.00    +0.000 A 
BRANCH  32  35
ATOM     35  O   UNL     1       1.002   2.530  21.991  0.00  0.00    +0.000 OA
ATOM     36  H   UNL     1       1.472   3.028  22.679  0.00  0.00    +0.000 HD
ENDBRANCH  32  35
ENDBRANCH  28  29
ENDBRANCH  23  28
ENDBRANCH  21  23
ENDBRANCH   3  19
BRANCH   6  37
ATOM     37  N   UNL     1       0.440  11.151  18.562  0.00  0.00    +0.000 N 
ATOM     38  H   UNL     1       0.288  11.563  17.650  0.00  0.00    +0.000 HD
ATOM     39  H   UNL     1      -0.165  11.476  19.297  0.00  0.00    +0.000 HD
ENDBRANCH   6  37
TORSDOF 14
ENDMDL
MODEL 3
REMARK VINA RESULT:      -7.6      3.314      9.734
REMARK  Name = 
REMARK  16 active torsions:
REMARK  status: ('A' for Active; 'I' for Inactive)
REMARK    1  A    between atoms: C_1  and  C_2
REMARK    2  A    between atoms: C_2  and  C_3
REMARK    3  A    between atoms: C_3  and  C_4
REMARK    4  A    between atoms: C_4  and  C_5
REMARK    5  A    between atoms: C_5  and  N_6
REMARK    6  A    between atoms: C_5  and  C_7
REMARK    7  A    between atoms: N_9  and  C_10
REMARK    8  A    between atoms: C_12  and  C_13
REMARK    9  A    between atoms: N_15  and  C_16
REMARK   10  A    between atoms: C_16  and  C_17
REMARK   11  A    between atoms: C_16  and  C_25
REMARK   12  A    between atoms: C_17  and  C_18
REMARK   13  A    between atoms: C_21  and  O_22
REMARK   14  A    between atoms: C_25  and  O_27
REMARK   15  A    between atoms: O_27  and  C_28
REMARK   16  A    between atoms: C_31  and  N_32
REMARK                            x       y       z     vdW  Elec       q    Type
REMARK                         _______ _______ _______ _____ _____    ______ ____
ROOT
ATOM      1  C   UNL     1       1.222   8.808  19.681  0.00  0.00    +0.000 A 
ATOM      2  C   UNL     1       2.055   7.674  19.740  0.00  0.00    +0.000 A 
ATOM      3  C   UNL     1       2.866   7.315  18.650  0.00  0.00    +0.000 A 
ATOM      4  C   UNL     1       2.829   8.073  17.480  0.00  0.00    +0.000 A 
ATOM      5  C   UNL     1       2.064   9.236  17.435  0.00  0.00    +0.000 A 
ATOM      6  C   UNL     1       1.268   9.630  18.525  0.00  0.00    +0.000 A 
ENDROOT
BRANCH   1   9
ATOM      7  C   UNL     1       0.370  10.144  21.639  0.00  0.00    +0.000 C 
ATOM      8  O   UNL     1       1.238  11.021  21.644  0.00  0.00    +0.000 OA
ATOM      9  N   UNL     1       0.272   9.128  20.702  0.00  0.00    +0.000 N 
ATOM     10  H   UNL     1      -0.442   8.432  20.857  0.00  0.00    +0.000 HD
BRANCH   7  11
ATOM     11  C   UNL     1      -0.659  10.072  22.816  0.00  0.00    +0.000 C 
BRANCH  11  12
ATOM     12  N   UNL     1       0.071   9.631  24.035  0.00  0.00    +0.000 NA
ATOM     13  H   UNL     1      -0.579   9.041  24.571  0.00  0.00    +0.000 HD
ATOM     14  H   UNL     1       0.186  10.441  24.647  0.00  0.00    +0.000 HD
ENDBRANCH  11  12
BRANCH  11  15
ATOM     15  C   UNL     1      -1.346  11.395  23.182  0.00  0.00    +0.000 C 
BRANCH  15  16
ATOM     16  C   UNL     1      -2.013  12.107  22.006  0.00  0.00    +0.000 C 
BRANCH  16  18
ATOM     17  C   UNL     1      -1.990  13.962  23.712  0.00  0.00    +0.000 C 
ATOM     18  C   UNL     1      -2.650  13.429  22.449  0.00  0.00    +0.000 C 
ENDBRANCH  16  18
ENDBRANCH  15  16
ENDBRANCH  11  15
ENDBRANCH   7  11
ENDBRANCH   1   9
BRANCH   3  19
ATOM     19  C   UNL     1       3.782   6.140  18.679  0.00  0.00    +0.000 C 
ATOM     20  O   UNL     1       4.302   5.790  19.730  0.00  0.00    +0.000 OA
ATOM     21  N   UNL     1       3.921   5.448  17.500  0.00  0.00    +0.000 N 
ATOM     22  H   UNL     1       3.433   5.752  16.663  0.00  0.00    +0.000 HD
BRANCH  21  23
ATOM     23  C   UNL     1       4.708   4.209  17.385  0.00  0.00    +0.000 C 
BRANCH  23  24
ATOM     24  C   UNL     1       5.408   4.208  16.018  0.00  0.00    +0.000 C 
ATOM     25  O   UNL     1       4.839   4.429  14.954  0.00  0.00    +0.000 OA
BRANCH  24  26
ATOM     26  O   UNL     1       6.744   3.975  16.150  0.00  0.00    +0.000 OA
ATOM     27  C   UNL     1       7.337   4.602  17.292  0.00  0.00    +0.000 C 
ENDBRANCH  24  26
ENDBRANCH  23  24
BRANCH  23  28
ATOM     28  C   UNL     1       3.916   2.902  17.606  0.00  0.00    +0.000 C 
BRANCH  28  29
ATOM     29  C   UNL     1       3.131   2.831  18.900  0.00  0.00    +0.000 A 
ATOM     30  C   UNL     1       3.762   2.556  20.123  0.00  0.00    +0.000 A 
ATOM     31  C   UNL     1       3.008   2.418  21.292  0.00  0.00    +0.000 A 
ATOM     32  C   UNL     1       1.625   2.561  21.235  0.00  0.00    +0.000 A 
ATOM     33  C   UNL     1       0.987   2.876  20.042  0.00  0.00    +0.000 A 
ATOM     34  C   UNL     1       1.745   3.022  18.879  0.00  0.00    +0.000 A 
BRANCH  32  35
ATOM     35  O   UNL     1       0.845   2.396  22.342  0.00  0.00    +0.000 OA
ATOM     36  H   UNL     1       0.121   1.788  22.120  0.00  0.00    +0.000 HD
ENDBRANCH  32  35
ENDBRANCH  28  29
ENDBRANCH  23  28
ENDBRANCH  21  23
ENDBRANCH   3  19
BRANCH   6  37
ATOM     37  N   UNL     1       0.674  10.894  18.456  0.00  0.00    +0.000 N 
ATOM     38  H   UNL     1      -0.246  10.995  18.864  0.00  0.00    +0.000 HD
ATOM     39  H   UNL     1       1.218  11.738  18.384  0.00  0.00    +0.000 HD
ENDBRANCH   6  37
TORSDOF 14
ENDMDL
MODEL 4
REMARK VINA RESULT:      -7.4      0.572      1.261
REMARK  Name = 
REMARK  16 active torsions:
REMARK  status: ('A' for Active; 'I' for Inactive)
REMARK    1  A    between atoms: C_1  and  C_2
REMARK    2  A    between atoms: C_2  and  C_3
REMARK    3  A    between atoms: C_3  and  C_4
REMARK    4  A    between atoms: C_4  and  C_5
REMARK    5  A    between atoms: C_5  and  N_6
REMARK    6  A    between atoms: C_5  and  C_7
REMARK    7  A    between atoms: N_9  and  C_10
REMARK    8  A    between atoms: C_12  and  C_13
REMARK    9  A    between atoms: N_15  and  C_16
REMARK   10  A    between atoms: C_16  and  C_17
REMARK   11  A    between atoms: C_16  and  C_25
REMARK   12  A    between atoms: C_17  and  C_18
REMARK   13  A    between atoms: C_21  and  O_22
REMARK   14  A    between atoms: C_25  and  O_27
REMARK   15  A    between atoms: O_27  and  C_28
REMARK   16  A    between atoms: C_31  and  N_32
REMARK                            x       y       z     vdW  Elec       q    Type
REMARK                         _______ _______ _______ _____ _____    ______ ____
ROOT
ATOM      1  C   UNL     1       3.841   6.090  18.426  0.00  0.00    +0.000 A 
ATOM      2  C   UNL     1       3.335   7.371  18.133  0.00  0.00    +0.000 A 
ATOM      3  C   UNL     1       2.221   7.882  18.819  0.00  0.00    +0.000 A 
ATOM      4  C   UNL     1       1.585   7.103  19.784  0.00  0.00    +0.000 A 
ATOM      5  C   UNL     1       2.118   5.864  20.133  0.00  0.00    +0.000 A 
ATOM      6  C   UNL     1       3.250   5.347  19.479  0.00  0.00    +0.000 A 
ENDROOT
BRANCH   1   9
ATOM      7  C   UNL     1       6.203   5.314  18.019  0.00  0.00    +0.000 C 
ATOM      8  O   UNL     1       6.666   5.571  19.134  0.00  0.00    +0.000 OA
ATOM      9  N   UNL     1       4.875   5.468  17.656  0.00  0.00    +0.000 N 
ATOM     10  H   UNL     1       4.644   5.293  16.690  0.00  0.00    +0.000 HD
BRANCH   7  11
ATOM     11  C   UNL     1       7.168   4.876  16.868  0.00  0.00    +0.000 C 
BRANCH  11  12
ATOM     12  N   UNL     1       8.240   4.035  17.464  0.00  0.00    +0.000 NA
ATOM     13  H   UNL     1       8.535   3.373  16.734  0.00  0.00    +0.000 HD
ATOM     14  H   UNL     1       7.812   3.419  18.157  0.00  0.00    +0.000 HD
ENDBRANCH  11  12
BRANCH  11  15
ATOM     15  C   UNL     1       6.532   4.035  15.752  0.00  0.00    +0.000 C 
BRANCH  15  16
ATOM     16  C   UNL     1       5.660   4.830  14.781  0.00  0.00    +0.000 C 
BRANCH  16  18
ATOM     17  C   UNL     1       6.658   3.659  12.784  0.00  0.00    +0.000 C 
ATOM     18  C   UNL     1       5.371   4.023  13.510  0.00  0.00    +0.000 C 
ENDBRANCH  16  18
ENDBRANCH  15  16
ENDBRANCH  11  15
ENDBRANCH   7  11
ENDBRANCH   1   9
BRANCH   3  19
ATOM     19  C   UNL     1       1.669   9.242  18.561  0.00  0.00    +0.000 C 
ATOM     20  O   UNL     1       1.915   9.819  17.510  0.00  0.00    +0.000 OA
ATOM     21  N   UNL     1       0.818   9.744  19.516  0.00  0.00    +0.000 N 
ATOM     22  H   UNL     1       0.608   9.209  20.352  0.00  0.00    +0.000 HD
BRANCH  21  23
ATOM     23  C   UNL     1       0.111  11.028  19.366  0.00  0.00    +0.000 C 
BRANCH  23  24
ATOM     24  C   UNL     1       0.705  12.025  20.372  0.00  0.00    +0.000 C 
ATOM     25  O   UNL     1       1.118  11.716  21.485  0.00  0.00    +0.000 OA
BRANCH  24  26
ATOM     26  O   UNL     1       0.755  13.281  19.848  0.00  0.00    +0.000 OA
ATOM     27  C   UNL     1       1.173  13.329  18.480  0.00  0.00    +0.000 C 
ENDBRANCH  24  26
ENDBRANCH  23  24
BRANCH  23  28
ATOM     28  C   UNL     1      -1.425  10.954  19.497  0.00  0.00    +0.000 C 
BRANCH  28  29
ATOM     29  C   UNL     1      -2.182  10.837  18.189  0.00  0.00    +0.000 A 
ATOM     30  C   UNL     1      -3.370  11.550  17.967  0.00  0.00    +0.000 A 
ATOM     31  C   UNL     1      -4.093  11.367  16.784  0.00  0.00    +0.000 A 
ATOM     32  C   UNL     1      -3.622  10.476  15.825  0.00  0.00    +0.000 A 
ATOM     33  C   UNL     1      -2.425   9.796  16.008  0.00  0.00    +0.000 A 
ATOM     34  C   UNL     1      -1.702   9.987  17.186  0.00  0.00    +0.000 A 
BRANCH  32  35
ATOM     35  O   UNL     1      -4.313  10.236  14.674  0.00  0.00    +0.000 OA
ATOM     36  H   UNL     1      -4.454   9.279  14.593  0.00  0.00    +0.000 HD
ENDBRANCH  32  35
ENDBRANCH  28  29
ENDBRANCH  23  28
ENDBRANCH  21  23
ENDBRANCH   3  19
BRANCH   6  37
ATOM     37  N   UNL     1       3.814   4.182  20.010  0.00  0.00    +0.000 N 
ATOM     38  H   UNL     1       3.316   3.732  20.767  0.00  0.00    +0.000 HD
ATOM     39  H   UNL     1       4.426   3.591  19.473  0.00  0.00    +0.000 HD
ENDBRANCH   6  37
TORSDOF 14
ENDMDL
MODEL 5
REMARK VINA RESULT:      -7.4      3.204      9.533
REMARK  Name = 
REMARK  16 active torsions:
REMARK  status: ('A' for Active; 'I' for Inactive)
REMARK    1  A    between atoms: C_1  and  C_2
REMARK    2  A    between atoms: C_2  and  C_3
REMARK    3  A    between atoms: C_3  and  C_4
REMARK    4  A    between atoms: C_4  and  C_5
REMARK    5  A    between atoms: C_5  and  N_6
REMARK    6  A    between atoms: C_5  and  C_7
REMARK    7  A    between atoms: N_9  and  C_10
REMARK    8  A    between atoms: C_12  and  C_13
REMARK    9  A    between atoms: N_15  and  C_16
REMARK   10  A    between atoms: C_16  and  C_17
REMARK   11  A    between atoms: C_16  and  C_25
REMARK   12  A    between atoms: C_17  and  C_18
REMARK   13  A    between atoms: C_21  and  O_22
REMARK   14  A    between atoms: C_25  and  O_27
REMARK   15  A    between atoms: O_27  and  C_28
REMARK   16  A    between atoms: C_31  and  N_32
REMARK                            x       y       z     vdW  Elec       q    Type
REMARK                         _______ _______ _______ _____ _____    ______ ____
ROOT
ATOM      1  C   UNL     1       1.188   8.786  19.667  0.00  0.00    +0.000 A 
ATOM      2  C   UNL     1       2.051   7.674  19.713  0.00  0.00    +0.000 A 
ATOM      3  C   UNL     1       2.847   7.331  18.607  0.00  0.00    +0.000 A 
ATOM      4  C   UNL     1       2.764   8.082  17.435  0.00  0.00    +0.000 A 
ATOM      5  C   UNL     1       1.969   9.225  17.401  0.00  0.00    +0.000 A 
ATOM      6  C   UNL     1       1.187   9.603  18.507  0.00  0.00    +0.000 A 
ENDROOT
BRANCH   1   9
ATOM      7  C   UNL     1       0.429   9.979  21.752  0.00  0.00    +0.000 C 
ATOM      8  O   UNL     1       1.378  10.759  21.863  0.00  0.00    +0.000 OA
ATOM      9  N   UNL     1       0.252   9.086  20.707  0.00  0.00    +0.000 N 
ATOM     10  H   UNL     1      -0.529   8.452  20.777  0.00  0.00    +0.000 HD
BRANCH   7  11
ATOM     11  C   UNL     1      -0.626   9.882  22.904  0.00  0.00    +0.000 C 
BRANCH  11  12
ATOM     12  N   UNL     1       0.104   9.617  24.173  0.00  0.00    +0.000 NA
ATOM     13  H   UNL     1       0.996   9.176  23.913  0.00  0.00    +0.000 HD
ATOM     14  H   UNL     1      -0.378   8.863  24.664  0.00  0.00    +0.000 HD
ENDBRANCH  11  12
BRANCH  11  15
ATOM     15  C   UNL     1      -1.465  11.144  23.146  0.00  0.00    +0.000 C 
BRANCH  15  16
ATOM     16  C   UNL     1      -0.909  12.408  22.491  0.00  0.00    +0.000 C 
BRANCH  16  18
ATOM     17  C   UNL     1      -1.518  13.285  20.208  0.00  0.00    +0.000 C 
ATOM     18  C   UNL     1      -1.978  13.110  21.647  0.00  0.00    +0.000 C 
ENDBRANCH  16  18
ENDBRANCH  15  16
ENDBRANCH  11  15
ENDBRANCH   7  11
ENDBRANCH   1   9
BRANCH   3  19
ATOM     19  C   UNL     1       3.794   6.181  18.620  0.00  0.00    +0.000 C 
ATOM     20  O   UNL     1       4.275   5.791  19.676  0.00  0.00    +0.000 OA
ATOM     21  N   UNL     1       4.006   5.553  17.417  0.00  0.00    +0.000 N 
ATOM     22  H   UNL     1       3.548   5.887  16.574  0.00  0.00    +0.000 HD
BRANCH  21  23
ATOM     23  C   UNL     1       4.833   4.343  17.278  0.00  0.00    +0.000 C 
BRANCH  23  24
ATOM     24  C   UNL     1       5.629   4.451  15.969  0.00  0.00    +0.000 C 
ATOM     25  O   UNL     1       5.199   4.107  14.872  0.00  0.00    +0.000 OA
BRANCH  24  26
ATOM     26  O   UNL     1       6.849   5.016  16.180  0.00  0.00    +0.000 OA
ATOM     27  C   UNL     1       7.504   4.567  17.371  0.00  0.00    +0.000 C 
ENDBRANCH  24  26
ENDBRANCH  23  24
BRANCH  23  28
ATOM     28  C   UNL     1       4.063   3.006  17.352  0.00  0.00    +0.000 C 
BRANCH  28  29
ATOM     29  C   UNL     1       3.242   2.802  18.609  0.00  0.00    +0.000 A 
ATOM     30  C   UNL     1       1.844   2.928  18.597  0.00  0.00    +0.000 A 
ATOM     31  C   UNL     1       1.114   2.814  19.784  0.00  0.00    +0.000 A 
ATOM     32  C   UNL     1       1.783   2.568  20.978  0.00  0.00    +0.000 A 
ATOM     33  C   UNL     1       3.162   2.396  21.003  0.00  0.00    +0.000 A 
ATOM     34  C   UNL     1       3.886   2.502  19.816  0.00  0.00    +0.000 A 
BRANCH  32  35
ATOM     35  O   UNL     1       1.118   2.487  22.166  0.00  0.00    +0.000 OA
ATOM     36  H   UNL     1       0.168   2.590  21.995  0.00  0.00    +0.000 HD
ENDBRANCH  32  35
ENDBRANCH  28  29
ENDBRANCH  23  28
ENDBRANCH  21  23
ENDBRANCH   3  19
BRANCH   6  37
ATOM     37  N   UNL     1       0.558  10.851  18.446  0.00  0.00    +0.000 N 
ATOM     38  H   UNL     1       0.126  11.106  17.568  0.00  0.00    +0.000 HD
ATOM     39  H   UNL     1       0.194  11.308  19.264  0.00  0.00    +0.000 HD
ENDBRANCH   6  37
TORSDOF 14
ENDMDL
MODEL 6
REMARK VINA RESULT:      -7.3      1.441      1.587
REMARK  Name = 
REMARK  16 active torsions:
REMARK  status: ('A' for Active; 'I' for Inactive)
REMARK    1  A    between atoms: C_1  and  C_2
REMARK    2  A    between atoms: C_2  and  C_3
REMARK    3  A    between atoms: C_3  and  C_4
REMARK    4  A    between atoms: C_4  and  C_5
REMARK    5  A    between atoms: C_5  and  N_6
REMARK    6  A    between atoms: C_5  and  C_7
REMARK    7  A    between atoms: N_9  and  C_10
REMARK    8  A    between atoms: C_12  and  C_13
REMARK    9  A    between atoms: N_15  and  C_16
REMARK   10  A    between atoms: C_16  and  C_17
REMARK   11  A    between atoms: C_16  and  C_25
REMARK   12  A    between atoms: C_17  and  C_18
REMARK   13  A    between atoms: C_21  and  O_22
REMARK   14  A    between atoms: C_25  and  O_27
REMARK   15  A    between atoms: O_27  and  C_28
REMARK   16  A    between atoms: C_31  and  N_32
REMARK                            x       y       z     vdW  Elec       q    Type
REMARK                         _______ _______ _______ _____ _____    ______ ____
ROOT
ATOM      1  C   UNL     1       4.426   5.846  18.119  0.00  0.00    +0.000 A 
ATOM      2  C   UNL     1       3.736   7.065  17.970  0.00  0.00    +0.000 A 
ATOM      3  C   UNL     1       2.598   7.350  18.743  0.00  0.00    +0.000 A 
ATOM      4  C   UNL     1       2.124   6.405  19.652  0.00  0.00    +0.000 A 
ATOM      5  C   UNL     1       2.838   5.226  19.859  0.00  0.00    +0.000 A 
ATOM      6  C   UNL     1       3.996   4.935  19.117  0.00  0.00    +0.000 A 
ENDROOT
BRANCH   1   9
ATOM      7  C   UNL     1       5.689   5.839  15.939  0.00  0.00    +0.000 C 
ATOM      8  O   UNL     1       5.036   6.707  15.355  0.00  0.00    +0.000 OA
ATOM      9  N   UNL     1       5.495   5.449  17.254  0.00  0.00    +0.000 N 
ATOM     10  H   UNL     1       6.049   4.674  17.586  0.00  0.00    +0.000 HD
BRANCH   7  11
ATOM     11  C   UNL     1       6.760   5.018  15.147  0.00  0.00    +0.000 C 
BRANCH  11  12
ATOM     12  N   UNL     1       7.785   4.547  16.117  0.00  0.00    +0.000 NA
ATOM     13  H   UNL     1       8.166   3.669  15.740  0.00  0.00    +0.000 HD
ATOM     14  H   UNL     1       7.303   4.233  16.960  0.00  0.00    +0.000 HD
ENDBRANCH  11  12
BRANCH  11  15
ATOM     15  C   UNL     1       6.241   3.765  14.429  0.00  0.00    +0.000 C 
BRANCH  15  16
ATOM     16  C   UNL     1       5.201   4.043  13.344  0.00  0.00    +0.000 C 
BRANCH  16  18
ATOM     17  C   UNL     1       4.228   3.138  11.203  0.00  0.00    +0.000 C 
ATOM     18  C   UNL     1       5.454   3.183  12.101  0.00  0.00    +0.000 C 
ENDBRANCH  16  18
ENDBRANCH  15  16
ENDBRANCH  11  15
ENDBRANCH   7  11
ENDBRANCH   1   9
BRANCH   3  19
ATOM     19  C   UNL     1       1.854   8.636  18.639  0.00  0.00    +0.000 C 
ATOM     20  O   UNL     1       1.743   9.199  17.558  0.00  0.00    +0.000 OA
ATOM     21  N   UNL     1       1.242   9.080  19.786  0.00  0.00    +0.000 N 
ATOM     22  H   UNL     1       1.325   8.554  20.651  0.00  0.00    +0.000 HD
BRANCH  21  23
ATOM     23  C   UNL     1       0.387  10.278  19.829  0.00  0.00    +0.000 C 
BRANCH  23  24
ATOM     24  C   UNL     1       0.784  11.111  21.057  0.00  0.00    +0.000 C 
ATOM     25  O   UNL     1       1.606  12.022  21.033  0.00  0.00    +0.000 OA
BRANCH  24  26
ATOM     26  O   UNL     1       0.074  10.735  22.156  0.00  0.00    +0.000 OA
ATOM     27  C   UNL     1      -0.796  11.751  22.666  0.00  0.00    +0.000 C 
ENDBRANCH  24  26
ENDBRANCH  23  24
BRANCH  23  28
ATOM     28  C   UNL     1      -1.132  10.005  19.809  0.00  0.00    +0.000 C 
BRANCH  28  29
ATOM     29  C   UNL     1      -1.837  10.360  18.515  0.00  0.00    +0.000 A 
ATOM     30  C   UNL     1      -2.842   9.539  17.981  0.00  0.00    +0.000 A 
ATOM     31  C   UNL     1      -3.423   9.845  16.747  0.00  0.00    +0.000 A 
ATOM     32  C   UNL     1      -3.002  10.974  16.054  0.00  0.00    +0.000 A 
ATOM     33  C   UNL     1      -2.040  11.824  16.587  0.00  0.00    +0.000 A 
ATOM     34  C   UNL     1      -1.469  11.519  17.823  0.00  0.00    +0.000 A 
BRANCH  32  35
ATOM     35  O   UNL     1      -3.511  11.291  14.828  0.00  0.00    +0.000 OA
ATOM     36  H   UNL     1      -3.121  10.696  14.169  0.00  0.00    +0.000 HD
ENDBRANCH  32  35
ENDBRANCH  28  29
ENDBRANCH  23  28
ENDBRANCH  21  23
ENDBRANCH   3  19
BRANCH   6  37
ATOM     37  N   UNL     1       4.740   3.818  19.511  0.00  0.00    +0.000 N 
ATOM     38  H   UNL     1       5.168   3.849  20.428  0.00  0.00    +0.000 HD
ATOM     39  H   UNL     1       4.566   2.900  19.139  0.00  0.00    +0.000 HD
ENDBRANCH   6  37
TORSDOF 14
ENDMDL
MODEL 7
REMARK VINA RESULT:      -7.3      2.304      4.193
REMARK  Name = 
REMARK  16 active torsions:
REMARK  status: ('A' for Active; 'I' for Inactive)
REMARK    1  A    between atoms: C_1  and  C_2
REMARK    2  A    between atoms: C_2  and  C_3
REMARK    3  A    between atoms: C_3  and  C_4
REMARK    4  A    between atoms: C_4  and  C_5
REMARK    5  A    between atoms: C_5  and  N_6
REMARK    6  A    between atoms: C_5  and  C_7
REMARK    7  A    between atoms: N_9  and  C_10
REMARK    8  A    between atoms: C_12  and  C_13
REMARK    9  A    between atoms: N_15  and  C_16
REMARK   10  A    between atoms: C_16  and  C_17
REMARK   11  A    between atoms: C_16  and  C_25
REMARK   12  A    between atoms: C_17  and  C_18
REMARK   13  A    between atoms: C_21  and  O_22
REMARK   14  A    between atoms: C_25  and  O_27
REMARK   15  A    between atoms: O_27  and  C_28
REMARK   16  A    between atoms: C_31  and  N_32
REMARK                            x       y       z     vdW  Elec       q    Type
REMARK                         _______ _______ _______ _____ _____    ______ ____
ROOT
ATOM      1  C   UNL     1       3.572   5.226  19.249  0.00  0.00    +0.000 A 
ATOM      2  C   UNL     1       3.130   6.546  19.460  0.00  0.00    +0.000 A 
ATOM      3  C   UNL     1       2.011   6.813  20.264  0.00  0.00    +0.000 A 
ATOM      4  C   UNL     1       1.305   5.759  20.842  0.00  0.00    +0.000 A 
ATOM      5  C   UNL     1       1.774   4.454  20.700  0.00  0.00    +0.000 A 
ATOM      6  C   UNL     1       2.910   4.168  19.923  0.00  0.00    +0.000 A 
ENDROOT
BRANCH   1   9
ATOM      7  C   UNL     1       5.977   4.971  18.542  0.00  0.00    +0.000 C 
ATOM      8  O   UNL     1       6.506   5.211  19.630  0.00  0.00    +0.000 OA
ATOM      9  N   UNL     1       4.611   4.893  18.322  0.00  0.00    +0.000 N 
ATOM     10  H   UNL     1       4.309   4.764  17.368  0.00  0.00    +0.000 HD
BRANCH   7  11
ATOM     11  C   UNL     1       6.871   4.838  17.264  0.00  0.00    +0.000 C 
BRANCH  11  12
ATOM     12  N   UNL     1       8.118   4.125  17.650  0.00  0.00    +0.000 NA
ATOM     13  H   UNL     1       7.829   3.268  18.139  0.00  0.00    +0.000 HD
ATOM     14  H   UNL     1       8.571   4.658  18.394  0.00  0.00    +0.000 HD
ENDBRANCH  11  12
BRANCH  11  15
ATOM     15  C   UNL     1       6.260   4.038  16.105  0.00  0.00    +0.000 C 
BRANCH  15  16
ATOM     16  C   UNL     1       5.933   4.871  14.866  0.00  0.00    +0.000 C 
BRANCH  16  18
ATOM     17  C   UNL     1       5.776   3.504  12.754  0.00  0.00    +0.000 C 
ATOM     18  C   UNL     1       6.683   4.349  13.636  0.00  0.00    +0.000 C 
ENDBRANCH  16  18
ENDBRANCH  15  16
ENDBRANCH  11  15
ENDBRANCH   7  11
ENDBRANCH   1   9
BRANCH   3  19
ATOM     19  C   UNL     1       1.525   8.195  20.538  0.00  0.00    +0.000 C 
ATOM     20  O   UNL     1       1.424   8.597  21.690  0.00  0.00    +0.000 OA
ATOM     21  N   UNL     1       1.296   8.989  19.440  0.00  0.00    +0.000 N 
ATOM     22  H   UNL     1       1.437   8.624  18.502  0.00  0.00    +0.000 HD
BRANCH  21  23
ATOM     23  C   UNL     1       0.910  10.406  19.539  0.00  0.00    +0.000 C 
BRANCH  23  24
ATOM     24  C   UNL     1      -0.621  10.495  19.469  0.00  0.00    +0.000 C 
ATOM     25  O   UNL     1      -1.298  10.000  18.574  0.00  0.00    +0.000 OA
BRANCH  24  26
ATOM     26  O   UNL     1      -1.126  11.153  20.549  0.00  0.00    +0.000 OA
ATOM     27  C   UNL     1      -1.992  12.243  20.218  0.00  0.00    +0.000 C 
ENDBRANCH  24  26
ENDBRANCH  23  24
BRANCH  23  28
ATOM     28  C   UNL     1       1.570  11.344  18.505  0.00  0.00    +0.000 C 
BRANCH  28  29
ATOM     29  C   UNL     1       2.078  12.660  19.057  0.00  0.00    +0.000 A 
ATOM     30  C   UNL     1       1.899  13.005  20.405  0.00  0.00    +0.000 A 
ATOM     31  C   UNL     1       2.305  14.258  20.874  0.00  0.00    +0.000 A 
ATOM     32  C   UNL     1       2.895  15.160  19.995  0.00  0.00    +0.000 A 
ATOM     33  C   UNL     1       3.120  14.820  18.667  0.00  0.00    +0.000 A 
ATOM     34  C   UNL     1       2.721  13.566  18.204  0.00  0.00    +0.000 A 
BRANCH  32  35
ATOM     35  O   UNL     1       3.271  16.408  20.398  0.00  0.00    +0.000 OA
ATOM     36  H   UNL     1       3.189  16.457  21.364  0.00  0.00    +0.000 HD
ENDBRANCH  32  35
ENDBRANCH  28  29
ENDBRANCH  23  28
ENDBRANCH  21  23
ENDBRANCH   3  19
BRANCH   6  37
ATOM     37  N   UNL     1       3.405   2.861  19.978  0.00  0.00    +0.000 N 
ATOM     38  H   UNL     1       3.932   2.601  20.802  0.00  0.00    +0.000 HD
ATOM     39  H   UNL     1       2.974   2.103  19.475  0.00  0.00    +0.000 HD
ENDBRANCH   6  37
TORSDOF 14
ENDMDL
MODEL 8
REMARK VINA RESULT:      -7.2      1.798      4.153
REMARK  Name = 
REMARK  16 active torsions:
REMARK  status: ('A' for Active; 'I' for Inactive)
REMARK    1  A    between atoms: C_1  and  C_2
REMARK    2  A    between atoms: C_2  and  C_3
REMARK    3  A    between atoms: C_3  and  C_4
REMARK    4  A    between atoms: C_4  and  C_5
REMARK    5  A    between atoms: C_5  and  N_6
REMARK    6  A    between atoms: C_5  and  C_7
REMARK    7  A    between atoms: N_9  and  C_10
REMARK    8  A    between atoms: C_12  and  C_13
REMARK    9  A    between atoms: N_15  and  C_16
REMARK   10  A    between atoms: C_16  and  C_17
REMARK   11  A    between atoms: C_16  and  C_25
REMARK   12  A    between atoms: C_17  and  C_18
REMARK   13  A    between atoms: C_21  and  O_22
REMARK   14  A    between atoms: C_25  and  O_27
REMARK   15  A    between atoms: O_27  and  C_28
REMARK   16  A    between atoms: C_31  and  N_32
REMARK                            x       y       z     vdW  Elec       q    Type
REMARK                         _______ _______ _______ _____ _____    ______ ____
ROOT
ATOM      1  C   UNL     1       3.561   5.363  19.023  0.00  0.00    +0.000 A 
ATOM      2  C   UNL     1       3.063   6.665  19.226  0.00  0.00    +0.000 A 
ATOM      3  C   UNL     1       2.012   6.903  20.128  0.00  0.00    +0.000 A 
ATOM      4  C   UNL     1       1.431   5.837  20.812  0.00  0.00    +0.000 A 
ATOM      5  C   UNL     1       1.961   4.556  20.673  0.00  0.00    +0.000 A 
ATOM      6  C   UNL     1       3.032   4.300  19.799  0.00  0.00    +0.000 A 
ENDROOT
BRANCH   1   9
ATOM      7  C   UNL     1       5.869   4.778  18.199  0.00  0.00    +0.000 C 
ATOM      8  O   UNL     1       6.414   4.631  19.296  0.00  0.00    +0.000 OA
ATOM      9  N   UNL     1       4.523   5.049  18.011  0.00  0.00    +0.000 N 
ATOM     10  H   UNL     1       4.221   5.221  17.064  0.00  0.00    +0.000 HD
BRANCH   7  11
ATOM     11  C   UNL     1       6.739   4.769  16.899  0.00  0.00    +0.000 C 
BRANCH  11  12
ATOM     12  N   UNL     1       8.065   4.187  17.240  0.00  0.00    +0.000 NA
ATOM     13  H   UNL     1       8.760   4.674  16.660  0.00  0.00    +0.000 HD
ATOM     14  H   UNL     1       8.099   3.236  16.869  0.00  0.00    +0.000 HD
ENDBRANCH  11  12
BRANCH  11  15
ATOM     15  C   UNL     1       6.189   3.933  15.736  0.00  0.00    +0.000 C 
BRANCH  15  16
ATOM     16  C   UNL     1       6.165   4.659  14.392  0.00  0.00    +0.000 C 
BRANCH  16  18
ATOM     17  C   UNL     1       6.333   3.399  12.215  0.00  0.00    +0.000 C 
ATOM     18  C   UNL     1       5.407   3.846  13.337  0.00  0.00    +0.000 C 
ENDBRANCH  16  18
ENDBRANCH  15  16
ENDBRANCH  11  15
ENDBRANCH   7  11
ENDBRANCH   1   9
BRANCH   3  19
ATOM     19  C   UNL     1       1.473   8.266  20.396  0.00  0.00    +0.000 C 
ATOM     20  O   UNL     1       1.352   8.666  21.546  0.00  0.00    +0.000 OA
ATOM     21  N   UNL     1       1.219   9.048  19.295  0.00  0.00    +0.000 N 
ATOM     22  H   UNL     1       1.378   8.687  18.359  0.00  0.00    +0.000 HD
BRANCH  21  23
ATOM     23  C   UNL     1       0.780  10.450  19.389  0.00  0.00    +0.000 C 
BRANCH  23  24
ATOM     24  C   UNL     1      -0.640  10.550  18.810  0.00  0.00    +0.000 C 
ATOM     25  O   UNL     1      -1.560  11.160  19.347  0.00  0.00    +0.000 OA
BRANCH  24  26
ATOM     26  O   UNL     1      -0.727   9.915  17.609  0.00  0.00    +0.000 OA
ATOM     27  C   UNL     1      -2.040   9.920  17.039  0.00  0.00    +0.000 C 
ENDBRANCH  24  26
ENDBRANCH  23  24
BRANCH  23  28
ATOM     28  C   UNL     1       1.722  11.483  18.734  0.00  0.00    +0.000 C 
BRANCH  28  29
ATOM     29  C   UNL     1       1.646  12.883  19.307  0.00  0.00    +0.000 A 
ATOM     30  C   UNL     1       1.085  13.942  18.577  0.00  0.00    +0.000 A 
ATOM     31  C   UNL     1       1.097  15.241  19.094  0.00  0.00    +0.000 A 
ATOM     32  C   UNL     1       1.665  15.476  20.341  0.00  0.00    +0.000 A 
ATOM     33  C   UNL     1       2.185  14.434  21.098  0.00  0.00    +0.000 A 
ATOM     34  C   UNL     1       2.164  13.138  20.583  0.00  0.00    +0.000 A 
BRANCH  32  35
ATOM     35  O   UNL     1       1.735  16.733  20.869  0.00  0.00    +0.000 OA
ATOM     36  H   UNL     1       2.486  16.768  21.483  0.00  0.00    +0.000 HD
ENDBRANCH  32  35
ENDBRANCH  28  29
ENDBRANCH  23  28
ENDBRANCH  21  23
ENDBRANCH   3  19
BRANCH   6  37
ATOM     37  N   UNL     1       3.607   3.027  19.854  0.00  0.00    +0.000 N 
ATOM     38  H   UNL     1       2.990   2.250  20.050  0.00  0.00    +0.000 HD
ATOM     39  H   UNL     1       4.455   2.801  19.361  0.00  0.00    +0.000 HD
ENDBRANCH   6  37
TORSDOF 14
ENDMDL
MODEL 9
REMARK VINA RESULT:      -7.2      2.037      3.955
REMARK  Name = 
REMARK  16 active torsions:
REMARK  status: ('A' for Active; 'I' for Inactive)
REMARK    1  A    between atoms: C_1  and  C_2
REMARK    2  A    between atoms: C_2  and  C_3
REMARK    3  A    between atoms: C_3  and  C_4
REMARK    4  A    between atoms: C_4  and  C_5
REMARK    5  A    between atoms: C_5  and  N_6
REMARK    6  A    between atoms: C_5  and  C_7
REMARK    7  A    between atoms: N_9  and  C_10
REMARK    8  A    between atoms: C_12  and  C_13
REMARK    9  A    between atoms: N_15  and  C_16
REMARK   10  A    between atoms: C_16  and  C_17
REMARK   11  A    between atoms: C_16  and  C_25
REMARK   12  A    between atoms: C_17  and  C_18
REMARK   13  A    between atoms: C_21  and  O_22
REMARK   14  A    between atoms: C_25  and  O_27
REMARK   15  A    between atoms: O_27  and  C_28
REMARK   16  A    between atoms: C_31  and  N_32
REMARK                            x       y       z     vdW  Elec       q    Type
REMARK                         _______ _______ _______ _____ _____    ______ ____
ROOT
ATOM      1  C   UNL     1       3.998   4.938  19.353  0.00  0.00    +0.000 A 
ATOM      2  C   UNL     1       3.238   6.105  19.564  0.00  0.00    +0.000 A 
ATOM      3  C   UNL     1       2.033   6.061  20.284  0.00  0.00    +0.000 A 
ATOM      4  C   UNL     1       1.562   4.844  20.774  0.00  0.00    +0.000 A 
ATOM      5  C   UNL     1       2.339   3.696  20.633  0.00  0.00    +0.000 A 
ATOM      6  C   UNL     1       3.564   3.723  19.942  0.00  0.00    +0.000 A 
ENDROOT
BRANCH   1   9
ATOM      7  C   UNL     1       6.454   5.207  18.859  0.00  0.00    +0.000 C 
ATOM      8  O   UNL     1       6.842   5.421  20.010  0.00  0.00    +0.000 OA
ATOM      9  N   UNL     1       5.150   4.904  18.503  0.00  0.00    +0.000 N 
ATOM     10  H   UNL     1       4.952   4.826  17.517  0.00  0.00    +0.000 HD
BRANCH   7  11
ATOM     11  C   UNL     1       7.452   5.380  17.665  0.00  0.00    +0.000 C 
BRANCH  11  12
ATOM     12  N   UNL     1       8.212   4.110  17.517  0.00  0.00    +0.000 NA
ATOM     13  H   UNL     1       7.518   3.353  17.482  0.00  0.00    +0.000 HD
ATOM     14  H   UNL     1       8.694   3.924  18.398  0.00  0.00    +0.000 HD
ENDBRANCH  11  12
BRANCH  11  15
ATOM     15  C   UNL     1       6.812   5.660  16.299  0.00  0.00    +0.000 C 
BRANCH  15  16
ATOM     16  C   UNL     1       7.160   4.638  15.217  0.00  0.00    +0.000 C 
BRANCH  16  18
ATOM     17  C   UNL     1       6.043   3.753  13.138  0.00  0.00    +0.000 C 
ATOM     18  C   UNL     1       5.895   4.000  14.632  0.00  0.00    +0.000 C 
ENDBRANCH  16  18
ENDBRANCH  15  16
ENDBRANCH  11  15
ENDBRANCH   7  11
ENDBRANCH   1   9
BRANCH   3  19
ATOM     19  C   UNL     1       1.212   7.274  20.555  0.00  0.00    +0.000 C 
ATOM     20  O   UNL     1       0.488   7.320  21.542  0.00  0.00    +0.000 OA
ATOM     21  N   UNL     1       1.390   8.335  19.701  0.00  0.00    +0.000 N 
ATOM     22  H   UNL     1       2.037   8.265  18.921  0.00  0.00    +0.000 HD
BRANCH  21  23
ATOM     23  C   UNL     1       0.731   9.638  19.889  0.00  0.00    +0.000 C 
BRANCH  23  24
ATOM     24  C   UNL     1       0.883  10.447  18.592  0.00  0.00    +0.000 C 
ATOM     25  O   UNL     1       1.911  11.033  18.264  0.00  0.00    +0.000 OA
BRANCH  24  26
ATOM     26  O   UNL     1      -0.251  10.391  17.841  0.00  0.00    +0.000 OA
ATOM     27  C   UNL     1      -1.461  10.419  18.605  0.00  0.00    +0.000 C 
ENDBRANCH  24  26
ENDBRANCH  23  24
BRANCH  23  28
ATOM     28  C   UNL     1       1.211  10.450  21.111  0.00  0.00    +0.000 C 
BRANCH  28  29
ATOM     29  C   UNL     1       0.135  11.243  21.825  0.00  0.00    +0.000 A 
ATOM     30  C   UNL     1      -0.764  10.624  22.707  0.00  0.00    +0.000 A 
ATOM     31  C   UNL     1      -1.798  11.360  23.294  0.00  0.00    +0.000 A 
ATOM     32  C   UNL     1      -1.927  12.713  22.999  0.00  0.00    +0.000 A 
ATOM     33  C   UNL     1      -1.021  13.353  22.163  0.00  0.00    +0.000 A 
ATOM     34  C   UNL     1       0.015  12.617  21.587  0.00  0.00    +0.000 A 
BRANCH  32  35
ATOM     35  O   UNL     1      -2.943  13.463  23.516  0.00  0.00    +0.000 OA
ATOM     36  H   UNL     1      -3.014  13.272  24.465  0.00  0.00    +0.000 HD
ENDBRANCH  32  35
ENDBRANCH  28  29
ENDBRANCH  23  28
ENDBRANCH  21  23
ENDBRANCH   3  19
BRANCH   6  37
ATOM     37  N   UNL     1       4.353   2.570  20.000  0.00  0.00    +0.000 N 
ATOM     38  H   UNL     1       5.147   2.522  19.375  0.00  0.00    +0.000 HD
ATOM     39  H   UNL     1       4.412   2.003  20.830  0.00  0.00    +0.000 HD
ENDBRANCH   6  37
TORSDOF 14
ENDMDL
