MODEL 1
REMARK VINA RESULT:      -8.1      0.000      0.000
REMARK  Name = 
REMARK  5 active torsions:
REMARK  status: ('A' for Active; 'I' for Inactive)
REMARK    1  A    between atoms: C_5  and  C_6
REMARK    2  A    between atoms: C_9  and  C_10
REMARK    3  A    between atoms: C_10  and  O_11
REMARK    4  A    between atoms: O_11  and  C_12
REMARK    5  A    between atoms: C_15  and  C_16
REMARK                            x       y       z     vdW  Elec       q    Type
REMARK                         _______ _______ _______ _____ _____    ______ ____
ROOT
ATOM      1  C   UNL     1       3.164   5.225  19.536  0.00  0.00    +0.000 C 
ENDROOT
BRANCH   1   5
ATOM      2  C   UNL     1       1.469   8.293  20.063  0.00  0.00    +0.000 A 
ATOM      3  N   UNL     1       1.916   8.545  18.848  0.00  0.00    +0.000 NA
ATOM      4  N   UNL     1       2.604   7.427  18.439  0.00  0.00    +0.000 NA
ATOM      5  C   UNL     1       2.527   6.560  19.427  0.00  0.00    +0.000 A 
ATOM      6  O   UNL     1       1.827   7.042  20.507  0.00  0.00    +0.000 OA
BRANCH   2  11
ATOM      7  F   UNL     1      -1.548  11.663  23.364  0.00  0.00    +0.000 F 
ATOM      8  C   UNL     1      -0.825  10.851  22.582  0.00  0.00    +0.000 A 
ATOM      9  C   UNL     1      -0.775  11.084  21.215  0.00  0.00    +0.000 A 
ATOM     10  C   UNL     1      -0.018  10.236  20.403  0.00  0.00    +0.000 A 
ATOM     11  C   UNL     1       0.689   9.149  20.952  0.00  0.00    +0.000 A 
ATOM     12  C   UNL     1       0.622   8.936  22.338  0.00  0.00    +0.000 A 
ATOM     13  C   UNL     1      -0.133   9.788  23.151  0.00  0.00    +0.000 A 
ENDBRANCH   2  11
ENDBRANCH   1   5
BRANCH   1  14
ATOM     14  O   UNL     1       4.581   5.408  19.483  0.00  0.00    +0.000 OA
BRANCH  14  15
ATOM     15  C   UNL     1       5.148   5.306  18.240  0.00  0.00    +0.000 A 
ATOM     16  C   UNL     1       4.596   4.331  17.408  0.00  0.00    +0.000 A 
ATOM     17  C   UNL     1       5.091   4.136  16.112  0.00  0.00    +0.000 A 
ATOM     18  C   UNL     1       6.139   4.926  15.618  0.00  0.00    +0.000 A 
ATOM     19  C   UNL     1       6.670   5.918  16.454  0.00  0.00    +0.000 A 
ATOM     20  C   UNL     1       6.177   6.110  17.752  0.00  0.00    +0.000 A 
BRANCH  18  21
ATOM     21  C   UNL     1       6.640   4.711  14.267  0.00  0.00    +0.000 A 
ATOM     22  N   UNL     1       6.250   3.858  13.339  0.00  0.00    +0.000 NA
ATOM     23  N   UNL     1       7.063   4.069  12.242  0.00  0.00    +0.000 NA
ATOM     24  C   UNL     1       7.887   5.031  12.583  0.00  0.00    +0.000 A 
ATOM     25  O   UNL     1       7.689   5.493  13.848  0.00  0.00    +0.000 OA
ENDBRANCH  18  21
ENDBRANCH  14  15
ENDBRANCH   1  14
TORSDOF 5
ENDMDL
MODEL 2
REMARK VINA RESULT:      -8.1      2.009      2.510
REMARK  Name = 
REMARK  5 active torsions:
REMARK  status: ('A' for Active; 'I' for Inactive)
REMARK    1  A    between atoms: C_5  and  C_6
REMARK    2  A    between atoms: C_9  and  C_10
REMARK    3  A    between atoms: C_10  and  O_11
REMARK    4  A    between atoms: O_11  and  C_12
REMARK    5  A    between atoms: C_15  and  C_16
REMARK                            x       y       z     vdW  Elec       q    Type
REMARK                         _______ _______ _______ _____ _____    ______ ____
ROOT
ATOM      1  C   UNL     1       4.244   3.580  19.673  0.00  0.00    +0.000 C 
ENDROOT
BRANCH   1   5
ATOM      2  C   UNL     1       2.148   6.416  20.035  0.00  0.00    +0.000 A 
ATOM      3  N   UNL     1       1.508   5.616  20.865  0.00  0.00    +0.000 NA
ATOM      4  N   UNL     1       2.201   4.429  20.887  0.00  0.00    +0.000 NA
ATOM      5  C   UNL     1       3.226   4.581  20.074  0.00  0.00    +0.000 A 
ATOM      6  O   UNL     1       3.258   5.821  19.481  0.00  0.00    +0.000 OA
BRANCH   2  11
ATOM      7  F   UNL     1       0.988  11.649  18.417  0.00  0.00    +0.000 F 
ATOM      8  C   UNL     1       1.260  10.400  18.812  0.00  0.00    +0.000 A 
ATOM      9  C   UNL     1       1.888   9.526  17.935  0.00  0.00    +0.000 A 
ATOM     10  C   UNL     1       2.172   8.223  18.352  0.00  0.00    +0.000 A 
ATOM     11  C   UNL     1       1.827   7.785  19.645  0.00  0.00    +0.000 A 
ATOM     12  C   UNL     1       1.194   8.688  20.513  0.00  0.00    +0.000 A 
ATOM     13  C   UNL     1       0.912   9.995  20.096  0.00  0.00    +0.000 A 
ENDBRANCH   2  11
ENDBRANCH   1   5
BRANCH   1  14
ATOM     14  O   UNL     1       5.478   4.268  19.456  0.00  0.00    +0.000 OA
BRANCH  14  15
ATOM     15  C   UNL     1       5.900   4.338  18.155  0.00  0.00    +0.000 A 
ATOM     16  C   UNL     1       4.939   4.019  17.195  0.00  0.00    +0.000 A 
ATOM     17  C   UNL     1       5.254   4.058  15.831  0.00  0.00    +0.000 A 
ATOM     18  C   UNL     1       6.534   4.433  15.400  0.00  0.00    +0.000 A 
ATOM     19  C   UNL     1       7.486   4.774  16.372  0.00  0.00    +0.000 A 
ATOM     20  C   UNL     1       7.172   4.730  17.737  0.00  0.00    +0.000 A 
BRANCH  18  21
ATOM     21  C   UNL     1       6.843   4.470  13.977  0.00  0.00    +0.000 A 
ATOM     22  N   UNL     1       6.446   3.680  12.998  0.00  0.00    +0.000 NA
ATOM     23  N   UNL     1       7.035   4.156  11.842  0.00  0.00    +0.000 NA
ATOM     24  C   UNL     1       7.746   5.197  12.202  0.00  0.00    +0.000 A 
ATOM     25  O   UNL     1       7.682   5.464  13.536  0.00  0.00    +0.000 OA
ENDBRANCH  18  21
ENDBRANCH  14  15
ENDBRANCH   1  14
TORSDOF 5
ENDMDL
MODEL 3
REMARK VINA RESULT:      -8.0      1.999      2.735
REMARK  Name = 
REMARK  5 active torsions:
REMARK  status: ('A' for Active; 'I' for Inactive)
REMARK    1  A    between atoms: C_5  and  C_6
REMARK    2  A    between atoms: C_9  and  C_10
REMARK    3  A    between atoms: C_10  and  O_11
REMARK    4  A    between atoms: O_11  and  C_12
REMARK    5  A    between atoms: C_15  and  C_16
REMARK                            x       y       z     vdW  Elec       q    Type
REMARK                         _______ _______ _______ _____ _____    ______ ____
ROOT
ATOM      1  C   UNL     1       4.098   3.557  19.625  0.00  0.00    +0.000 C 
ENDROOT
BRANCH   1   5
ATOM      2  C   UNL     1       2.184   6.510  20.048  0.00  0.00    +0.000 A 
ATOM      3  N   UNL     1       1.659   5.816  21.038  0.00  0.00    +0.000 NA
ATOM      4  N   UNL     1       2.305   4.603  21.060  0.00  0.00    +0.000 NA
ATOM      5  C   UNL     1       3.192   4.637  20.086  0.00  0.00    +0.000 A 
ATOM      6  O   UNL     1       3.170   5.818  19.385  0.00  0.00    +0.000 OA
BRANCH   2  11
ATOM      7  F   UNL     1       0.827  11.688  18.404  0.00  0.00    +0.000 F 
ATOM      8  C   UNL     1       1.157  10.449  18.789  0.00  0.00    +0.000 A 
ATOM      9  C   UNL     1       0.771   9.997  20.043  0.00  0.00    +0.000 A 
ATOM     10  C   UNL     1       1.116   8.703  20.441  0.00  0.00    +0.000 A 
ATOM     11  C   UNL     1       1.851   7.855  19.590  0.00  0.00    +0.000 A 
ATOM     12  C   UNL     1       2.229   8.337  18.326  0.00  0.00    +0.000 A 
ATOM     13  C   UNL     1       1.880   9.632  17.927  0.00  0.00    +0.000 A 
ENDBRANCH   2  11
ENDBRANCH   1   5
BRANCH   1  14
ATOM     14  O   UNL     1       5.368   4.144  19.329  0.00  0.00    +0.000 OA
BRANCH  14  15
ATOM     15  C   UNL     1       5.675   4.259  17.999  0.00  0.00    +0.000 A 
ATOM     16  C   UNL     1       6.980   4.663  17.718  0.00  0.00    +0.000 A 
ATOM     17  C   UNL     1       7.411   4.812  16.393  0.00  0.00    +0.000 A 
ATOM     18  C   UNL     1       6.546   4.544  15.323  0.00  0.00    +0.000 A 
ATOM     19  C   UNL     1       5.243   4.116  15.616  0.00  0.00    +0.000 A 
ATOM     20  C   UNL     1       4.812   3.971  16.941  0.00  0.00    +0.000 A 
BRANCH  18  21
ATOM     21  C   UNL     1       7.012   4.703  13.951  0.00  0.00    +0.000 A 
ATOM     22  N   UNL     1       6.660   4.064  12.853  0.00  0.00    +0.000 NA
ATOM     23  N   UNL     1       7.410   4.603  11.824  0.00  0.00    +0.000 NA
ATOM     24  C   UNL     1       8.162   5.526  12.373  0.00  0.00    +0.000 A 
ATOM     25  O   UNL     1       7.975   5.654  13.716  0.00  0.00    +0.000 OA
ENDBRANCH  18  21
ENDBRANCH  14  15
ENDBRANCH   1  14
TORSDOF 5
ENDMDL
MODEL 4
REMARK VINA RESULT:      -8.0      5.659      7.827
REMARK  Name = 
REMARK  5 active torsions:
REMARK  status: ('A' for Active; 'I' for Inactive)
REMARK    1  A    between atoms: C_5  and  C_6
REMARK    2  A    between atoms: C_9  and  C_10
REMARK    3  A    between atoms: C_10  and  O_11
REMARK    4  A    between atoms: O_11  and  C_12
REMARK    5  A    between atoms: C_15  and  C_16
REMARK                            x       y       z     vdW  Elec       q    Type
REMARK                         _______ _______ _______ _____ _____    ______ ____
ROOT
ATOM      1  C   UNL     1       8.002   5.911  18.433  0.00  0.00    +0.000 C 
ENDROOT
BRANCH   1   5
ATOM      2  C   UNL     1       8.646   9.396  18.384  0.00  0.00    +0.000 A 
ATOM      3  N   UNL     1       7.777   9.363  17.392  0.00  0.00    +0.000 NA
ATOM      4  N   UNL     1       7.372   8.055  17.262  0.00  0.00    +0.000 NA
ATOM      5  C   UNL     1       8.014   7.374  18.189  0.00  0.00    +0.000 A 
ATOM      6  O   UNL     1       8.856   8.157  18.941  0.00  0.00    +0.000 OA
BRANCH   2  11
ATOM      7  F   UNL     1      11.529  13.785  20.328  0.00  0.00    +0.000 F 
ATOM      8  C   UNL     1      10.836  12.734  19.872  0.00  0.00    +0.000 A 
ATOM      9  C   UNL     1      10.840  12.449  18.514  0.00  0.00    +0.000 A 
ATOM     10  C   UNL     1      10.117  11.350  18.042  0.00  0.00    +0.000 A 
ATOM     11  C   UNL     1       9.382  10.534  18.924  0.00  0.00    +0.000 A 
ATOM     12  C   UNL     1       9.394  10.845  20.293  0.00  0.00    +0.000 A 
ATOM     13  C   UNL     1      10.122  11.943  20.765  0.00  0.00    +0.000 A 
ENDBRANCH   2  11
ENDBRANCH   1   5
BRANCH   1  14
ATOM     14  O   UNL     1       7.336   5.286  17.334  0.00  0.00    +0.000 OA
BRANCH  14  15
ATOM     15  C   UNL     1       6.093   4.775  17.603  0.00  0.00    +0.000 A 
ATOM     16  C   UNL     1       5.719   4.786  18.946  0.00  0.00    +0.000 A 
ATOM     17  C   UNL     1       4.470   4.292  19.343  0.00  0.00    +0.000 A 
ATOM     18  C   UNL     1       3.564   3.791  18.398  0.00  0.00    +0.000 A 
ATOM     19  C   UNL     1       3.940   3.807  17.047  0.00  0.00    +0.000 A 
ATOM     20  C   UNL     1       5.192   4.297  16.652  0.00  0.00    +0.000 A 
BRANCH  18  21
ATOM     21  C   UNL     1       2.267   3.283  18.828  0.00  0.00    +0.000 A 
ATOM     22  N   UNL     1       1.571   3.539  19.919  0.00  0.00    +0.000 NA
ATOM     23  N   UNL     1       0.412   2.791  19.833  0.00  0.00    +0.000 NA
ATOM     24  C   UNL     1       0.490   2.136  18.699  0.00  0.00    +0.000 A 
ATOM     25  O   UNL     1       1.632   2.388  18.002  0.00  0.00    +0.000 OA
ENDBRANCH  18  21
ENDBRANCH  14  15
ENDBRANCH   1  14
TORSDOF 5
ENDMDL
MODEL 5
REMARK VINA RESULT:      -7.9      6.171      8.330
REMARK  Name = 
REMARK  5 active torsions:
REMARK  status: ('A' for Active; 'I' for Inactive)
REMARK    1  A    between atoms: C_5  and  C_6
REMARK    2  A    between atoms: C_9  and  C_10
REMARK    3  A    between atoms: C_10  and  O_11
REMARK    4  A    between atoms: O_11  and  C_12
REMARK    5  A    between atoms: C_15  and  C_16
REMARK                            x       y       z     vdW  Elec       q    Type
REMARK                         _______ _______ _______ _____ _____    ______ ____
ROOT
ATOM      1  C   UNL     1       7.660   7.945  17.556  0.00  0.00    +0.000 C 
ENDROOT
BRANCH   1   5
ATOM      2  C   UNL     1       5.744   5.009  18.074  0.00  0.00    +0.000 A 
ATOM      3  N   UNL     1       6.937   4.450  18.113  0.00  0.00    +0.000 NA
ATOM      4  N   UNL     1       7.855   5.460  17.949  0.00  0.00    +0.000 NA
ATOM      5  C   UNL     1       7.163   6.575  17.830  0.00  0.00    +0.000 A 
ATOM      6  O   UNL     1       5.806   6.370  17.888  0.00  0.00    +0.000 OA
BRANCH   2  11
ATOM      7  F   UNL     1       0.645   2.726  18.458  0.00  0.00    +0.000 F 
ATOM      8  C   UNL     1       1.868   3.263  18.370  0.00  0.00    +0.000 A 
ATOM      9  C   UNL     1       2.029   4.500  17.760  0.00  0.00    +0.000 A 
ATOM     10  C   UNL     1       3.307   5.058  17.671  0.00  0.00    +0.000 A 
ATOM     11  C   UNL     1       4.430   4.383  18.187  0.00  0.00    +0.000 A 
ATOM     12  C   UNL     1       4.239   3.134  18.799  0.00  0.00    +0.000 A 
ATOM     13  C   UNL     1       2.959   2.577  18.891  0.00  0.00    +0.000 A 
ENDBRANCH   2  11
ENDBRANCH   1   5
BRANCH   1  14
ATOM     14  O   UNL     1       8.501   8.335  18.644  0.00  0.00    +0.000 OA
BRANCH  14  15
ATOM     15  C   UNL     1       8.824   9.665  18.700  0.00  0.00    +0.000 A 
ATOM     16  C   UNL     1       8.281  10.457  17.689  0.00  0.00    +0.000 A 
ATOM     17  C   UNL     1       8.538  11.833  17.644  0.00  0.00    +0.000 A 
ATOM     18  C   UNL     1       9.333  12.446  18.622  0.00  0.00    +0.000 A 
ATOM     19  C   UNL     1       9.855  11.646  19.648  0.00  0.00    +0.000 A 
ATOM     20  C   UNL     1       9.601  10.268  19.690  0.00  0.00    +0.000 A 
BRANCH  18  21
ATOM     21  C   UNL     1       9.588  13.879  18.561  0.00  0.00    +0.000 A 
ATOM     22  N   UNL     1      10.613  14.582  19.005  0.00  0.00    +0.000 NA
ATOM     23  N   UNL     1      10.353  15.902  18.691  0.00  0.00    +0.000 NA
ATOM     24  C   UNL     1       9.191  15.905  18.082  0.00  0.00    +0.000 A 
ATOM     25  O   UNL     1       8.637  14.667  17.960  0.00  0.00    +0.000 OA
ENDBRANCH  18  21
ENDBRANCH  14  15
ENDBRANCH   1  14
TORSDOF 5
ENDMDL
MODEL 6
REMARK VINA RESULT:      -7.9      4.907      7.640
REMARK  Name = 
REMARK  5 active torsions:
REMARK  status: ('A' for Active; 'I' for Inactive)
REMARK    1  A    between atoms: C_5  and  C_6
REMARK    2  A    between atoms: C_9  and  C_10
REMARK    3  A    between atoms: C_10  and  O_11
REMARK    4  A    between atoms: O_11  and  C_12
REMARK    5  A    between atoms: C_15  and  C_16
REMARK                            x       y       z     vdW  Elec       q    Type
REMARK                         _______ _______ _______ _____ _____    ______ ____
ROOT
ATOM      1  C   UNL     1       6.631   5.771  15.907  0.00  0.00    +0.000 C 
ENDROOT
BRANCH   1   5
ATOM      2  C   UNL     1       8.123   8.141  18.080  0.00  0.00    +0.000 A 
ATOM      3  N   UNL     1       8.216   7.092  18.873  0.00  0.00    +0.000 NA
ATOM      4  N   UNL     1       7.695   6.024  18.181  0.00  0.00    +0.000 NA
ATOM      5  C   UNL     1       7.324   6.488  17.005  0.00  0.00    +0.000 A 
ATOM      6  O   UNL     1       7.554   7.835  16.866  0.00  0.00    +0.000 OA
BRANCH   2  11
ATOM      7  F   UNL     1       9.589  13.479  18.922  0.00  0.00    +0.000 F 
ATOM      8  C   UNL     1       9.243  12.201  18.729  0.00  0.00    +0.000 A 
ATOM      9  C   UNL     1       8.416  11.869  17.666  0.00  0.00    +0.000 A 
ATOM     10  C   UNL     1       8.057  10.533  17.467  0.00  0.00    +0.000 A 
ATOM     11  C   UNL     1       8.521   9.523  18.331  0.00  0.00    +0.000 A 
ATOM     12  C   UNL     1       9.357   9.885  19.399  0.00  0.00    +0.000 A 
ATOM     13  C   UNL     1       9.718  11.223  19.596  0.00  0.00    +0.000 A 
ENDBRANCH   2  11
ENDBRANCH   1   5
BRANCH   1  14
ATOM     14  O   UNL     1       5.231   6.037  16.023  0.00  0.00    +0.000 OA
BRANCH  14  15
ATOM     15  C   UNL     1       4.610   5.494  17.117  0.00  0.00    +0.000 A 
ATOM     16  C   UNL     1       4.628   4.102  17.187  0.00  0.00    +0.000 A 
ATOM     17  C   UNL     1       4.028   3.433  18.261  0.00  0.00    +0.000 A 
ATOM     18  C   UNL     1       3.411   4.149  19.296  0.00  0.00    +0.000 A 
ATOM     19  C   UNL     1       3.419   5.550  19.229  0.00  0.00    +0.000 A 
ATOM     20  C   UNL     1       4.016   6.217  18.151  0.00  0.00    +0.000 A 
BRANCH  18  21
ATOM     21  C   UNL     1       2.793   3.438  20.408  0.00  0.00    +0.000 A 
ATOM     22  N   UNL     1       3.336   2.685  21.345  0.00  0.00    +0.000 NA
ATOM     23  N   UNL     1       2.301   2.250  22.152  0.00  0.00    +0.000 NA
ATOM     24  C   UNL     1       1.208   2.767  21.645  0.00  0.00    +0.000 A 
ATOM     25  O   UNL     1       1.428   3.531  20.540  0.00  0.00    +0.000 OA
ENDBRANCH  18  21
ENDBRANCH  14  15
ENDBRANCH   1  14
TORSDOF 5
ENDMDL
MODEL 7
REMARK VINA RESULT:      -7.8      4.204      9.433
REMARK  Name = 
REMARK  5 active torsions:
REMARK  status: ('A' for Active; 'I' for Inactive)
REMARK    1  A    between atoms: C_5  and  C_6
REMARK    2  A    between atoms: C_9  and  C_10
REMARK    3  A    between atoms: C_10  and  O_11
REMARK    4  A    between atoms: O_11  and  C_12
REMARK    5  A    between atoms: C_15  and  C_16
REMARK                            x       y       z     vdW  Elec       q    Type
REMARK                         _______ _______ _______ _____ _____    ______ ____
ROOT
ATOM      1  C   UNL     1       5.007   5.212  19.254  0.00  0.00    +0.000 C 
ENDROOT
BRANCH   1   5
ATOM      2  C   UNL     1       6.911   4.611  16.325  0.00  0.00    +0.000 A 
ATOM      3  N   UNL     1       7.869   4.397  17.206  0.00  0.00    +0.000 NA
ATOM      4  N   UNL     1       7.309   4.562  18.450  0.00  0.00    +0.000 NA
ATOM      5  C   UNL     1       6.041   4.859  18.251  0.00  0.00    +0.000 A 
ATOM      6  O   UNL     1       5.710   4.920  16.919  0.00  0.00    +0.000 OA
BRANCH   2  11
ATOM      7  F   UNL     1       7.246   4.574  10.736  0.00  0.00    +0.000 F 
ATOM      8  C   UNL     1       7.160   4.575  12.072  0.00  0.00    +0.000 A 
ATOM      9  C   UNL     1       7.970   5.427  12.809  0.00  0.00    +0.000 A 
ATOM     10  C   UNL     1       7.876   5.427  14.203  0.00  0.00    +0.000 A 
ATOM     11  C   UNL     1       6.976   4.572  14.868  0.00  0.00    +0.000 A 
ATOM     12  C   UNL     1       6.167   3.720  14.099  0.00  0.00    +0.000 A 
ATOM     13  C   UNL     1       6.259   3.724  12.702  0.00  0.00    +0.000 A 
ENDBRANCH   2  11
ENDBRANCH   1   5
BRANCH   1  14
ATOM     14  O   UNL     1       3.747   5.277  18.583  0.00  0.00    +0.000 OA
BRANCH  14  15
ATOM     15  C   UNL     1       3.048   6.445  18.742  0.00  0.00    +0.000 A 
ATOM     16  C   UNL     1       2.409   6.598  19.972  0.00  0.00    +0.000 A 
ATOM     17  C   UNL     1       1.666   7.752  20.252  0.00  0.00    +0.000 A 
ATOM     18  C   UNL     1       1.562   8.784  19.308  0.00  0.00    +0.000 A 
ATOM     19  C   UNL     1       2.227   8.630  18.084  0.00  0.00    +0.000 A 
ATOM     20  C   UNL     1       2.966   7.473  17.803  0.00  0.00    +0.000 A 
BRANCH  18  21
ATOM     21  C   UNL     1       0.786   9.979  19.617  0.00  0.00    +0.000 A 
ATOM     22  N   UNL     1      -0.275  10.131  20.385  0.00  0.00    +0.000 NA
ATOM     23  N   UNL     1      -0.616  11.469  20.327  0.00  0.00    +0.000 NA
ATOM     24  C   UNL     1       0.260  12.030  19.528  0.00  0.00    +0.000 A 
ATOM     25  O   UNL     1       1.182  11.158  19.033  0.00  0.00    +0.000 OA
ENDBRANCH  18  21
ENDBRANCH  14  15
ENDBRANCH   1  14
TORSDOF 5
ENDMDL
MODEL 8
REMARK VINA RESULT:      -7.8      6.057      8.436
REMARK  Name = 
REMARK  5 active torsions:
REMARK  status: ('A' for Active; 'I' for Inactive)
REMARK    1  A    between atoms: C_5  and  C_6
REMARK    2  A    between atoms: C_9  and  C_10
REMARK    3  A    between atoms: C_10  and  O_11
REMARK    4  A    between atoms: O_11  and  C_12
REMARK    5  A    between atoms: C_15  and  C_16
REMARK                            x       y       z     vdW  Elec       q    Type
REMARK                         _______ _______ _______ _____ _____    ______ ____
ROOT
ATOM      1  C   UNL     1       7.897   7.453  18.165  0.00  0.00    +0.000 C 
ENDROOT
BRANCH   1   5
ATOM      2  C   UNL     1       5.354   5.173  17.215  0.00  0.00    +0.000 A 
ATOM      3  N   UNL     1       6.078   5.100  16.115  0.00  0.00    +0.000 NA
ATOM      4  N   UNL     1       7.164   5.923  16.297  0.00  0.00    +0.000 NA
ATOM      5  C   UNL     1       7.039   6.441  17.502  0.00  0.00    +0.000 A 
ATOM      6  O   UNL     1       5.903   6.020  18.149  0.00  0.00    +0.000 OA
BRANCH   2  11
ATOM      7  F   UNL     1       0.593   2.484  18.416  0.00  0.00    +0.000 F 
ATOM      8  C   UNL     1       1.727   3.136  18.131  0.00  0.00    +0.000 A 
ATOM      9  C   UNL     1       2.881   2.414  17.863  0.00  0.00    +0.000 A 
ATOM     10  C   UNL     1       4.063   3.098  17.564  0.00  0.00    +0.000 A 
ATOM     11  C   UNL     1       4.098   4.505  17.536  0.00  0.00    +0.000 A 
ATOM     12  C   UNL     1       2.916   5.211  17.810  0.00  0.00    +0.000 A 
ATOM     13  C   UNL     1       1.732   4.526  18.106  0.00  0.00    +0.000 A 
ENDBRANCH   2  11
ENDBRANCH   1   5
BRANCH   1  14
ATOM     14  O   UNL     1       7.647   8.716  17.545  0.00  0.00    +0.000 OA
BRANCH  14  15
ATOM     15  C   UNL     1       8.348   9.778  18.053  0.00  0.00    +0.000 A 
ATOM     16  C   UNL     1       8.105  11.006  17.438  0.00  0.00    +0.000 A 
ATOM     17  C   UNL     1       8.761  12.165  17.873  0.00  0.00    +0.000 A 
ATOM     18  C   UNL     1       9.663  12.117  18.946  0.00  0.00    +0.000 A 
ATOM     19  C   UNL     1       9.882  10.883  19.572  0.00  0.00    +0.000 A 
ATOM     20  C   UNL     1       9.228   9.724  19.133  0.00  0.00    +0.000 A 
BRANCH  18  21
ATOM     21  C   UNL     1      10.336  13.333  19.387  0.00  0.00    +0.000 A 
ATOM     22  N   UNL     1       9.836  14.494  19.762  0.00  0.00    +0.000 NA
ATOM     23  N   UNL     1      10.912  15.303  20.078  0.00  0.00    +0.000 NA
ATOM     24  C   UNL     1      11.983  14.575  19.871  0.00  0.00    +0.000 A 
ATOM     25  O   UNL     1      11.709  13.316  19.431  0.00  0.00    +0.000 OA
ENDBRANCH  18  21
ENDBRANCH  14  15
ENDBRANCH   1  14
TORSDOF 5
ENDMDL
MODEL 9
REMARK VINA RESULT:      -7.8      1.867      2.453
REMARK  Name = 
REMARK  5 active torsions:
REMARK  status: ('A' for Active; 'I' for Inactive)
REMARK    1  A    between atoms: C_5  and  C_6
REMARK    2  A    between atoms: C_9  and  C_10
REMARK    3  A    between atoms: C_10  and  O_11
REMARK    4  A    between atoms: O_11  and  C_12
REMARK    5  A    between atoms: C_15  and  C_16
REMARK                            x       y       z     vdW  Elec       q    Type
REMARK                         _______ _______ _______ _____ _____    ______ ____
ROOT
ATOM      1  C   UNL     1       4.285   3.240  19.738  0.00  0.00    +0.000 C 
ENDROOT
BRANCH   1   5
ATOM      2  C   UNL     1       1.975   5.884  20.224  0.00  0.00    +0.000 A 
ATOM      3  N   UNL     1       1.208   4.899  20.649  0.00  0.00    +0.000 NA
ATOM      4  N   UNL     1       1.954   3.748  20.561  0.00  0.00    +0.000 NA
ATOM      5  C   UNL     1       3.134   4.104  20.095  0.00  0.00    +0.000 A 
ATOM      6  O   UNL     1       3.224   5.452  19.843  0.00  0.00    +0.000 OA
BRANCH   2  11
ATOM      7  F   UNL     1       0.737  11.335  19.897  0.00  0.00    +0.000 F 
ATOM      8  C   UNL     1       1.036  10.032  19.966  0.00  0.00    +0.000 A 
ATOM      9  C   UNL     1       0.901   9.362  21.173  0.00  0.00    +0.000 A 
ATOM     10  C   UNL     1       1.213   8.002  21.241  0.00  0.00    +0.000 A 
ATOM     11  C   UNL     1       1.665   7.305  20.104  0.00  0.00    +0.000 A 
ATOM     12  C   UNL     1       1.793   8.006  18.895  0.00  0.00    +0.000 A 
ATOM     13  C   UNL     1       1.477   9.368  18.826  0.00  0.00    +0.000 A 
ENDBRANCH   2  11
ENDBRANCH   1   5
BRANCH   1  14
ATOM     14  O   UNL     1       5.429   4.080  19.564  0.00  0.00    +0.000 OA
BRANCH  14  15
ATOM     15  C   UNL     1       5.870   4.224  18.275  0.00  0.00    +0.000 A 
ATOM     16  C   UNL     1       4.981   3.804  17.286  0.00  0.00    +0.000 A 
ATOM     17  C   UNL     1       5.320   3.905  15.931  0.00  0.00    +0.000 A 
ATOM     18  C   UNL     1       6.553   4.446  15.539  0.00  0.00    +0.000 A 
ATOM     19  C   UNL     1       7.430   4.887  16.540  0.00  0.00    +0.000 A 
ATOM     20  C   UNL     1       7.091   4.781  17.895  0.00  0.00    +0.000 A 
BRANCH  18  21
ATOM     21  C   UNL     1       6.889   4.546  14.125  0.00  0.00    +0.000 A 
ATOM     22  N   UNL     1       6.459   3.843  13.095  0.00  0.00    +0.000 NA
ATOM     23  N   UNL     1       7.098   4.347  11.978  0.00  0.00    +0.000 NA
ATOM     24  C   UNL     1       7.870   5.315  12.410  0.00  0.00    +0.000 A 
ATOM     25  O   UNL     1       7.800   5.507  13.756  0.00  0.00    +0.000 OA
ENDBRANCH  18  21
ENDBRANCH  14  15
ENDBRANCH   1  14
TORSDOF 5
ENDMDL
