MODEL 1
REMARK VINA RESULT:      -8.6      0.000      0.000
REMARK  Name = 
REMARK  5 active torsions:
REMARK  status: ('A' for Active; 'I' for Inactive)
REMARK    1  A    between atoms: C_8  and  C_9
REMARK    2  A    between atoms: C_9  and  N_10
REMARK    3  A    between atoms: N_10  and  C_11
REMARK    4  A    between atoms: C_11  and  C_12
REMARK    5  A    between atoms: C_17  and  N_18
REMARK                            x       y       z     vdW  Elec       q    Type
REMARK                         _______ _______ _______ _____ _____    ______ ____
ROOT
ATOM      1  C   UNL     1       4.593   4.578  16.611  0.00  0.00    +0.000 C 
ENDROOT
BRANCH   1   2
ATOM      2  C   UNL     1       5.599   4.596  15.473  0.00  0.00    +0.000 A 
ATOM      3  C   UNL     1       5.322   3.931  14.260  0.00  0.00    +0.000 A 
ATOM      4  C   UNL     1       6.206   3.985  13.190  0.00  0.00    +0.000 A 
ATOM      5  C   UNL     1       7.372   4.702  13.350  0.00  0.00    +0.000 A 
ATOM      6  N   UNL     1       7.706   5.333  14.494  0.00  0.00    +0.000 NA
ATOM      7  C   UNL     1       6.835   5.267  15.550  0.00  0.00    +0.000 A 
BRANCH   7   8
ATOM      8  N   UNL     1       7.285   5.910  16.758  0.00  0.00    +0.000 N 
ATOM      9  C   UNL     1       7.573   5.272  17.953  0.00  0.00    +0.000 A 
ATOM     10  C   UNL     1       7.894   6.241  18.872  0.00  0.00    +0.000 A 
ATOM     11  C   UNL     1       7.796   7.442  18.159  0.00  0.00    +0.000 A 
ATOM     12  N   UNL     1       7.453   7.255  16.886  0.00  0.00    +0.000 NA
ENDBRANCH   7   8
ENDBRANCH   1   2
BRANCH   1  13
ATOM     13  N   UNL     1       4.792   3.477  17.563  0.00  0.00    +0.000 NA
ATOM     14  H   UNL     1       5.541   2.890  17.194  0.00  0.00    +0.000 HD
BRANCH  13  15
ATOM     15  C   UNL     1       3.593   2.638  17.651  0.00  0.00    +0.000 C 
BRANCH  15  23
ATOM     16  F   UNL     1       1.110   3.974  17.718  0.00  0.00    +0.000 F 
ATOM     17  C   UNL     1       1.631   3.597  18.894  0.00  0.00    +0.000 A 
ATOM     18  C   UNL     1       0.920   3.903  20.053  0.00  0.00    +0.000 A 
ATOM     19  C   UNL     1       1.425   3.526  21.294  0.00  0.00    +0.000 A 
ATOM     20  C   UNL     1       2.630   2.828  21.362  0.00  0.00    +0.000 A 
ATOM     21  C   UNL     1       3.331   2.513  20.194  0.00  0.00    +0.000 A 
ATOM     22 CL   UNL     1       4.804   1.620  20.374  0.00  0.00    +0.000 Cl
ATOM     23  C   UNL     1       2.850   2.913  18.935  0.00  0.00    +0.000 A 
ENDBRANCH  15  23
ENDBRANCH  13  15
ENDBRANCH   1  13
TORSDOF 5
ENDMDL
MODEL 2
REMARK VINA RESULT:      -8.4      1.680      2.078
REMARK  Name = 
REMARK  5 active torsions:
REMARK  status: ('A' for Active; 'I' for Inactive)
REMARK    1  A    between atoms: C_8  and  C_9
REMARK    2  A    between atoms: C_9  and  N_10
REMARK    3  A    between atoms: N_10  and  C_11
REMARK    4  A    between atoms: C_11  and  C_12
REMARK    5  A    between atoms: C_17  and  N_18
REMARK                            x       y       z     vdW  Elec       q    Type
REMARK                         _______ _______ _______ _____ _____    ______ ____
ROOT
ATOM      1  C   UNL     1       4.770   4.701  17.313  0.00  0.00    +0.000 C 
ENDROOT
BRANCH   1   2
ATOM      2  C   UNL     1       5.659   4.736  16.082  0.00  0.00    +0.000 A 
ATOM      3  C   UNL     1       5.317   3.998  14.930  0.00  0.00    +0.000 A 
ATOM      4  C   UNL     1       6.089   4.064  13.777  0.00  0.00    +0.000 A 
ATOM      5  C   UNL     1       7.208   4.867  13.793  0.00  0.00    +0.000 A 
ATOM      6  N   UNL     1       7.602   5.573  14.872  0.00  0.00    +0.000 NA
ATOM      7  C   UNL     1       6.843   5.495  16.011  0.00  0.00    +0.000 A 
BRANCH   7   8
ATOM      8  N   UNL     1       7.357   6.224  17.142  0.00  0.00    +0.000 N 
ATOM      9  C   UNL     1       7.582   7.590  17.189  0.00  0.00    +0.000 A 
ATOM     10  C   UNL     1       8.144   7.875  18.409  0.00  0.00    +0.000 A 
ATOM     11  C   UNL     1       8.216   6.636  19.056  0.00  0.00    +0.000 A 
ATOM     12  N   UNL     1       7.728   5.643  18.315  0.00  0.00    +0.000 NA
ENDBRANCH   7   8
ENDBRANCH   1   2
BRANCH   1  13
ATOM     13  N   UNL     1       5.041   3.569  18.210  0.00  0.00    +0.000 NA
ATOM     14  H   UNL     1       5.867   3.090  17.852  0.00  0.00    +0.000 HD
BRANCH  13  15
ATOM     15  C   UNL     1       3.938   2.603  18.180  0.00  0.00    +0.000 C 
BRANCH  15  23
ATOM     16  F   UNL     1       4.510   1.905  20.852  0.00  0.00    +0.000 F 
ATOM     17  C   UNL     1       3.320   2.474  20.612  0.00  0.00    +0.000 A 
ATOM     18  C   UNL     1       2.456   2.664  21.690  0.00  0.00    +0.000 A 
ATOM     19  C   UNL     1       1.213   3.254  21.483  0.00  0.00    +0.000 A 
ATOM     20  C   UNL     1       0.853   3.668  20.202  0.00  0.00    +0.000 A 
ATOM     21  C   UNL     1       1.731   3.486  19.128  0.00  0.00    +0.000 A 
ATOM     22 CL   UNL     1       1.209   4.055  17.578  0.00  0.00    +0.000 Cl
ATOM     23  C   UNL     1       2.977   2.864  19.314  0.00  0.00    +0.000 A 
ENDBRANCH  15  23
ENDBRANCH  13  15
ENDBRANCH   1  13
TORSDOF 5
ENDMDL
MODEL 3
REMARK VINA RESULT:      -8.4      1.786      2.142
REMARK  Name = 
REMARK  5 active torsions:
REMARK  status: ('A' for Active; 'I' for Inactive)
REMARK    1  A    between atoms: C_8  and  C_9
REMARK    2  A    between atoms: C_9  and  N_10
REMARK    3  A    between atoms: N_10  and  C_11
REMARK    4  A    between atoms: C_11  and  C_12
REMARK    5  A    between atoms: C_17  and  N_18
REMARK                            x       y       z     vdW  Elec       q    Type
REMARK                         _______ _______ _______ _____ _____    ______ ____
ROOT
ATOM      1  C   UNL     1       4.531   4.384  16.558  0.00  0.00    +0.000 C 
ENDROOT
BRANCH   1   2
ATOM      2  C   UNL     1       5.585   4.449  15.465  0.00  0.00    +0.000 A 
ATOM      3  C   UNL     1       5.318   3.932  14.180  0.00  0.00    +0.000 A 
ATOM      4  C   UNL     1       6.250   4.035  13.155  0.00  0.00    +0.000 A 
ATOM      5  C   UNL     1       7.451   4.649  13.432  0.00  0.00    +0.000 A 
ATOM      6  N   UNL     1       7.775   5.137  14.646  0.00  0.00    +0.000 NA
ATOM      7  C   UNL     1       6.856   5.023  15.658  0.00  0.00    +0.000 A 
BRANCH   7   8
ATOM      8  N   UNL     1       7.294   5.506  16.941  0.00  0.00    +0.000 N 
ATOM      9  C   UNL     1       7.281   6.829  17.354  0.00  0.00    +0.000 A 
ATOM     10  C   UNL     1       7.847   6.878  18.604  0.00  0.00    +0.000 A 
ATOM     11  C   UNL     1       8.166   5.546  18.893  0.00  0.00    +0.000 A 
ATOM     12  N   UNL     1       7.820   4.713  17.914  0.00  0.00    +0.000 NA
ENDBRANCH   7   8
ENDBRANCH   1   2
BRANCH   1  13
ATOM     13  N   UNL     1       4.874   3.477  17.661  0.00  0.00    +0.000 NA
ATOM     14  H   UNL     1       4.162   2.747  17.687  0.00  0.00    +0.000 HD
BRANCH  13  15
ATOM     15  C   UNL     1       4.820   4.176  18.949  0.00  0.00    +0.000 C 
BRANCH  15  23
ATOM     16  F   UNL     1       4.580   1.957  20.673  0.00  0.00    +0.000 F 
ATOM     17  C   UNL     1       3.488   2.717  20.502  0.00  0.00    +0.000 A 
ATOM     18  C   UNL     1       2.322   2.348  21.171  0.00  0.00    +0.000 A 
ATOM     19  C   UNL     1       1.169   3.112  21.022  0.00  0.00    +0.000 A 
ATOM     20  C   UNL     1       1.198   4.251  20.219  0.00  0.00    +0.000 A 
ATOM     21  C   UNL     1       2.375   4.622  19.560  0.00  0.00    +0.000 A 
ATOM     22 CL   UNL     1       2.324   6.066  18.606  0.00  0.00    +0.000 Cl
ATOM     23  C   UNL     1       3.540   3.844  19.676  0.00  0.00    +0.000 A 
ENDBRANCH  15  23
ENDBRANCH  13  15
ENDBRANCH   1  13
TORSDOF 5
ENDMDL
MODEL 4
REMARK VINA RESULT:      -8.3      0.993      1.220
REMARK  Name = 
REMARK  5 active torsions:
REMARK  status: ('A' for Active; 'I' for Inactive)
REMARK    1  A    between atoms: C_8  and  C_9
REMARK    2  A    between atoms: C_9  and  N_10
REMARK    3  A    between atoms: N_10  and  C_11
REMARK    4  A    between atoms: C_11  and  C_12
REMARK    5  A    between atoms: C_17  and  N_18
REMARK                            x       y       z     vdW  Elec       q    Type
REMARK                         _______ _______ _______ _____ _____    ______ ____
ROOT
ATOM      1  C   UNL     1       4.525   4.463  16.733  0.00  0.00    +0.000 C 
ENDROOT
BRANCH   1   2
ATOM      2  C   UNL     1       5.561   4.510  15.623  0.00  0.00    +0.000 A 
ATOM      3  C   UNL     1       5.275   3.969  14.352  0.00  0.00    +0.000 A 
ATOM      4  C   UNL     1       6.190   4.055  13.310  0.00  0.00    +0.000 A 
ATOM      5  C   UNL     1       7.394   4.677  13.556  0.00  0.00    +0.000 A 
ATOM      6  N   UNL     1       7.736   5.187  14.757  0.00  0.00    +0.000 NA
ATOM      7  C   UNL     1       6.834   5.090  15.784  0.00  0.00    +0.000 A 
BRANCH   7   8
ATOM      8  N   UNL     1       7.292   5.598  17.052  0.00  0.00    +0.000 N 
ATOM      9  C   UNL     1       7.380   6.935  17.402  0.00  0.00    +0.000 A 
ATOM     10  C   UNL     1       7.931   6.998  18.658  0.00  0.00    +0.000 A 
ATOM     11  C   UNL     1       8.136   5.660  19.015  0.00  0.00    +0.000 A 
ATOM     12  N   UNL     1       7.738   4.811  18.070  0.00  0.00    +0.000 NA
ENDBRANCH   7   8
ENDBRANCH   1   2
BRANCH   1  13
ATOM     13  N   UNL     1       4.921   3.635  17.880  0.00  0.00    +0.000 NA
ATOM     14  H   UNL     1       4.317   2.812  17.882  0.00  0.00    +0.000 HD
BRANCH  13  15
ATOM     15  C   UNL     1       4.688   4.343  19.142  0.00  0.00    +0.000 C 
BRANCH  15  23
ATOM     16  F   UNL     1       2.210   5.655  18.832  0.00  0.00    +0.000 F 
ATOM     17  C   UNL     1       2.229   4.564  19.613  0.00  0.00    +0.000 A 
ATOM     18  C   UNL     1       1.037   4.172  20.219  0.00  0.00    +0.000 A 
ATOM     19  C   UNL     1       1.014   3.045  21.033  0.00  0.00    +0.000 A 
ATOM     20  C   UNL     1       2.182   2.307  21.219  0.00  0.00    +0.000 A 
ATOM     21  C   UNL     1       3.372   2.699  20.597  0.00  0.00    +0.000 A 
ATOM     22 CL   UNL     1       4.765   1.706  20.863  0.00  0.00    +0.000 Cl
ATOM     23  C   UNL     1       3.419   3.852  19.796  0.00  0.00    +0.000 A 
ENDBRANCH  15  23
ENDBRANCH  13  15
ENDBRANCH   1  13
TORSDOF 5
ENDMDL
MODEL 5
REMARK VINA RESULT:      -8.2      1.541      1.795
REMARK  Name = 
REMARK  5 active torsions:
REMARK  status: ('A' for Active; 'I' for Inactive)
REMARK    1  A    between atoms: C_8  and  C_9
REMARK    2  A    between atoms: C_9  and  N_10
REMARK    3  A    between atoms: N_10  and  C_11
REMARK    4  A    between atoms: C_11  and  C_12
REMARK    5  A    between atoms: C_17  and  N_18
REMARK                            x       y       z     vdW  Elec       q    Type
REMARK                         _______ _______ _______ _____ _____    ______ ____
ROOT
ATOM      1  C   UNL     1       4.532   4.337  16.643  0.00  0.00    +0.000 C 
ENDROOT
BRANCH   1   2
ATOM      2  C   UNL     1       5.577   4.469  15.548  0.00  0.00    +0.000 A 
ATOM      3  C   UNL     1       5.322   3.977  14.251  0.00  0.00    +0.000 A 
ATOM      4  C   UNL     1       6.243   4.140  13.225  0.00  0.00    +0.000 A 
ATOM      5  C   UNL     1       7.423   4.790  13.512  0.00  0.00    +0.000 A 
ATOM      6  N   UNL     1       7.737   5.256  14.738  0.00  0.00    +0.000 NA
ATOM      7  C   UNL     1       6.828   5.082  15.750  0.00  0.00    +0.000 A 
BRANCH   7   8
ATOM      8  N   UNL     1       7.256   5.547  17.044  0.00  0.00    +0.000 N 
ATOM      9  C   UNL     1       7.415   6.872  17.415  0.00  0.00    +0.000 A 
ATOM     10  C   UNL     1       7.907   6.886  18.697  0.00  0.00    +0.000 A 
ATOM     11  C   UNL     1       8.006   5.535  19.047  0.00  0.00    +0.000 A 
ATOM     12  N   UNL     1       7.600   4.723  18.072  0.00  0.00    +0.000 NA
ENDBRANCH   7   8
ENDBRANCH   1   2
BRANCH   1  13
ATOM     13  N   UNL     1       4.590   3.061  17.369  0.00  0.00    +0.000 NA
ATOM     14  H   UNL     1       3.705   2.579  17.205  0.00  0.00    +0.000 HD
BRANCH  13  15
ATOM     15  C   UNL     1       4.695   3.285  18.814  0.00  0.00    +0.000 C 
BRANCH  15  23
ATOM     16  F   UNL     1       4.459   5.945  19.722  0.00  0.00    +0.000 F 
ATOM     17  C   UNL     1       3.366   5.173  19.806  0.00  0.00    +0.000 A 
ATOM     18  C   UNL     1       2.209   5.733  20.344  0.00  0.00    +0.000 A 
ATOM     19  C   UNL     1       1.052   4.967  20.445  0.00  0.00    +0.000 A 
ATOM     20  C   UNL     1       1.059   3.650  19.988  0.00  0.00    +0.000 A 
ATOM     21  C   UNL     1       2.220   3.098  19.437  0.00  0.00    +0.000 A 
ATOM     22 CL   UNL     1       2.126   1.465  18.871  0.00  0.00    +0.000 Cl
ATOM     23  C   UNL     1       3.405   3.849  19.356  0.00  0.00    +0.000 A 
ENDBRANCH  15  23
ENDBRANCH  13  15
ENDBRANCH   1  13
TORSDOF 5
ENDMDL
MODEL 6
REMARK VINA RESULT:      -8.2      1.567      1.751
REMARK  Name = 
REMARK  5 active torsions:
REMARK  status: ('A' for Active; 'I' for Inactive)
REMARK    1  A    between atoms: C_8  and  C_9
REMARK    2  A    between atoms: C_9  and  N_10
REMARK    3  A    between atoms: N_10  and  C_11
REMARK    4  A    between atoms: C_11  and  C_12
REMARK    5  A    between atoms: C_17  and  N_18
REMARK                            x       y       z     vdW  Elec       q    Type
REMARK                         _______ _______ _______ _____ _____    ______ ____
ROOT
ATOM      1  C   UNL     1       4.514   4.832  16.352  0.00  0.00    +0.000 C 
ENDROOT
BRANCH   1   2
ATOM      2  C   UNL     1       5.598   4.733  15.291  0.00  0.00    +0.000 A 
ATOM      3  C   UNL     1       5.333   4.115  14.052  0.00  0.00    +0.000 A 
ATOM      4  C   UNL     1       6.295   4.067  13.051  0.00  0.00    +0.000 A 
ATOM      5  C   UNL     1       7.523   4.634  13.307  0.00  0.00    +0.000 A 
ATOM      6  N   UNL     1       7.845   5.213  14.481  0.00  0.00    +0.000 NA
ATOM      7  C   UNL     1       6.896   5.248  15.470  0.00  0.00    +0.000 A 
BRANCH   7   8
ATOM      8  N   UNL     1       7.330   5.823  16.717  0.00  0.00    +0.000 N 
ATOM      9  C   UNL     1       7.493   5.138  17.910  0.00  0.00    +0.000 A 
ATOM     10  C   UNL     1       7.842   6.056  18.869  0.00  0.00    +0.000 A 
ATOM     11  C   UNL     1       7.889   7.275  18.184  0.00  0.00    +0.000 A 
ATOM     12  N   UNL     1       7.604   7.145  16.889  0.00  0.00    +0.000 NA
ENDBRANCH   7   8
ENDBRANCH   1   2
BRANCH   1  13
ATOM     13  N   UNL     1       4.165   3.544  16.966  0.00  0.00    +0.000 NA
ATOM     14  H   UNL     1       4.355   2.817  16.275  0.00  0.00    +0.000 HD
BRANCH  13  15
ATOM     15  C   UNL     1       2.733   3.482  17.273  0.00  0.00    +0.000 C 
BRANCH  15  23
ATOM     16  F   UNL     1       2.757   1.282  19.037  0.00  0.00    +0.000 F 
ATOM     17  C   UNL     1       2.512   2.488  19.570  0.00  0.00    +0.000 A 
ATOM     18  C   UNL     1       2.275   2.561  20.942  0.00  0.00    +0.000 A 
ATOM     19  C   UNL     1       2.020   3.794  21.533  0.00  0.00    +0.000 A 
ATOM     20  C   UNL     1       2.023   4.947  20.749  0.00  0.00    +0.000 A 
ATOM     21  C   UNL     1       2.275   4.867  19.376  0.00  0.00    +0.000 A 
ATOM     22 CL   UNL     1       2.285   6.353  18.487  0.00  0.00    +0.000 Cl
ATOM     23  C   UNL     1       2.504   3.626  18.757  0.00  0.00    +0.000 A 
ENDBRANCH  15  23
ENDBRANCH  13  15
ENDBRANCH   1  13
TORSDOF 5
ENDMDL
MODEL 7
REMARK VINA RESULT:      -8.1      1.284      1.485
REMARK  Name = 
REMARK  5 active torsions:
REMARK  status: ('A' for Active; 'I' for Inactive)
REMARK    1  A    between atoms: C_8  and  C_9
REMARK    2  A    between atoms: C_9  and  N_10
REMARK    3  A    between atoms: N_10  and  C_11
REMARK    4  A    between atoms: C_11  and  C_12
REMARK    5  A    between atoms: C_17  and  N_18
REMARK                            x       y       z     vdW  Elec       q    Type
REMARK                         _______ _______ _______ _____ _____    ______ ____
ROOT
ATOM      1  C   UNL     1       4.992   3.611  16.479  0.00  0.00    +0.000 C 
ENDROOT
BRANCH   1   2
ATOM      2  C   UNL     1       5.922   4.096  15.381  0.00  0.00    +0.000 A 
ATOM      3  C   UNL     1       5.749   3.661  14.051  0.00  0.00    +0.000 A 
ATOM      4  C   UNL     1       6.556   4.139  13.026  0.00  0.00    +0.000 A 
ATOM      5  C   UNL     1       7.541   5.046  13.348  0.00  0.00    +0.000 A 
ATOM      6  N   UNL     1       7.774   5.477  14.604  0.00  0.00    +0.000 NA
ATOM      7  C   UNL     1       6.982   4.994  15.614  0.00  0.00    +0.000 A 
BRANCH   7   8
ATOM      8  N   UNL     1       7.329   5.447  16.936  0.00  0.00    +0.000 N 
ATOM      9  C   UNL     1       7.451   6.770  17.330  0.00  0.00    +0.000 A 
ATOM     10  C   UNL     1       7.867   6.774  18.638  0.00  0.00    +0.000 A 
ATOM     11  C   UNL     1       7.961   5.419  18.978  0.00  0.00    +0.000 A 
ATOM     12  N   UNL     1       7.621   4.615  17.973  0.00  0.00    +0.000 NA
ENDBRANCH   7   8
ENDBRANCH   1   2
BRANCH   1  13
ATOM     13  N   UNL     1       4.304   4.693  17.196  0.00  0.00    +0.000 NA
ATOM     14  H   UNL     1       4.726   4.759  18.123  0.00  0.00    +0.000 HD
BRANCH  13  15
ATOM     15  C   UNL     1       2.887   4.373  17.392  0.00  0.00    +0.000 C 
BRANCH  15  23
ATOM     16  F   UNL     1       2.003   6.366  19.181  0.00  0.00    +0.000 F 
ATOM     17  C   UNL     1       2.186   5.136  19.681  0.00  0.00    +0.000 A 
ATOM     18  C   UNL     1       1.942   4.939  21.039  0.00  0.00    +0.000 A 
ATOM     19  C   UNL     1       2.117   3.676  21.597  0.00  0.00    +0.000 A 
ATOM     20  C   UNL     1       2.517   2.616  20.785  0.00  0.00    +0.000 A 
ATOM     21  C   UNL     1       2.747   2.818  19.420  0.00  0.00    +0.000 A 
ATOM     22 CL   UNL     1       3.214   1.437  18.486  0.00  0.00    +0.000 Cl
ATOM     23  C   UNL     1       2.605   4.094  18.848  0.00  0.00    +0.000 A 
ENDBRANCH  15  23
ENDBRANCH  13  15
ENDBRANCH   1  13
TORSDOF 5
ENDMDL
MODEL 8
REMARK VINA RESULT:      -8.0      1.146      1.209
REMARK  Name = 
REMARK  5 active torsions:
REMARK  status: ('A' for Active; 'I' for Inactive)
REMARK    1  A    between atoms: C_8  and  C_9
REMARK    2  A    between atoms: C_9  and  N_10
REMARK    3  A    between atoms: N_10  and  C_11
REMARK    4  A    between atoms: C_11  and  C_12
REMARK    5  A    between atoms: C_17  and  N_18
REMARK                            x       y       z     vdW  Elec       q    Type
REMARK                         _______ _______ _______ _____ _____    ______ ____
ROOT
ATOM      1  C   UNL     1       4.772   3.930  16.814  0.00  0.00    +0.000 C 
ENDROOT
BRANCH   1   2
ATOM      2  C   UNL     1       5.662   4.189  15.610  0.00  0.00    +0.000 A 
ATOM      3  C   UNL     1       5.346   3.632  14.353  0.00  0.00    +0.000 A 
ATOM      4  C   UNL     1       6.118   3.906  13.231  0.00  0.00    +0.000 A 
ATOM      5  C   UNL     1       7.210   4.731  13.382  0.00  0.00    +0.000 A 
ATOM      6  N   UNL     1       7.579   5.268  14.562  0.00  0.00    +0.000 NA
ATOM      7  C   UNL     1       6.821   4.986  15.669  0.00  0.00    +0.000 A 
BRANCH   7   8
ATOM      8  N   UNL     1       7.309   5.541  16.905  0.00  0.00    +0.000 N 
ATOM      9  C   UNL     1       7.798   4.815  17.979  0.00  0.00    +0.000 A 
ATOM     10  C   UNL     1       8.088   5.706  18.983  0.00  0.00    +0.000 A 
ATOM     11  C   UNL     1       7.766   6.956  18.441  0.00  0.00    +0.000 A 
ATOM     12  N   UNL     1       7.318   6.872  17.190  0.00  0.00    +0.000 NA
ENDBRANCH   7   8
ENDBRANCH   1   2
BRANCH   1  13
ATOM     13  N   UNL     1       4.253   5.152  17.443  0.00  0.00    +0.000 NA
ATOM     14  H   UNL     1       4.805   5.933  17.088  0.00  0.00    +0.000 HD
BRANCH  13  15
ATOM     15  C   UNL     1       4.448   5.115  18.896  0.00  0.00    +0.000 C 
BRANCH  15  23
ATOM     16  F   UNL     1       1.986   6.433  19.293  0.00  0.00    +0.000 F 
ATOM     17  C   UNL     1       2.085   5.176  19.749  0.00  0.00    +0.000 A 
ATOM     18  C   UNL     1       0.979   4.624  20.393  0.00  0.00    +0.000 A 
ATOM     19  C   UNL     1       1.040   3.322  20.878  0.00  0.00    +0.000 A 
ATOM     20  C   UNL     1       2.203   2.575  20.697  0.00  0.00    +0.000 A 
ATOM     21  C   UNL     1       3.305   3.131  20.039  0.00  0.00    +0.000 A 
ATOM     22 CL   UNL     1       4.696   2.120  19.837  0.00  0.00    +0.000 Cl
ATOM     23  C   UNL     1       3.270   4.455  19.570  0.00  0.00    +0.000 A 
ENDBRANCH  15  23
ENDBRANCH  13  15
ENDBRANCH   1  13
TORSDOF 5
ENDMDL
MODEL 9
REMARK VINA RESULT:      -7.9      1.133      1.251
REMARK  Name = 
REMARK  5 active torsions:
REMARK  status: ('A' for Active; 'I' for Inactive)
REMARK    1  A    between atoms: C_8  and  C_9
REMARK    2  A    between atoms: C_9  and  N_10
REMARK    3  A    between atoms: N_10  and  C_11
REMARK    4  A    between atoms: C_11  and  C_12
REMARK    5  A    between atoms: C_17  and  N_18
REMARK                            x       y       z     vdW  Elec       q    Type
REMARK                         _______ _______ _______ _____ _____    ______ ____
ROOT
ATOM      1  C   UNL     1       4.703   4.110  16.340  0.00  0.00    +0.000 C 
ENDROOT
BRANCH   1   2
ATOM      2  C   UNL     1       5.717   4.342  15.233  0.00  0.00    +0.000 A 
ATOM      3  C   UNL     1       5.494   3.830  13.938  0.00  0.00    +0.000 A 
ATOM      4  C   UNL     1       6.383   4.081  12.901  0.00  0.00    +0.000 A 
ATOM      5  C   UNL     1       7.500   4.839  13.176  0.00  0.00    +0.000 A 
ATOM      6  N   UNL     1       7.782   5.331  14.399  0.00  0.00    +0.000 NA
ATOM      7  C   UNL     1       6.907   5.071  15.422  0.00  0.00    +0.000 A 
BRANCH   7   8
ATOM      8  N   UNL     1       7.304   5.573  16.712  0.00  0.00    +0.000 N 
ATOM      9  C   UNL     1       7.688   4.800  17.796  0.00  0.00    +0.000 A 
ATOM     10  C   UNL     1       7.913   5.650  18.850  0.00  0.00    +0.000 A 
ATOM     11  C   UNL     1       7.662   6.925  18.329  0.00  0.00    +0.000 A 
ATOM     12  N   UNL     1       7.317   6.893  17.043  0.00  0.00    +0.000 NA
ENDBRANCH   7   8
ENDBRANCH   1   2
BRANCH   1  13
ATOM     13  N   UNL     1       4.242   5.344  16.991  0.00  0.00    +0.000 NA
ATOM     14  H   UNL     1       4.993   6.030  16.907  0.00  0.00    +0.000 HD
BRANCH  13  15
ATOM     15  C   UNL     1       4.018   5.127  18.424  0.00  0.00    +0.000 C 
BRANCH  15  23
ATOM     16  F   UNL     1       1.384   5.440  17.464  0.00  0.00    +0.000 F 
ATOM     17  C   UNL     1       1.654   4.320  18.150  0.00  0.00    +0.000 A 
ATOM     18  C   UNL     1       0.619   3.408  18.347  0.00  0.00    +0.000 A 
ATOM     19  C   UNL     1       0.858   2.232  19.051  0.00  0.00    +0.000 A 
ATOM     20  C   UNL     1       2.139   1.969  19.534  0.00  0.00    +0.000 A 
ATOM     21  C   UNL     1       3.177   2.882  19.320  0.00  0.00    +0.000 A 
ATOM     22 CL   UNL     1       4.740   2.458  19.933  0.00  0.00    +0.000 Cl
ATOM     23  C   UNL     1       2.944   4.089  18.639  0.00  0.00    +0.000 A 
ENDBRANCH  15  23
ENDBRANCH  13  15
ENDBRANCH   1  13
TORSDOF 5
ENDMDL
