MODEL 1
REMARK VINA RESULT:      -8.4      0.000      0.000
REMARK  Name = 
REMARK  3 active torsions:
REMARK  status: ('A' for Active; 'I' for Inactive)
REMARK    1  A    between atoms: C_1  and  C_12
REMARK    2  A    between atoms: C_2  and  C_3
REMARK    3  A    between atoms: N_13  and  C_14
REMARK                            x       y       z     vdW  Elec       q    Type
REMARK                         _______ _______ _______ _____ _____    ______ ____
ROOT
ATOM      1  C   UNL     1       8.416   8.838  17.736  0.00  0.00    +0.000 C 
ATOM      2  C   UNL     1       8.561   9.593  18.838  0.00  0.00    +0.000 C 
ENDROOT
BRANCH   2   3
ATOM      3  C   UNL     1       9.551  10.687  18.931  0.00  0.00    +0.000 A 
ATOM      4  C   UNL     1      10.051  11.125  20.180  0.00  0.00    +0.000 A 
ATOM      5  C   UNL     1      10.994  12.154  20.267  0.00  0.00    +0.000 A 
ATOM      6  C   UNL     1      11.426  12.727  19.093  0.00  0.00    +0.000 A 
ATOM      7  C   UNL     1      10.964  12.302  17.871  0.00  0.00    +0.000 A 
ATOM      8  C   UNL     1      10.039  11.281  17.754  0.00  0.00    +0.000 A 
ATOM      9  O   UNL     1      11.516  13.001  16.841  0.00  0.00    +0.000 OA
ATOM     10  C   UNL     1      12.327  13.954  17.562  0.00  0.00    +0.000 C 
ATOM     11  O   UNL     1      12.325  13.742  18.989  0.00  0.00    +0.000 OA
ENDBRANCH   2   3
BRANCH   1  12
ATOM     12  C   UNL     1       7.427   7.738  17.659  0.00  0.00    +0.000 C 
ATOM     13  N   UNL     1       7.543   6.710  18.452  0.00  0.00    +0.000 NA
BRANCH  13  14
ATOM     14  C   UNL     1       6.552   5.784  18.358  0.00  0.00    +0.000 A 
ATOM     15  N   UNL     1       6.212   4.898  19.268  0.00  0.00    +0.000 NA
ATOM     16  C   UNL     1       5.206   4.064  18.818  0.00  0.00    +0.000 A 
ATOM     17  C   UNL     1       4.654   2.989  19.540  0.00  0.00    +0.000 A 
ATOM     18  C   UNL     1       3.621   2.231  18.980  0.00  0.00    +0.000 A 
ATOM     19  C   UNL     1       3.138   2.533  17.712  0.00  0.00    +0.000 A 
ATOM     20  C   UNL     1       3.682   3.590  16.968  0.00  0.00    +0.000 A 
ATOM     21  C   UNL     1       4.726   4.343  17.540  0.00  0.00    +0.000 A 
ATOM     22  S   UNL     1       5.618   5.672  16.896  0.00  0.00    +0.000 S 
ENDBRANCH  13  14
ENDBRANCH   1  12
TORSDOF 3
ENDMDL
MODEL 2
REMARK VINA RESULT:      -7.9      1.431      1.923
REMARK  Name = 
REMARK  3 active torsions:
REMARK  status: ('A' for Active; 'I' for Inactive)
REMARK    1  A    between atoms: C_1  and  C_12
REMARK    2  A    between atoms: C_2  and  C_3
REMARK    3  A    between atoms: N_13  and  C_14
REMARK                            x       y       z     vdW  Elec       q    Type
REMARK                         _______ _______ _______ _____ _____    ______ ____
ROOT
ATOM      1  C   UNL     1       8.288   8.990  17.622  0.00  0.00    +0.000 C 
ATOM      2  C   UNL     1       8.682   9.852  18.575  0.00  0.00    +0.000 C 
ENDROOT
BRANCH   2   3
ATOM      3  C   UNL     1       9.479  11.061  18.277  0.00  0.00    +0.000 A 
ATOM      4  C   UNL     1      10.876  10.987  18.060  0.00  0.00    +0.000 A 
ATOM      5  C   UNL     1      11.629  12.129  17.770  0.00  0.00    +0.000 A 
ATOM      6  C   UNL     1      10.965  13.332  17.697  0.00  0.00    +0.000 A 
ATOM      7  C   UNL     1       9.607  13.418  17.888  0.00  0.00    +0.000 A 
ATOM      8  C   UNL     1       8.836  12.305  18.167  0.00  0.00    +0.000 A 
ATOM      9  O   UNL     1       9.153  14.697  17.775  0.00  0.00    +0.000 OA
ATOM     10  C   UNL     1      10.390  15.408  17.555  0.00  0.00    +0.000 C 
ATOM     11  O   UNL     1      11.536  14.539  17.439  0.00  0.00    +0.000 OA
ENDBRANCH   2   3
BRANCH   1  12
ATOM     12  C   UNL     1       7.497   7.777  17.934  0.00  0.00    +0.000 C 
ATOM     13  N   UNL     1       6.516   7.429  17.150  0.00  0.00    +0.000 NA
BRANCH  13  14
ATOM     14  C   UNL     1       5.892   6.265  17.477  0.00  0.00    +0.000 A 
ATOM     15  N   UNL     1       4.985   5.632  16.767  0.00  0.00    +0.000 NA
ATOM     16  C   UNL     1       4.509   4.514  17.427  0.00  0.00    +0.000 A 
ATOM     17  C   UNL     1       3.504   3.651  16.950  0.00  0.00    +0.000 A 
ATOM     18  C   UNL     1       3.126   2.538  17.706  0.00  0.00    +0.000 A 
ATOM     19  C   UNL     1       3.737   2.279  18.927  0.00  0.00    +0.000 A 
ATOM     20  C   UNL     1       4.729   3.132  19.429  0.00  0.00    +0.000 A 
ATOM     21  C   UNL     1       5.099   4.253  18.662  0.00  0.00    +0.000 A 
ATOM     22  S   UNL     1       6.250   5.495  18.994  0.00  0.00    +0.000 S 
ENDBRANCH  13  14
ENDBRANCH   1  12
TORSDOF 3
ENDMDL
MODEL 3
REMARK VINA RESULT:      -7.6      4.469     10.038
REMARK  Name = 
REMARK  3 active torsions:
REMARK  status: ('A' for Active; 'I' for Inactive)
REMARK    1  A    between atoms: C_1  and  C_12
REMARK    2  A    between atoms: C_2  and  C_3
REMARK    3  A    between atoms: N_13  and  C_14
REMARK                            x       y       z     vdW  Elec       q    Type
REMARK                         _______ _______ _______ _____ _____    ______ ____
ROOT
ATOM      1  C   UNL     1       7.574   7.459  17.590  0.00  0.00    +0.000 C 
ATOM      2  C   UNL     1       6.259   7.285  17.803  0.00  0.00    +0.000 C 
ENDROOT
BRANCH   2   3
ATOM      3  C   UNL     1       5.601   5.965  17.692  0.00  0.00    +0.000 A 
ATOM      4  C   UNL     1       5.231   5.429  16.436  0.00  0.00    +0.000 A 
ATOM      5  C   UNL     1       4.617   4.177  16.331  0.00  0.00    +0.000 A 
ATOM      6  C   UNL     1       4.387   3.477  17.493  0.00  0.00    +0.000 A 
ATOM      7  C   UNL     1       4.756   3.976  18.719  0.00  0.00    +0.000 A 
ATOM      8  C   UNL     1       5.372   5.206  18.853  0.00  0.00    +0.000 A 
ATOM      9  O   UNL     1       4.436   3.128  19.736  0.00  0.00    +0.000 OA
ATOM     10  C   UNL     1       3.768   2.073  19.012  0.00  0.00    +0.000 C 
ATOM     11  O   UNL     1       3.792   2.258  17.581  0.00  0.00    +0.000 OA
ENDBRANCH   2   3
BRANCH   1  12
ATOM     12  C   UNL     1       8.220   8.788  17.694  0.00  0.00    +0.000 C 
ATOM     13  N   UNL     1       8.690   9.187  18.842  0.00  0.00    +0.000 NA
BRANCH  13  14
ATOM     14  C   UNL     1       9.327  10.390  18.827  0.00  0.00    +0.000 A 
ATOM     15  N   UNL     1       9.811  11.012  17.776  0.00  0.00    +0.000 NA
ATOM     16  C   UNL     1      10.456  12.183  18.128  0.00  0.00    +0.000 A 
ATOM     17  C   UNL     1      11.115  13.051  17.237  0.00  0.00    +0.000 A 
ATOM     18  C   UNL     1      11.713  14.220  17.717  0.00  0.00    +0.000 A 
ATOM     19  C   UNL     1      11.661  14.528  19.072  0.00  0.00    +0.000 A 
ATOM     20  C   UNL     1      11.023  13.672  19.980  0.00  0.00    +0.000 A 
ATOM     21  C   UNL     1      10.430  12.495  19.486  0.00  0.00    +0.000 A 
ATOM     22  S   UNL     1       9.599  11.234  20.322  0.00  0.00    +0.000 S 
ENDBRANCH  13  14
ENDBRANCH   1  12
TORSDOF 3
ENDMDL
MODEL 4
REMARK VINA RESULT:      -7.6      7.567      9.545
REMARK  Name = 
REMARK  3 active torsions:
REMARK  status: ('A' for Active; 'I' for Inactive)
REMARK    1  A    between atoms: C_1  and  C_12
REMARK    2  A    between atoms: C_2  and  C_3
REMARK    3  A    between atoms: N_13  and  C_14
REMARK                            x       y       z     vdW  Elec       q    Type
REMARK                         _______ _______ _______ _____ _____    ______ ____
ROOT
ATOM      1  C   UNL     1       2.405   8.220  17.923  0.00  0.00    +0.000 C 
ATOM      2  C   UNL     1       2.572   6.939  18.294  0.00  0.00    +0.000 C 
ENDROOT
BRANCH   2   3
ATOM      3  C   UNL     1       3.518   6.030  17.613  0.00  0.00    +0.000 A 
ATOM      4  C   UNL     1       3.319   4.628  17.608  0.00  0.00    +0.000 A 
ATOM      5  C   UNL     1       4.210   3.769  16.957  0.00  0.00    +0.000 A 
ATOM      6  C   UNL     1       5.289   4.332  16.315  0.00  0.00    +0.000 A 
ATOM      7  C   UNL     1       5.486   5.691  16.295  0.00  0.00    +0.000 A 
ATOM      8  C   UNL     1       4.618   6.565  16.922  0.00  0.00    +0.000 A 
ATOM      9  O   UNL     1       6.611   6.037  15.609  0.00  0.00    +0.000 OA
ATOM     10  C   UNL     1       7.127   4.735  15.257  0.00  0.00    +0.000 C 
ATOM     11  O   UNL     1       6.257   3.652  15.645  0.00  0.00    +0.000 OA
ENDBRANCH   2   3
BRANCH   1  12
ATOM     12  C   UNL     1       1.446   9.120  18.607  0.00  0.00    +0.000 C 
ATOM     13  N   UNL     1       1.309   9.051  19.901  0.00  0.00    +0.000 NA
BRANCH  13  14
ATOM     14  C   UNL     1       0.459   9.960  20.448  0.00  0.00    +0.000 A 
ATOM     15  N   UNL     1       0.055  10.009  21.698  0.00  0.00    +0.000 NA
ATOM     16  C   UNL     1      -0.863  11.023  21.899  0.00  0.00    +0.000 A 
ATOM     17  C   UNL     1      -1.512  11.307  23.115  0.00  0.00    +0.000 A 
ATOM     18  C   UNL     1      -2.407  12.378  23.194  0.00  0.00    +0.000 A 
ATOM     19  C   UNL     1      -2.660  13.164  22.076  0.00  0.00    +0.000 A 
ATOM     20  C   UNL     1      -2.036  12.892  20.851  0.00  0.00    +0.000 A 
ATOM     21  C   UNL     1      -1.141  11.807  20.781  0.00  0.00    +0.000 A 
ATOM     22  S   UNL     1      -0.238  11.196  19.444  0.00  0.00    +0.000 S 
ENDBRANCH  13  14
ENDBRANCH   1  12
TORSDOF 3
ENDMDL
MODEL 5
REMARK VINA RESULT:      -7.6      4.559     10.125
REMARK  Name = 
REMARK  3 active torsions:
REMARK  status: ('A' for Active; 'I' for Inactive)
REMARK    1  A    between atoms: C_1  and  C_12
REMARK    2  A    between atoms: C_2  and  C_3
REMARK    3  A    between atoms: N_13  and  C_14
REMARK                            x       y       z     vdW  Elec       q    Type
REMARK                         _______ _______ _______ _____ _____    ______ ____
ROOT
ATOM      1  C   UNL     1       8.925   9.618  18.566  0.00  0.00    +0.000 C 
ATOM      2  C   UNL     1       8.062   9.047  17.708  0.00  0.00    +0.000 C 
ENDROOT
BRANCH   2   3
ATOM      3  C   UNL     1       7.545   7.675  17.892  0.00  0.00    +0.000 A 
ATOM      4  C   UNL     1       8.150   6.775  18.803  0.00  0.00    +0.000 A 
ATOM      5  C   UNL     1       7.656   5.479  18.982  0.00  0.00    +0.000 A 
ATOM      6  C   UNL     1       6.555   5.105  18.246  0.00  0.00    +0.000 A 
ATOM      7  C   UNL     1       5.946   5.973  17.372  0.00  0.00    +0.000 A 
ATOM      8  C   UNL     1       6.406   7.262  17.180  0.00  0.00    +0.000 A 
ATOM      9  O   UNL     1       4.878   5.404  16.745  0.00  0.00    +0.000 OA
ATOM     10  C   UNL     1       4.929   4.064  17.280  0.00  0.00    +0.000 C 
ATOM     11  O   UNL     1       5.952   3.888  18.283  0.00  0.00    +0.000 OA
ENDBRANCH   2   3
BRANCH   1  12
ATOM     12  C   UNL     1       9.444  10.991  18.366  0.00  0.00    +0.000 C 
ATOM     13  N   UNL     1       8.685  11.890  17.805  0.00  0.00    +0.000 NA
BRANCH  13  14
ATOM     14  C   UNL     1       9.219  13.139  17.726  0.00  0.00    +0.000 A 
ATOM     15  N   UNL     1      10.456  13.448  17.407  0.00  0.00    +0.000 NA
ATOM     16  C   UNL     1      10.679  14.810  17.490  0.00  0.00    +0.000 A 
ATOM     17  C   UNL     1      11.910  15.451  17.252  0.00  0.00    +0.000 A 
ATOM     18  C   UNL     1      12.001  16.842  17.348  0.00  0.00    +0.000 A 
ATOM     19  C   UNL     1      10.881  17.597  17.679  0.00  0.00    +0.000 A 
ATOM     20  C   UNL     1       9.649  16.979  17.935  0.00  0.00    +0.000 A 
ATOM     21  C   UNL     1       9.570  15.577  17.840  0.00  0.00    +0.000 A 
ATOM     22  S   UNL     1       8.234  14.519  18.110  0.00  0.00    +0.000 S 
ENDBRANCH  13  14
ENDBRANCH   1  12
TORSDOF 3
ENDMDL
MODEL 6
REMARK VINA RESULT:      -7.6      1.812      2.719
REMARK  Name = 
REMARK  3 active torsions:
REMARK  status: ('A' for Active; 'I' for Inactive)
REMARK    1  A    between atoms: C_1  and  C_12
REMARK    2  A    between atoms: C_2  and  C_3
REMARK    3  A    between atoms: N_13  and  C_14
REMARK                            x       y       z     vdW  Elec       q    Type
REMARK                         _______ _______ _______ _____ _____    ______ ____
ROOT
ATOM      1  C   UNL     1       9.206  10.331  18.092  0.00  0.00    +0.000 C 
ATOM      2  C   UNL     1       8.826  11.596  17.850  0.00  0.00    +0.000 C 
ENDROOT
BRANCH   2   3
ATOM      3  C   UNL     1       9.790  12.710  17.729  0.00  0.00    +0.000 A 
ATOM      4  C   UNL     1      11.137  12.482  17.359  0.00  0.00    +0.000 A 
ATOM      5  C   UNL     1      12.047  13.537  17.237  0.00  0.00    +0.000 A 
ATOM      6  C   UNL     1      11.589  14.810  17.485  0.00  0.00    +0.000 A 
ATOM      7  C   UNL     1      10.281  15.050  17.829  0.00  0.00    +0.000 A 
ATOM      8  C   UNL     1       9.357  14.029  17.948  0.00  0.00    +0.000 A 
ATOM      9  O   UNL     1      10.038  16.375  18.032  0.00  0.00    +0.000 OA
ATOM     10  C   UNL     1      11.358  16.927  17.839  0.00  0.00    +0.000 C 
ATOM     11  O   UNL     1      12.333  15.946  17.427  0.00  0.00    +0.000 OA
ENDBRANCH   2   3
BRANCH   1  12
ATOM     12  C   UNL     1       8.230   9.225  18.221  0.00  0.00    +0.000 C 
ATOM     13  N   UNL     1       8.143   8.330  17.277  0.00  0.00    +0.000 NA
BRANCH  13  14
ATOM     14  C   UNL     1       7.269   7.314  17.512  0.00  0.00    +0.000 A 
ATOM     15  N   UNL     1       6.110   7.119  16.923  0.00  0.00    +0.000 NA
ATOM     16  C   UNL     1       5.446   6.029  17.451  0.00  0.00    +0.000 A 
ATOM     17  C   UNL     1       4.167   5.586  17.063  0.00  0.00    +0.000 A 
ATOM     18  C   UNL     1       3.611   4.452  17.662  0.00  0.00    +0.000 A 
ATOM     19  C   UNL     1       4.315   3.758  18.640  0.00  0.00    +0.000 A 
ATOM     20  C   UNL     1       5.584   4.189  19.052  0.00  0.00    +0.000 A 
ATOM     21  C   UNL     1       6.132   5.336  18.447  0.00  0.00    +0.000 A 
ATOM     22  S   UNL     1       7.635   6.133  18.734  0.00  0.00    +0.000 S 
ENDBRANCH  13  14
ENDBRANCH   1  12
TORSDOF 3
ENDMDL
MODEL 7
REMARK VINA RESULT:      -7.5      4.596     10.056
REMARK  Name = 
REMARK  3 active torsions:
REMARK  status: ('A' for Active; 'I' for Inactive)
REMARK    1  A    between atoms: C_1  and  C_12
REMARK    2  A    between atoms: C_2  and  C_3
REMARK    3  A    between atoms: N_13  and  C_14
REMARK                            x       y       z     vdW  Elec       q    Type
REMARK                         _______ _______ _______ _____ _____    ______ ____
ROOT
ATOM      1  C   UNL     1       7.428   7.536  17.580  0.00  0.00    +0.000 C 
ATOM      2  C   UNL     1       6.094   7.523  17.412  0.00  0.00    +0.000 C 
ENDROOT
BRANCH   2   3
ATOM      3  C   UNL     1       5.316   6.270  17.310  0.00  0.00    +0.000 A 
ATOM      4  C   UNL     1       5.794   5.164  16.568  0.00  0.00    +0.000 A 
ATOM      5  C   UNL     1       5.062   3.976  16.479  0.00  0.00    +0.000 A 
ATOM      6  C   UNL     1       3.858   3.914  17.142  0.00  0.00    +0.000 A 
ATOM      7  C   UNL     1       3.388   4.973  17.881  0.00  0.00    +0.000 A 
ATOM      8  C   UNL     1       4.094   6.156  17.995  0.00  0.00    +0.000 A 
ATOM      9  O   UNL     1       2.182   4.705  18.453  0.00  0.00    +0.000 OA
ATOM     10  C   UNL     1       1.921   3.383  17.934  0.00  0.00    +0.000 C 
ATOM     11  O   UNL     1       3.013   2.850  17.155  0.00  0.00    +0.000 OA
ENDBRANCH   2   3
BRANCH   1  12
ATOM     12  C   UNL     1       8.198   8.799  17.671  0.00  0.00    +0.000 C 
ATOM     13  N   UNL     1       8.571   9.242  18.838  0.00  0.00    +0.000 NA
BRANCH  13  14
ATOM     14  C   UNL     1       9.332  10.370  18.819  0.00  0.00    +0.000 A 
ATOM     15  N   UNL     1       9.912  10.912  17.772  0.00  0.00    +0.000 NA
ATOM     16  C   UNL     1      10.667  12.015  18.121  0.00  0.00    +0.000 A 
ATOM     17  C   UNL     1      11.442  12.787  17.234  0.00  0.00    +0.000 A 
ATOM     18  C   UNL     1      12.146  13.897  17.709  0.00  0.00    +0.000 A 
ATOM     19  C   UNL     1      12.086  14.243  19.054  0.00  0.00    +0.000 A 
ATOM     20  C   UNL     1      11.333  13.481  19.958  0.00  0.00    +0.000 A 
ATOM     21  C   UNL     1      10.632  12.361  19.470  0.00  0.00    +0.000 A 
ATOM     22  S   UNL     1       9.646  11.217  20.304  0.00  0.00    +0.000 S 
ENDBRANCH  13  14
ENDBRANCH   1  12
TORSDOF 3
ENDMDL
MODEL 8
REMARK VINA RESULT:      -7.5      7.438      9.559
REMARK  Name = 
REMARK  3 active torsions:
REMARK  status: ('A' for Active; 'I' for Inactive)
REMARK    1  A    between atoms: C_1  and  C_12
REMARK    2  A    between atoms: C_2  and  C_3
REMARK    3  A    between atoms: N_13  and  C_14
REMARK                            x       y       z     vdW  Elec       q    Type
REMARK                         _______ _______ _______ _____ _____    ______ ____
ROOT
ATOM      1  C   UNL     1       2.585   8.157  17.962  0.00  0.00    +0.000 C 
ATOM      2  C   UNL     1       2.767   6.872  18.311  0.00  0.00    +0.000 C 
ENDROOT
BRANCH   2   3
ATOM      3  C   UNL     1       3.667   5.964  17.568  0.00  0.00    +0.000 A 
ATOM      4  C   UNL     1       3.569   4.558  17.699  0.00  0.00    +0.000 A 
ATOM      5  C   UNL     1       4.415   3.700  16.990  0.00  0.00    +0.000 A 
ATOM      6  C   UNL     1       5.349   4.268  16.154  0.00  0.00    +0.000 A 
ATOM      7  C   UNL     1       5.446   5.630  16.003  0.00  0.00    +0.000 A 
ATOM      8  C   UNL     1       4.617   6.502  16.683  0.00  0.00    +0.000 A 
ATOM      9  O   UNL     1       6.433   5.981  15.133  0.00  0.00    +0.000 OA
ATOM     10  C   UNL     1       6.984   4.687  14.808  0.00  0.00    +0.000 C 
ATOM     11  O   UNL     1       6.257   3.591  15.402  0.00  0.00    +0.000 OA
ENDBRANCH   2   3
BRANCH   1  12
ATOM     12  C   UNL     1       1.671   9.054  18.708  0.00  0.00    +0.000 C 
ATOM     13  N   UNL     1       1.289   8.728  19.910  0.00  0.00    +0.000 NA
BRANCH  13  14
ATOM     14  C   UNL     1       0.507   9.643  20.544  0.00  0.00    +0.000 A 
ATOM     15  N   UNL     1       0.109  10.803  20.070  0.00  0.00    +0.000 NA
ATOM     16  C   UNL     1      -0.617  11.515  21.005  0.00  0.00    +0.000 A 
ATOM     17  C   UNL     1      -1.145  12.806  20.818  0.00  0.00    +0.000 A 
ATOM     18  C   UNL     1      -1.884  13.412  21.838  0.00  0.00    +0.000 A 
ATOM     19  C   UNL     1      -2.099  12.745  23.039  0.00  0.00    +0.000 A 
ATOM     20  C   UNL     1      -1.571  11.465  23.254  0.00  0.00    +0.000 A 
ATOM     21  C   UNL     1      -0.824  10.866  22.221  0.00  0.00    +0.000 A 
ATOM     22  S   UNL     1      -0.029   9.336  22.169  0.00  0.00    +0.000 S 
ENDBRANCH  13  14
ENDBRANCH   1  12
TORSDOF 3
ENDMDL
MODEL 9
REMARK VINA RESULT:      -7.5      0.884      1.500
REMARK  Name = 
REMARK  3 active torsions:
REMARK  status: ('A' for Active; 'I' for Inactive)
REMARK    1  A    between atoms: C_1  and  C_12
REMARK    2  A    between atoms: C_2  and  C_3
REMARK    3  A    between atoms: N_13  and  C_14
REMARK                            x       y       z     vdW  Elec       q    Type
REMARK                         _______ _______ _______ _____ _____    ______ ____
ROOT
ATOM      1  C   UNL     1       8.296   9.220  17.622  0.00  0.00    +0.000 C 
ATOM      2  C   UNL     1       8.702   9.781  18.774  0.00  0.00    +0.000 C 
ENDROOT
BRANCH   2   3
ATOM      3  C   UNL     1       9.640  10.923  18.817  0.00  0.00    +0.000 A 
ATOM      4  C   UNL     1      10.653  11.083  17.841  0.00  0.00    +0.000 A 
ATOM      5  C   UNL     1      11.534  12.168  17.877  0.00  0.00    +0.000 A 
ATOM      6  C   UNL     1      11.382  13.083  18.893  0.00  0.00    +0.000 A 
ATOM      7  C   UNL     1      10.393  12.952  19.838  0.00  0.00    +0.000 A 
ATOM      8  C   UNL     1       9.502  11.895  19.822  0.00  0.00    +0.000 A 
ATOM      9  O   UNL     1      10.419  13.962  20.752  0.00  0.00    +0.000 OA
ATOM     10  C   UNL     1      11.576  14.702  20.308  0.00  0.00    +0.000 C 
ATOM     11  O   UNL     1      12.152  14.186  19.090  0.00  0.00    +0.000 OA
ENDBRANCH   2   3
BRANCH   1  12
ATOM     12  C   UNL     1       7.363   8.069  17.592  0.00  0.00    +0.000 C 
ATOM     13  N   UNL     1       7.667   6.978  18.236  0.00  0.00    +0.000 NA
BRANCH  13  14
ATOM     14  C   UNL     1       6.722   6.000  18.209  0.00  0.00    +0.000 A 
ATOM     15  N   UNL     1       6.357   5.228  19.208  0.00  0.00    +0.000 NA
ATOM     16  C   UNL     1       5.417   4.295  18.816  0.00  0.00    +0.000 A 
ATOM     17  C   UNL     1       4.861   3.300  19.642  0.00  0.00    +0.000 A 
ATOM     18  C   UNL     1       3.898   2.426  19.129  0.00  0.00    +0.000 A 
ATOM     19  C   UNL     1       3.488   2.533  17.805  0.00  0.00    +0.000 A 
ATOM     20  C   UNL     1       4.039   3.506  16.959  0.00  0.00    +0.000 A 
ATOM     21  C   UNL     1       5.011   4.378  17.485  0.00  0.00    +0.000 A 
ATOM     22  S   UNL     1       5.891   5.651  16.722  0.00  0.00    +0.000 S 
ENDBRANCH  13  14
ENDBRANCH   1  12
TORSDOF 3
ENDMDL
