MODEL 1
REMARK VINA RESULT:      -8.0      0.000      0.000
REMARK  Name = 
REMARK  4 active torsions:
REMARK  status: ('A' for Active; 'I' for Inactive)
REMARK    1  A    between atoms: C_1  and  O_2
REMARK    2  A    between atoms: O_2  and  C_3
REMARK    3  A    between atoms: C_8  and  C_9
REMARK    4  A    between atoms: N_14  and  C_15
REMARK                            x       y       z     vdW  Elec       q    Type
REMARK                         _______ _______ _______ _____ _____    ______ ____
ROOT
ATOM      1  C   UNL     1       3.857   3.761  17.860  0.00  0.00    +0.000 C 
ATOM      2  O   UNL     1       3.256   3.747  16.784  0.00  0.00    +0.000 OA
ATOM      3  N   UNL     1       5.196   4.088  17.947  0.00  0.00    +0.000 N 
ATOM      4  C   UNL     1       6.092   4.255  16.904  0.00  0.00    +0.000 C 
ATOM      5  O   UNL     1       7.284   4.386  17.170  0.00  0.00    +0.000 OA
ATOM      6  N   UNL     1       5.528   4.254  15.650  0.00  0.00    +0.000 N 
ATOM      7  H   UNL     1       5.633   4.081  18.860  0.00  0.00    +0.000 HD
ATOM      8  H   UNL     1       4.509   4.238  15.644  0.00  0.00    +0.000 HD
ENDROOT
BRANCH   1  14
ATOM      9  C   UNL     1       3.622   2.775  20.246  0.00  0.00    +0.000 A 
ATOM     10  C   UNL     1       2.772   2.538  21.340  0.00  0.00    +0.000 A 
ATOM     11  C   UNL     1       1.447   2.981  21.337  0.00  0.00    +0.000 A 
ATOM     12  C   UNL     1       0.946   3.659  20.236  0.00  0.00    +0.000 A 
ATOM     13  C   UNL     1       1.765   3.881  19.137  0.00  0.00    +0.000 A 
ATOM     14  C   UNL     1       3.106   3.439  19.116  0.00  0.00    +0.000 A 
BRANCH   9  16
ATOM     15  C   UNL     1       5.225   1.172  20.969  0.00  0.00    +0.000 C 
ATOM     16  O   UNL     1       4.932   2.356  20.221  0.00  0.00    +0.000 OA
ENDBRANCH   9  16
ENDBRANCH   1  14
BRANCH   6  17
ATOM     17  C   UNL     1       6.162   4.312  14.396  0.00  0.00    +0.000 A 
ATOM     18  C   UNL     1       7.245   5.148  14.120  0.00  0.00    +0.000 A 
ATOM     19  C   UNL     1       7.834   5.148  12.852  0.00  0.00    +0.000 A 
ATOM     20  C   UNL     1       7.341   4.317  11.847  0.00  0.00    +0.000 A 
ATOM     21  C   UNL     1       6.267   3.472  12.117  0.00  0.00    +0.000 A 
ATOM     22  C   UNL     1       5.688   3.462  13.388  0.00  0.00    +0.000 A 
ENDBRANCH   6  17
TORSDOF 3
ENDMDL
MODEL 2
REMARK VINA RESULT:      -7.8      0.161      1.088
REMARK  Name = 
REMARK  4 active torsions:
REMARK  status: ('A' for Active; 'I' for Inactive)
REMARK    1  A    between atoms: C_1  and  O_2
REMARK    2  A    between atoms: O_2  and  C_3
REMARK    3  A    between atoms: C_8  and  C_9
REMARK    4  A    between atoms: N_14  and  C_15
REMARK                            x       y       z     vdW  Elec       q    Type
REMARK                         _______ _______ _______ _____ _____    ______ ____
ROOT
ATOM      1  C   UNL     1       3.867   3.743  17.954  0.00  0.00    +0.000 C 
ATOM      2  O   UNL     1       3.243   3.727  16.890  0.00  0.00    +0.000 OA
ATOM      3  N   UNL     1       5.211   4.056  18.007  0.00  0.00    +0.000 N 
ATOM      4  C   UNL     1       6.086   4.203  16.944  0.00  0.00    +0.000 C 
ATOM      5  O   UNL     1       7.285   4.322  17.182  0.00  0.00    +0.000 OA
ATOM      6  N   UNL     1       5.494   4.198  15.702  0.00  0.00    +0.000 N 
ATOM      7  H   UNL     1       5.669   4.051  18.911  0.00  0.00    +0.000 HD
ATOM      8  H   UNL     1       4.476   4.193  15.719  0.00  0.00    +0.000 HD
ENDROOT
BRANCH   1  14
ATOM      9  C   UNL     1       3.628   2.667  20.299  0.00  0.00    +0.000 A 
ATOM     10  C   UNL     1       2.805   2.467  21.422  0.00  0.00    +0.000 A 
ATOM     11  C   UNL     1       1.540   3.053  21.504  0.00  0.00    +0.000 A 
ATOM     12  C   UNL     1       1.070   3.839  20.463  0.00  0.00    +0.000 A 
ATOM     13  C   UNL     1       1.860   4.026  19.336  0.00  0.00    +0.000 A 
ATOM     14  C   UNL     1       3.141   3.441  19.228  0.00  0.00    +0.000 A 
BRANCH   9  16
ATOM     15  C   UNL     1       5.238   1.169  21.208  0.00  0.00    +0.000 C 
ATOM     16  O   UNL     1       4.880   2.108  20.190  0.00  0.00    +0.000 OA
ENDBRANCH   9  16
ENDBRANCH   1  14
BRANCH   6  17
ATOM     17  C   UNL     1       6.101   4.237  14.434  0.00  0.00    +0.000 A 
ATOM     18  C   UNL     1       5.692   3.444  13.361  0.00  0.00    +0.000 A 
ATOM     19  C   UNL     1       6.335   3.542  12.123  0.00  0.00    +0.000 A 
ATOM     20  C   UNL     1       7.398   4.427  11.951  0.00  0.00    +0.000 A 
ATOM     21  C   UNL     1       7.807   5.229  13.013  0.00  0.00    +0.000 A 
ATOM     22  C   UNL     1       7.154   5.142  14.246  0.00  0.00    +0.000 A 
ENDBRANCH   6  17
TORSDOF 3
ENDMDL
MODEL 3
REMARK VINA RESULT:      -7.5      1.364      1.887
REMARK  Name = 
REMARK  4 active torsions:
REMARK  status: ('A' for Active; 'I' for Inactive)
REMARK    1  A    between atoms: C_1  and  O_2
REMARK    2  A    between atoms: O_2  and  C_3
REMARK    3  A    between atoms: C_8  and  C_9
REMARK    4  A    between atoms: N_14  and  C_15
REMARK                            x       y       z     vdW  Elec       q    Type
REMARK                         _______ _______ _______ _____ _____    ______ ____
ROOT
ATOM      1  C   UNL     1       3.737   4.006  17.767  0.00  0.00    +0.000 C 
ATOM      2  O   UNL     1       3.156   3.969  16.679  0.00  0.00    +0.000 OA
ATOM      3  N   UNL     1       5.082   4.297  17.868  0.00  0.00    +0.000 N 
ATOM      4  C   UNL     1       6.003   4.398  16.839  0.00  0.00    +0.000 C 
ATOM      5  O   UNL     1       7.193   4.505  17.123  0.00  0.00    +0.000 OA
ATOM      6  N   UNL     1       5.463   4.367  15.574  0.00  0.00    +0.000 N 
ATOM      7  H   UNL     1       5.502   4.311  18.789  0.00  0.00    +0.000 HD
ATOM      8  H   UNL     1       4.445   4.380  15.547  0.00  0.00    +0.000 HD
ENDROOT
BRANCH   1  14
ATOM      9  C   UNL     1       2.767   4.660  20.080  0.00  0.00    +0.000 A 
ATOM     10  C   UNL     1       2.011   4.254  21.194  0.00  0.00    +0.000 A 
ATOM     11  C   UNL     1       1.415   2.991  21.243  0.00  0.00    +0.000 A 
ATOM     12  C   UNL     1       1.574   2.108  20.186  0.00  0.00    +0.000 A 
ATOM     13  C   UNL     1       2.337   2.484  19.089  0.00  0.00    +0.000 A 
ATOM     14  C   UNL     1       2.952   3.753  19.018  0.00  0.00    +0.000 A 
BRANCH   9  16
ATOM     15  C   UNL     1       2.550   6.948  19.467  0.00  0.00    +0.000 C 
ATOM     16  O   UNL     1       3.361   5.897  19.999  0.00  0.00    +0.000 OA
ENDBRANCH   9  16
ENDBRANCH   1  14
BRANCH   6  17
ATOM     17  C   UNL     1       6.123   4.359  14.331  0.00  0.00    +0.000 A 
ATOM     18  C   UNL     1       7.222   5.168  14.040  0.00  0.00    +0.000 A 
ATOM     19  C   UNL     1       7.836   5.102  12.785  0.00  0.00    +0.000 A 
ATOM     20  C   UNL     1       7.351   4.233  11.810  0.00  0.00    +0.000 A 
ATOM     21  C   UNL     1       6.261   3.415  12.096  0.00  0.00    +0.000 A 
ATOM     22  C   UNL     1       5.657   3.470  13.355  0.00  0.00    +0.000 A 
ENDBRANCH   6  17
TORSDOF 3
ENDMDL
MODEL 4
REMARK VINA RESULT:      -7.4      1.376      2.203
REMARK  Name = 
REMARK  4 active torsions:
REMARK  status: ('A' for Active; 'I' for Inactive)
REMARK    1  A    between atoms: C_1  and  O_2
REMARK    2  A    between atoms: O_2  and  C_3
REMARK    3  A    between atoms: C_8  and  C_9
REMARK    4  A    between atoms: N_14  and  C_15
REMARK                            x       y       z     vdW  Elec       q    Type
REMARK                         _______ _______ _______ _____ _____    ______ ____
ROOT
ATOM      1  C   UNL     1       3.711   3.983  17.712  0.00  0.00    +0.000 C 
ATOM      2  O   UNL     1       3.119   3.896  16.633  0.00  0.00    +0.000 OA
ATOM      3  N   UNL     1       5.053   4.301  17.786  0.00  0.00    +0.000 N 
ATOM      4  C   UNL     1       5.960   4.379  16.742  0.00  0.00    +0.000 C 
ATOM      5  O   UNL     1       7.151   4.516  17.008  0.00  0.00    +0.000 OA
ATOM      6  N   UNL     1       5.406   4.292  15.486  0.00  0.00    +0.000 N 
ATOM      7  H   UNL     1       5.482   4.356  18.701  0.00  0.00    +0.000 HD
ATOM      8  H   UNL     1       4.388   4.287  15.472  0.00  0.00    +0.000 HD
ENDROOT
BRANCH   1  14
ATOM      9  C   UNL     1       2.752   4.707  20.008  0.00  0.00    +0.000 A 
ATOM     10  C   UNL     1       2.016   4.330  21.145  0.00  0.00    +0.000 A 
ATOM     11  C   UNL     1       1.449   3.058  21.251  0.00  0.00    +0.000 A 
ATOM     12  C   UNL     1       1.615   2.137  20.228  0.00  0.00    +0.000 A 
ATOM     13  C   UNL     1       2.359   2.485  19.108  0.00  0.00    +0.000 A 
ATOM     14  C   UNL     1       2.946   3.763  18.980  0.00  0.00    +0.000 A 
BRANCH   9  16
ATOM     15  C   UNL     1       2.430   7.007  19.490  0.00  0.00    +0.000 C 
ATOM     16  O   UNL     1       3.318   5.953  19.872  0.00  0.00    +0.000 OA
ENDBRANCH   9  16
ENDBRANCH   1  14
BRANCH   6  17
ATOM     17  C   UNL     1       6.052   4.249  14.237  0.00  0.00    +0.000 A 
ATOM     18  C   UNL     1       5.648   3.419  13.191  0.00  0.00    +0.000 A 
ATOM     19  C   UNL     1       6.331   3.434  11.971  0.00  0.00    +0.000 A 
ATOM     20  C   UNL     1       7.428   4.274  11.790  0.00  0.00    +0.000 A 
ATOM     21  C   UNL     1       7.833   5.113  12.825  0.00  0.00    +0.000 A 
ATOM     22  C   UNL     1       7.140   5.109  14.039  0.00  0.00    +0.000 A 
ENDBRANCH   6  17
TORSDOF 3
ENDMDL
MODEL 5
REMARK VINA RESULT:      -7.3      1.616      2.375
REMARK  Name = 
REMARK  4 active torsions:
REMARK  status: ('A' for Active; 'I' for Inactive)
REMARK    1  A    between atoms: C_1  and  O_2
REMARK    2  A    between atoms: O_2  and  C_3
REMARK    3  A    between atoms: C_8  and  C_9
REMARK    4  A    between atoms: N_14  and  C_15
REMARK                            x       y       z     vdW  Elec       q    Type
REMARK                         _______ _______ _______ _____ _____    ______ ____
ROOT
ATOM      1  C   UNL     1       3.872   4.189  17.829  0.00  0.00    +0.000 C 
ATOM      2  O   UNL     1       3.893   3.189  17.108  0.00  0.00    +0.000 OA
ATOM      3  N   UNL     1       4.395   5.399  17.417  0.00  0.00    +0.000 N 
ATOM      4  C   UNL     1       5.158   5.647  16.288  0.00  0.00    +0.000 C 
ATOM      5  O   UNL     1       5.676   6.753  16.161  0.00  0.00    +0.000 OA
ATOM      6  N   UNL     1       5.251   4.593  15.409  0.00  0.00    +0.000 N 
ATOM      7  H   UNL     1       4.348   6.184  18.055  0.00  0.00    +0.000 HD
ATOM      8  H   UNL     1       4.663   3.794  15.642  0.00  0.00    +0.000 HD
ENDROOT
BRANCH   1  14
ATOM      9  C   UNL     1       2.609   5.147  19.880  0.00  0.00    +0.000 A 
ATOM     10  C   UNL     1       2.075   4.891  21.155  0.00  0.00    +0.000 A 
ATOM     11  C   UNL     1       2.124   3.613  21.717  0.00  0.00    +0.000 A 
ATOM     12  C   UNL     1       2.717   2.571  21.020  0.00  0.00    +0.000 A 
ATOM     13  C   UNL     1       3.271   2.812  19.770  0.00  0.00    +0.000 A 
ATOM     14  C   UNL     1       3.237   4.096  19.183  0.00  0.00    +0.000 A 
BRANCH   9  16
ATOM     15  C   UNL     1       1.971   7.430  20.077  0.00  0.00    +0.000 C 
ATOM     16  O   UNL     1       2.572   6.392  19.298  0.00  0.00    +0.000 OA
ENDBRANCH   9  16
ENDBRANCH   1  14
BRANCH   6  17
ATOM     17  C   UNL     1       6.010   4.491  14.229  0.00  0.00    +0.000 A 
ATOM     18  C   UNL     1       7.188   5.206  14.010  0.00  0.00    +0.000 A 
ATOM     19  C   UNL     1       7.899   5.049  12.816  0.00  0.00    +0.000 A 
ATOM     20  C   UNL     1       7.433   4.182  11.829  0.00  0.00    +0.000 A 
ATOM     21  C   UNL     1       6.263   3.457  12.044  0.00  0.00    +0.000 A 
ATOM     22  C   UNL     1       5.562   3.603  13.243  0.00  0.00    +0.000 A 
ENDBRANCH   6  17
TORSDOF 3
ENDMDL
MODEL 6
REMARK VINA RESULT:      -7.0      4.053      7.744
REMARK  Name = 
REMARK  4 active torsions:
REMARK  status: ('A' for Active; 'I' for Inactive)
REMARK    1  A    between atoms: C_1  and  O_2
REMARK    2  A    between atoms: O_2  and  C_3
REMARK    3  A    between atoms: C_8  and  C_9
REMARK    4  A    between atoms: N_14  and  C_15
REMARK                            x       y       z     vdW  Elec       q    Type
REMARK                         _______ _______ _______ _____ _____    ______ ____
ROOT
ATOM      1  C   UNL     1       4.093   6.525  17.899  0.00  0.00    +0.000 C 
ATOM      2  O   UNL     1       3.889   7.714  17.643  0.00  0.00    +0.000 OA
ATOM      3  N   UNL     1       3.351   5.843  18.843  0.00  0.00    +0.000 N 
ATOM      4  C   UNL     1       2.447   6.373  19.749  0.00  0.00    +0.000 C 
ATOM      5  O   UNL     1       1.997   5.641  20.626  0.00  0.00    +0.000 OA
ATOM      6  N   UNL     1       2.146   7.701  19.557  0.00  0.00    +0.000 N 
ATOM      7  H   UNL     1       3.567   4.868  19.010  0.00  0.00    +0.000 HD
ATOM      8  H   UNL     1       2.541   8.107  18.710  0.00  0.00    +0.000 HD
ENDROOT
BRANCH   1  14
ATOM      9  C   UNL     1       6.236   5.080  17.709  0.00  0.00    +0.000 A 
ATOM     10  C   UNL     1       7.161   4.458  16.852  0.00  0.00    +0.000 A 
ATOM     11  C   UNL     1       7.005   4.503  15.464  0.00  0.00    +0.000 A 
ATOM     12  C   UNL     1       5.930   5.178  14.909  0.00  0.00    +0.000 A 
ATOM     13  C   UNL     1       5.020   5.819  15.740  0.00  0.00    +0.000 A 
ATOM     14  C   UNL     1       5.159   5.791  17.145  0.00  0.00    +0.000 A 
BRANCH   9  16
ATOM     15  C   UNL     1       7.538   5.658  19.615  0.00  0.00    +0.000 C 
ATOM     16  O   UNL     1       6.359   5.051  19.078  0.00  0.00    +0.000 OA
ENDBRANCH   9  16
ENDBRANCH   1  14
BRANCH   6  17
ATOM     17  C   UNL     1       1.344   8.548  20.343  0.00  0.00    +0.000 A 
ATOM     18  C   UNL     1       1.316   8.503  21.738  0.00  0.00    +0.000 A 
ATOM     19  C   UNL     1       0.501   9.383  22.457  0.00  0.00    +0.000 A 
ATOM     20  C   UNL     1      -0.298  10.308  21.789  0.00  0.00    +0.000 A 
ATOM     21  C   UNL     1      -0.269  10.366  20.398  0.00  0.00    +0.000 A 
ATOM     22  C   UNL     1       0.557   9.498  19.679  0.00  0.00    +0.000 A 
ENDBRANCH   6  17
TORSDOF 3
ENDMDL
MODEL 7
REMARK VINA RESULT:      -7.0      5.325      7.260
REMARK  Name = 
REMARK  4 active torsions:
REMARK  status: ('A' for Active; 'I' for Inactive)
REMARK    1  A    between atoms: C_1  and  O_2
REMARK    2  A    between atoms: O_2  and  C_3
REMARK    3  A    between atoms: C_8  and  C_9
REMARK    4  A    between atoms: N_14  and  C_15
REMARK                            x       y       z     vdW  Elec       q    Type
REMARK                         _______ _______ _______ _____ _____    ______ ____
ROOT
ATOM      1  C   UNL     1       2.148   6.640  19.884  0.00  0.00    +0.000 C 
ATOM      2  O   UNL     1       1.487   7.212  20.754  0.00  0.00    +0.000 OA
ATOM      3  N   UNL     1       2.527   7.275  18.718  0.00  0.00    +0.000 N 
ATOM      4  C   UNL     1       2.104   8.509  18.253  0.00  0.00    +0.000 C 
ATOM      5  O   UNL     1       2.419   8.848  17.117  0.00  0.00    +0.000 OA
ATOM      6  N   UNL     1       1.353   9.237  19.147  0.00  0.00    +0.000 N 
ATOM      7  H   UNL     1       3.068   6.751  18.041  0.00  0.00    +0.000 HD
ATOM      8  H   UNL     1       1.289   8.829  20.078  0.00  0.00    +0.000 HD
ENDROOT
BRANCH   1  14
ATOM      9  C   UNL     1       3.735   4.611  19.597  0.00  0.00    +0.000 A 
ATOM     10  C   UNL     1       3.978   3.259  19.895  0.00  0.00    +0.000 A 
ATOM     11  C   UNL     1       3.112   2.532  20.716  0.00  0.00    +0.000 A 
ATOM     12  C   UNL     1       1.984   3.140  21.245  0.00  0.00    +0.000 A 
ATOM     13  C   UNL     1       1.716   4.468  20.941  0.00  0.00    +0.000 A 
ATOM     14  C   UNL     1       2.574   5.222  20.110  0.00  0.00    +0.000 A 
BRANCH   9  16
ATOM     15  C   UNL     1       5.962   5.301  19.123  0.00  0.00    +0.000 C 
ATOM     16  O   UNL     1       4.570   5.355  18.797  0.00  0.00    +0.000 OA
ENDBRANCH   9  16
ENDBRANCH   1  14
BRANCH   6  17
ATOM     17  C   UNL     1       0.707  10.472  18.957  0.00  0.00    +0.000 A 
ATOM     18  C   UNL     1       1.369  11.700  18.996  0.00  0.00    +0.000 A 
ATOM     19  C   UNL     1       0.664  12.890  18.790  0.00  0.00    +0.000 A 
ATOM     20  C   UNL     1      -0.708  12.863  18.550  0.00  0.00    +0.000 A 
ATOM     21  C   UNL     1      -1.375  11.641  18.500  0.00  0.00    +0.000 A 
ATOM     22  C   UNL     1      -0.668  10.451  18.691  0.00  0.00    +0.000 A 
ENDBRANCH   6  17
TORSDOF 3
ENDMDL
MODEL 8
REMARK VINA RESULT:      -7.0      5.867      7.286
REMARK  Name = 
REMARK  4 active torsions:
REMARK  status: ('A' for Active; 'I' for Inactive)
REMARK    1  A    between atoms: C_1  and  O_2
REMARK    2  A    between atoms: O_2  and  C_3
REMARK    3  A    between atoms: C_8  and  C_9
REMARK    4  A    between atoms: N_14  and  C_15
REMARK                            x       y       z     vdW  Elec       q    Type
REMARK                         _______ _______ _______ _____ _____    ______ ____
ROOT
ATOM      1  C   UNL     1       1.065   8.803  20.408  0.00  0.00    +0.000 C 
ATOM      2  O   UNL     1       1.326   7.715  20.927  0.00  0.00    +0.000 OA
ATOM      3  N   UNL     1       1.354   9.070  19.085  0.00  0.00    +0.000 N 
ATOM      4  C   UNL     1       2.111   8.302  18.216  0.00  0.00    +0.000 C 
ATOM      5  O   UNL     1       2.402   8.772  17.119  0.00  0.00    +0.000 OA
ATOM      6  N   UNL     1       2.462   7.061  18.695  0.00  0.00    +0.000 N 
ATOM      7  H   UNL     1       1.117   9.983  18.717  0.00  0.00    +0.000 HD
ATOM      8  H   UNL     1       2.035   6.815  19.586  0.00  0.00    +0.000 HD
ENDROOT
BRANCH   1  14
ATOM      9  C   UNL     1       0.397  11.242  20.976  0.00  0.00    +0.000 A 
ATOM     10  C   UNL     1      -0.279  12.099  21.863  0.00  0.00    +0.000 A 
ATOM     11  C   UNL     1      -0.982  11.596  22.960  0.00  0.00    +0.000 A 
ATOM     12  C   UNL     1      -1.014  10.230  23.197  0.00  0.00    +0.000 A 
ATOM     13  C   UNL     1      -0.332   9.372  22.345  0.00  0.00    +0.000 A 
ATOM     14  C   UNL     1       0.389   9.857  21.231  0.00  0.00    +0.000 A 
BRANCH   9  16
ATOM     15  C   UNL     1       1.847  12.905  20.086  0.00  0.00    +0.000 C 
ATOM     16  O   UNL     1       1.094  11.705  19.885  0.00  0.00    +0.000 OA
ENDBRANCH   9  16
ENDBRANCH   1  14
BRANCH   6  17
ATOM     17  C   UNL     1       3.288   6.088  18.105  0.00  0.00    +0.000 A 
ATOM     18  C   UNL     1       4.635   6.302  17.806  0.00  0.00    +0.000 A 
ATOM     19  C   UNL     1       5.401   5.285  17.227  0.00  0.00    +0.000 A 
ATOM     20  C   UNL     1       4.825   4.050  16.936  0.00  0.00    +0.000 A 
ATOM     21  C   UNL     1       3.485   3.825  17.239  0.00  0.00    +0.000 A 
ATOM     22  C   UNL     1       2.724   4.835  17.832  0.00  0.00    +0.000 A 
ENDBRANCH   6  17
TORSDOF 3
ENDMDL
MODEL 9
REMARK VINA RESULT:      -6.9      4.154      7.862
REMARK  Name = 
REMARK  4 active torsions:
REMARK  status: ('A' for Active; 'I' for Inactive)
REMARK    1  A    between atoms: C_1  and  O_2
REMARK    2  A    between atoms: O_2  and  C_3
REMARK    3  A    between atoms: C_8  and  C_9
REMARK    4  A    between atoms: N_14  and  C_15
REMARK                            x       y       z     vdW  Elec       q    Type
REMARK                         _______ _______ _______ _____ _____    ______ ____
ROOT
ATOM      1  C   UNL     1       3.713   6.531  18.027  0.00  0.00    +0.000 C 
ATOM      2  O   UNL     1       3.540   7.721  17.751  0.00  0.00    +0.000 OA
ATOM      3  N   UNL     1       2.989   5.898  19.018  0.00  0.00    +0.000 N 
ATOM      4  C   UNL     1       2.143   6.480  19.947  0.00  0.00    +0.000 C 
ATOM      5  O   UNL     1       1.706   5.785  20.860  0.00  0.00    +0.000 OA
ATOM      6  N   UNL     1       1.880   7.814  19.735  0.00  0.00    +0.000 N 
ATOM      7  H   UNL     1       3.178   4.920  19.199  0.00  0.00    +0.000 HD
ATOM      8  H   UNL     1       2.253   8.186  18.864  0.00  0.00    +0.000 HD
ENDROOT
BRANCH   1  14
ATOM      9  C   UNL     1       4.551   4.433  16.758  0.00  0.00    +0.000 A 
ATOM     10  C   UNL     1       5.609   3.831  16.054  0.00  0.00    +0.000 A 
ATOM     11  C   UNL     1       6.798   4.521  15.804  0.00  0.00    +0.000 A 
ATOM     12  C   UNL     1       6.954   5.820  16.261  0.00  0.00    +0.000 A 
ATOM     13  C   UNL     1       5.929   6.422  16.979  0.00  0.00    +0.000 A 
ATOM     14  C   UNL     1       4.720   5.743  17.248  0.00  0.00    +0.000 A 
BRANCH   9  16
ATOM     15  C   UNL     1       3.468   2.580  17.784  0.00  0.00    +0.000 C 
ATOM     16  O   UNL     1       3.367   3.782  17.016  0.00  0.00    +0.000 OA
ENDBRANCH   9  16
ENDBRANCH   1  14
BRANCH   6  17
ATOM     17  C   UNL     1       1.142   8.706  20.534  0.00  0.00    +0.000 A 
ATOM     18  C   UNL     1       1.157   8.682  21.929  0.00  0.00    +0.000 A 
ATOM     19  C   UNL     1       0.405   9.606  22.661  0.00  0.00    +0.000 A 
ATOM     20  C   UNL     1      -0.373  10.557  22.003  0.00  0.00    +0.000 A 
ATOM     21  C   UNL     1      -0.386  10.595  20.611  0.00  0.00    +0.000 A 
ATOM     22  C   UNL     1       0.377   9.681  19.881  0.00  0.00    +0.000 A 
ENDBRANCH   6  17
TORSDOF 3
ENDMDL
