MODEL 1
REMARK VINA RESULT:      -9.1      0.000      0.000
REMARK  Name = 
REMARK  5 active torsions:
REMARK  status: ('A' for Active; 'I' for Inactive)
REMARK    1  A    between atoms: C_1  and  O_2
REMARK    2  A    between atoms: O_2  and  C_3
REMARK    3  A    between atoms: C_8  and  N_9
REMARK    4  A    between atoms: C_10  and  C_12
REMARK    5  A    between atoms: C_27  and  O_28
REMARK                            x       y       z     vdW  Elec       q    Type
REMARK                         _______ _______ _______ _____ _____    ______ ____
ROOT
ATOM      1  C   UNL     1       2.772   6.376  19.348  0.00  0.00    +0.000 A 
ATOM      2  C   UNL     1       3.900   5.537  19.434  0.00  0.00    +0.000 A 
ATOM      3  C   UNL     1       4.940   5.623  18.495  0.00  0.00    +0.000 A 
ATOM      4  C   UNL     1       4.857   6.565  17.464  0.00  0.00    +0.000 A 
ATOM      5  C   UNL     1       3.723   7.380  17.369  0.00  0.00    +0.000 A 
ATOM      6  C   UNL     1       2.672   7.309  18.286  0.00  0.00    +0.000 A 
ATOM      7  C   UNL     1       5.927   6.687  16.405  0.00  0.00    +0.000 C 
ATOM      8  C   UNL     1       7.260   6.079  16.813  0.00  0.00    +0.000 C 
ATOM      9  C   UNL     1       7.043   4.702  17.407  0.00  0.00    +0.000 C 
ATOM     10  F   UNL     1       6.478   3.891  16.472  0.00  0.00    +0.000 F 
ATOM     11  F   UNL     1       8.252   4.150  17.696  0.00  0.00    +0.000 F 
ATOM     12  C   UNL     1       6.161   4.745  18.670  0.00  0.00    +0.000 C 
ENDROOT
BRANCH   6  13
ATOM     13  N   UNL     1       1.528   8.157  18.218  0.00  0.00    +0.000 N 
ATOM     14  C   UNL     1       1.542   9.546  18.178  0.00  0.00    +0.000 C 
ATOM     15  O   UNL     1       2.550  10.241  18.146  0.00  0.00    +0.000 OA
ATOM     16  H   UNL     1       0.634   7.684  18.213  0.00  0.00    +0.000 HD
BRANCH  14  17
ATOM     17  C   UNL     1       0.247  10.217  18.144  0.00  0.00    +0.000 A 
ATOM     18  C   UNL     1      -0.326  11.291  18.792  0.00  0.00    +0.000 A 
ATOM     19  C   UNL     1      -1.728  11.269  18.504  0.00  0.00    +0.000 A 
ATOM     20  C   UNL     1      -2.869  11.883  19.055  0.00  0.00    +0.000 A 
ATOM     21  C   UNL     1      -4.119  11.607  18.483  0.00  0.00    +0.000 A 
ATOM     22 CL   UNL     1      -5.552  12.110  19.297  0.00  0.00    +0.000 Cl
ATOM     23  C   UNL     1      -4.233  10.875  17.301  0.00  0.00    +0.000 A 
ATOM     24  C   UNL     1      -3.115  10.255  16.745  0.00  0.00    +0.000 A 
ATOM     25  C   UNL     1      -1.909  10.394  17.438  0.00  0.00    +0.000 A 
ATOM     26  N   UNL     1      -0.740   9.691  17.326  0.00  0.00    +0.000 N 
ATOM     27  H   UNL     1      -0.627   8.826  16.810  0.00  0.00    +0.000 HD
ENDBRANCH  14  17
ENDBRANCH   6  13
BRANCH   1  29
ATOM     28  C   UNL     1       1.429   5.036  20.776  0.00  0.00    +0.000 C 
ATOM     29  O   UNL     1       1.722   6.326  20.238  0.00  0.00    +0.000 OA
ENDBRANCH   1  29
BRANCH  12  30
ATOM     30  O   UNL     1       6.878   5.251  19.810  0.00  0.00    +0.000 OA
ATOM     31  H   UNL     1       6.354   5.059  20.607  0.00  0.00    +0.000 HD
ENDBRANCH  12  30
TORSDOF 4
ENDMDL
MODEL 2
REMARK VINA RESULT:      -8.9      2.143      2.531
REMARK  Name = 
REMARK  5 active torsions:
REMARK  status: ('A' for Active; 'I' for Inactive)
REMARK    1  A    between atoms: C_1  and  O_2
REMARK    2  A    between atoms: O_2  and  C_3
REMARK    3  A    between atoms: C_8  and  N_9
REMARK    4  A    between atoms: C_10  and  C_12
REMARK    5  A    between atoms: C_27  and  O_28
REMARK                            x       y       z     vdW  Elec       q    Type
REMARK                         _______ _______ _______ _____ _____    ______ ____
ROOT
ATOM      1  C   UNL     1       2.485   5.750  19.484  0.00  0.00    +0.000 A 
ATOM      2  C   UNL     1       3.265   4.754  18.864  0.00  0.00    +0.000 A 
ATOM      3  C   UNL     1       4.128   5.066  17.801  0.00  0.00    +0.000 A 
ATOM      4  C   UNL     1       4.219   6.390  17.359  0.00  0.00    +0.000 A 
ATOM      5  C   UNL     1       3.423   7.372  17.961  0.00  0.00    +0.000 A 
ATOM      6  C   UNL     1       2.553   7.085  19.015  0.00  0.00    +0.000 A 
ATOM      7  C   UNL     1       5.104   6.787  16.200  0.00  0.00    +0.000 C 
ATOM      8  C   UNL     1       6.200   5.776  15.897  0.00  0.00    +0.000 C 
ATOM      9  C   UNL     1       5.620   4.377  15.865  0.00  0.00    +0.000 C 
ATOM     10  F   UNL     1       4.689   4.296  14.877  0.00  0.00    +0.000 F 
ATOM     11  F   UNL     1       6.603   3.500  15.520  0.00  0.00    +0.000 F 
ATOM     12  C   UNL     1       4.996   3.973  17.214  0.00  0.00    +0.000 C 
ENDROOT
BRANCH   6  13
ATOM     13  N   UNL     1       1.763   8.083  19.658  0.00  0.00    +0.000 N 
ATOM     14  C   UNL     1       1.210   9.204  19.051  0.00  0.00    +0.000 C 
ATOM     15  O   UNL     1       1.282   9.468  17.857  0.00  0.00    +0.000 OA
ATOM     16  H   UNL     1       1.616   7.951  20.650  0.00  0.00    +0.000 HD
BRANCH  14  17
ATOM     17  C   UNL     1       0.462  10.116  19.909  0.00  0.00    +0.000 A 
ATOM     18  C   UNL     1       0.516  10.493  21.235  0.00  0.00    +0.000 A 
ATOM     19  C   UNL     1      -0.678  11.228  21.521  0.00  0.00    +0.000 A 
ATOM     20  C   UNL     1      -1.345  11.628  22.695  0.00  0.00    +0.000 A 
ATOM     21  C   UNL     1      -2.534  12.361  22.572  0.00  0.00    +0.000 A 
ATOM     22 CL   UNL     1      -3.516  12.621  23.965  0.00  0.00    +0.000 Cl
ATOM     23  C   UNL     1      -2.975  12.831  21.336  0.00  0.00    +0.000 A 
ATOM     24  C   UNL     1      -2.331  12.440  20.162  0.00  0.00    +0.000 A 
ATOM     25  C   UNL     1      -1.255  11.557  20.299  0.00  0.00    +0.000 A 
ATOM     26  N   UNL     1      -0.626  10.780  19.365  0.00  0.00    +0.000 N 
ATOM     27  H   UNL     1      -0.966  10.607  18.426  0.00  0.00    +0.000 HD
ENDBRANCH  14  17
ENDBRANCH   6  13
BRANCH   1  29
ATOM     28  C   UNL     1       1.119   4.158  20.596  0.00  0.00    +0.000 C 
ATOM     29  O   UNL     1       1.619   5.494  20.523  0.00  0.00    +0.000 OA
ENDBRANCH   1  29
BRANCH  12  30
ATOM     30  O   UNL     1       5.997   3.662  18.199  0.00  0.00    +0.000 OA
ATOM     31  H   UNL     1       6.649   3.066  17.790  0.00  0.00    +0.000 HD
ENDBRANCH  12  30
TORSDOF 4
ENDMDL
MODEL 3
REMARK VINA RESULT:      -8.6      2.535      2.972
REMARK  Name = 
REMARK  5 active torsions:
REMARK  status: ('A' for Active; 'I' for Inactive)
REMARK    1  A    between atoms: C_1  and  O_2
REMARK    2  A    between atoms: O_2  and  C_3
REMARK    3  A    between atoms: C_8  and  N_9
REMARK    4  A    between atoms: C_10  and  C_12
REMARK    5  A    between atoms: C_27  and  O_28
REMARK                            x       y       z     vdW  Elec       q    Type
REMARK                         _______ _______ _______ _____ _____    ______ ____
ROOT
ATOM      1  C   UNL     1       2.624   5.875  19.405  0.00  0.00    +0.000 A 
ATOM      2  C   UNL     1       3.411   4.843  18.855  0.00  0.00    +0.000 A 
ATOM      3  C   UNL     1       4.240   5.077  17.746  0.00  0.00    +0.000 A 
ATOM      4  C   UNL     1       4.291   6.358  17.186  0.00  0.00    +0.000 A 
ATOM      5  C   UNL     1       3.488   7.373  17.720  0.00  0.00    +0.000 A 
ATOM      6  C   UNL     1       2.651   7.164  18.818  0.00  0.00    +0.000 A 
ATOM      7  C   UNL     1       5.138   6.668  15.974  0.00  0.00    +0.000 C 
ATOM      8  C   UNL     1       6.248   5.656  15.732  0.00  0.00    +0.000 C 
ATOM      9  C   UNL     1       5.699   4.247  15.839  0.00  0.00    +0.000 C 
ATOM     10  F   UNL     1       4.745   4.061  14.888  0.00  0.00    +0.000 F 
ATOM     11  F   UNL     1       6.692   3.364  15.548  0.00  0.00    +0.000 F 
ATOM     12  C   UNL     1       5.117   3.953  17.235  0.00  0.00    +0.000 C 
ENDROOT
BRANCH   6  13
ATOM     13  N   UNL     1       1.855   8.199  19.391  0.00  0.00    +0.000 N 
ATOM     14  C   UNL     1       1.428   9.353  18.746  0.00  0.00    +0.000 C 
ATOM     15  O   UNL     1       1.635   9.622  17.568  0.00  0.00    +0.000 OA
ATOM     16  H   UNL     1       1.602   8.068  20.361  0.00  0.00    +0.000 HD
BRANCH  14  17
ATOM     17  C   UNL     1       0.647  10.299  19.536  0.00  0.00    +0.000 A 
ATOM     18  C   UNL     1       0.217  11.600  19.377  0.00  0.00    +0.000 A 
ATOM     19  C   UNL     1      -0.281  12.045  20.643  0.00  0.00    +0.000 A 
ATOM     20  C   UNL     1      -0.586  13.298  21.209  0.00  0.00    +0.000 A 
ATOM     21  C   UNL     1      -1.069  13.336  22.526  0.00  0.00    +0.000 A 
ATOM     22 CL   UNL     1      -1.183  14.851  23.340  0.00  0.00    +0.000 Cl
ATOM     23  C   UNL     1      -1.396  12.170  23.215  0.00  0.00    +0.000 A 
ATOM     24  C   UNL     1      -1.094  10.921  22.673  0.00  0.00    +0.000 A 
ATOM     25  C   UNL     1      -0.445  10.914  21.435  0.00  0.00    +0.000 A 
ATOM     26  N   UNL     1       0.230   9.908  20.798  0.00  0.00    +0.000 N 
ATOM     27  H   UNL     1       0.501   9.028  21.221  0.00  0.00    +0.000 HD
ENDBRANCH  14  17
ENDBRANCH   6  13
BRANCH   1  29
ATOM     28  C   UNL     1       1.143   4.425  20.562  0.00  0.00    +0.000 C 
ATOM     29  O   UNL     1       1.790   5.695  20.485  0.00  0.00    +0.000 OA
ENDBRANCH   1  29
BRANCH  12  30
ATOM     30  O   UNL     1       6.149   3.751  18.217  0.00  0.00    +0.000 OA
ATOM     31  H   UNL     1       5.960   2.919  18.686  0.00  0.00    +0.000 HD
ENDBRANCH  12  30
TORSDOF 4
ENDMDL
MODEL 4
REMARK VINA RESULT:      -8.5      6.593      8.847
REMARK  Name = 
REMARK  5 active torsions:
REMARK  status: ('A' for Active; 'I' for Inactive)
REMARK    1  A    between atoms: C_1  and  O_2
REMARK    2  A    between atoms: O_2  and  C_3
REMARK    3  A    between atoms: C_8  and  N_9
REMARK    4  A    between atoms: C_10  and  C_12
REMARK    5  A    between atoms: C_27  and  O_28
REMARK                            x       y       z     vdW  Elec       q    Type
REMARK                         _______ _______ _______ _____ _____    ______ ____
ROOT
ATOM      1  C   UNL     1       5.677   5.541  16.568  0.00  0.00    +0.000 A 
ATOM      2  C   UNL     1       4.879   4.382  16.490  0.00  0.00    +0.000 A 
ATOM      3  C   UNL     1       4.080   3.979  17.571  0.00  0.00    +0.000 A 
ATOM      4  C   UNL     1       4.070   4.747  18.740  0.00  0.00    +0.000 A 
ATOM      5  C   UNL     1       4.884   5.883  18.822  0.00  0.00    +0.000 A 
ATOM      6  C   UNL     1       5.692   6.301  17.763  0.00  0.00    +0.000 A 
ATOM      7  C   UNL     1       3.257   4.351  19.951  0.00  0.00    +0.000 C 
ATOM      8  C   UNL     1       2.130   3.379  19.635  0.00  0.00    +0.000 C 
ATOM      9  C   UNL     1       2.645   2.254  18.761  0.00  0.00    +0.000 C 
ATOM     10  F   UNL     1       3.615   1.572  19.427  0.00  0.00    +0.000 F 
ATOM     11  F   UNL     1       1.639   1.361  18.554  0.00  0.00    +0.000 F 
ATOM     12  C   UNL     1       3.189   2.765  17.413  0.00  0.00    +0.000 C 
ENDROOT
BRANCH   6  13
ATOM     13  N   UNL     1       6.499   7.476  17.823  0.00  0.00    +0.000 N 
ATOM     14  C   UNL     1       7.754   7.577  18.410  0.00  0.00    +0.000 C 
ATOM     15  O   UNL     1       8.371   6.648  18.919  0.00  0.00    +0.000 OA
ATOM     16  H   UNL     1       6.094   8.304  17.407  0.00  0.00    +0.000 HD
BRANCH  14  17
ATOM     17  C   UNL     1       8.389   8.889  18.387  0.00  0.00    +0.000 A 
ATOM     18  C   UNL     1       8.559   9.889  17.451  0.00  0.00    +0.000 A 
ATOM     19  C   UNL     1       9.515  10.813  17.979  0.00  0.00    +0.000 A 
ATOM     20  C   UNL     1      10.305  11.846  17.439  0.00  0.00    +0.000 A 
ATOM     21  C   UNL     1      11.155  12.557  18.299  0.00  0.00    +0.000 A 
ATOM     22 CL   UNL     1      12.333  13.625  17.633  0.00  0.00    +0.000 Cl
ATOM     23  C   UNL     1      11.115  12.369  19.680  0.00  0.00    +0.000 A 
ATOM     24  C   UNL     1      10.344  11.347  20.231  0.00  0.00    +0.000 A 
ATOM     25  C   UNL     1       9.646  10.532  19.335  0.00  0.00    +0.000 A 
ATOM     26  N   UNL     1       9.061   9.309  19.523  0.00  0.00    +0.000 N 
ATOM     27  H   UNL     1       9.191   8.721  20.338  0.00  0.00    +0.000 HD
ENDBRANCH  14  17
ENDBRANCH   6  13
BRANCH   1  29
ATOM     28  C   UNL     1       6.840   4.984  14.574  0.00  0.00    +0.000 C 
ATOM     29  O   UNL     1       6.483   5.975  15.539  0.00  0.00    +0.000 OA
ENDBRANCH   1  29
BRANCH  12  30
ATOM     30  O   UNL     1       2.132   3.138  16.512  0.00  0.00    +0.000 OA
ATOM     31  H   UNL     1       1.460   2.434  16.527  0.00  0.00    +0.000 HD
ENDBRANCH  12  30
TORSDOF 4
ENDMDL
MODEL 5
REMARK VINA RESULT:      -8.4      3.679      4.849
REMARK  Name = 
REMARK  5 active torsions:
REMARK  status: ('A' for Active; 'I' for Inactive)
REMARK    1  A    between atoms: C_1  and  O_2
REMARK    2  A    between atoms: O_2  and  C_3
REMARK    3  A    between atoms: C_8  and  N_9
REMARK    4  A    between atoms: C_10  and  C_12
REMARK    5  A    between atoms: C_27  and  O_28
REMARK                            x       y       z     vdW  Elec       q    Type
REMARK                         _______ _______ _______ _____ _____    ______ ____
ROOT
ATOM      1  C   UNL     1       2.319   7.400  18.916  0.00  0.00    +0.000 A 
ATOM      2  C   UNL     1       2.722   6.191  18.316  0.00  0.00    +0.000 A 
ATOM      3  C   UNL     1       2.519   4.960  18.961  0.00  0.00    +0.000 A 
ATOM      4  C   UNL     1       1.898   4.937  20.214  0.00  0.00    +0.000 A 
ATOM      5  C   UNL     1       1.524   6.144  20.817  0.00  0.00    +0.000 A 
ATOM      6  C   UNL     1       1.720   7.380  20.199  0.00  0.00    +0.000 A 
ATOM      7  C   UNL     1       1.679   3.650  20.975  0.00  0.00    +0.000 C 
ATOM      8  C   UNL     1       1.732   2.408  20.097  0.00  0.00    +0.000 C 
ATOM      9  C   UNL     1       2.944   2.466  19.189  0.00  0.00    +0.000 C 
ATOM     10  F   UNL     1       4.074   2.496  19.945  0.00  0.00    +0.000 F 
ATOM     11  F   UNL     1       3.010   1.314  18.468  0.00  0.00    +0.000 F 
ATOM     12  C   UNL     1       2.907   3.683  18.245  0.00  0.00    +0.000 C 
ENDROOT
BRANCH   6  13
ATOM     13  N   UNL     1       1.311   8.613  20.789  0.00  0.00    +0.000 N 
ATOM     14  C   UNL     1       0.084   8.864  21.389  0.00  0.00    +0.000 C 
ATOM     15  O   UNL     1      -0.810   8.039  21.541  0.00  0.00    +0.000 OA
ATOM     16  H   UNL     1       1.987   9.364  20.743  0.00  0.00    +0.000 HD
BRANCH  14  17
ATOM     17  C   UNL     1      -0.137  10.212  21.900  0.00  0.00    +0.000 A 
ATOM     18  C   UNL     1      -0.836  10.769  22.951  0.00  0.00    +0.000 A 
ATOM     19  C   UNL     1      -0.872  12.184  22.741  0.00  0.00    +0.000 A 
ATOM     20  C   UNL     1      -1.630  13.249  23.262  0.00  0.00    +0.000 A 
ATOM     21  C   UNL     1      -1.370  14.546  22.796  0.00  0.00    +0.000 A 
ATOM     22 CL   UNL     1      -2.456  15.823  23.196  0.00  0.00    +0.000 Cl
ATOM     23  C   UNL     1      -0.287  14.815  21.960  0.00  0.00    +0.000 A 
ATOM     24  C   UNL     1       0.471  13.772  21.429  0.00  0.00    +0.000 A 
ATOM     25  C   UNL     1       0.076  12.474  21.765  0.00  0.00    +0.000 A 
ATOM     26  N   UNL     1       0.408  11.274  21.196  0.00  0.00    +0.000 N 
ATOM     27  H   UNL     1       0.888  11.162  20.310  0.00  0.00    +0.000 HD
ENDBRANCH  14  17
ENDBRANCH   6  13
BRANCH   1  29
ATOM     28  C   UNL     1       1.355   9.187  17.685  0.00  0.00    +0.000 C 
ATOM     29  O   UNL     1       2.502   8.633  18.329  0.00  0.00    +0.000 OA
ENDBRANCH   1  29
BRANCH  12  30
ATOM     30  O   UNL     1       1.965   3.504  17.172  0.00  0.00    +0.000 OA
ATOM     31  H   UNL     1       2.453   3.187  16.392  0.00  0.00    +0.000 HD
ENDBRANCH  12  30
TORSDOF 4
ENDMDL
MODEL 6
REMARK VINA RESULT:      -7.9      5.503      9.708
REMARK  Name = 
REMARK  5 active torsions:
REMARK  status: ('A' for Active; 'I' for Inactive)
REMARK    1  A    between atoms: C_1  and  O_2
REMARK    2  A    between atoms: O_2  and  C_3
REMARK    3  A    between atoms: C_8  and  N_9
REMARK    4  A    between atoms: C_10  and  C_12
REMARK    5  A    between atoms: C_27  and  O_28
REMARK                            x       y       z     vdW  Elec       q    Type
REMARK                         _______ _______ _______ _____ _____    ______ ____
ROOT
ATOM      1  C   UNL     1      -1.051  10.585  18.715  0.00  0.00    +0.000 A 
ATOM      2  C   UNL     1      -2.064  11.452  19.170  0.00  0.00    +0.000 A 
ATOM      3  C   UNL     1      -2.018  12.008  20.459  0.00  0.00    +0.000 A 
ATOM      4  C   UNL     1      -0.943  11.701  21.299  0.00  0.00    +0.000 A 
ATOM      5  C   UNL     1       0.048  10.819  20.852  0.00  0.00    +0.000 A 
ATOM      6  C   UNL     1       0.021  10.249  19.578  0.00  0.00    +0.000 A 
ATOM      7  C   UNL     1      -0.849  12.240  22.707  0.00  0.00    +0.000 C 
ATOM      8  C   UNL     1      -1.713  13.469  22.947  0.00  0.00    +0.000 C 
ATOM      9  C   UNL     1      -3.105  13.241  22.395  0.00  0.00    +0.000 C 
ATOM     10  F   UNL     1      -3.680  12.191  23.039  0.00  0.00    +0.000 F 
ATOM     11  F   UNL     1      -3.878  14.323  22.685  0.00  0.00    +0.000 F 
ATOM     12  C   UNL     1      -3.095  12.987  20.875  0.00  0.00    +0.000 C 
ENDROOT
BRANCH   6  13
ATOM     13  N   UNL     1       1.043   9.376  19.100  0.00  0.00    +0.000 N 
ATOM     14  C   UNL     1       1.511   8.236  19.742  0.00  0.00    +0.000 C 
ATOM     15  O   UNL     1       1.072   7.789  20.795  0.00  0.00    +0.000 OA
ATOM     16  H   UNL     1       1.463   9.638  18.218  0.00  0.00    +0.000 HD
BRANCH  14  17
ATOM     17  C   UNL     1       2.591   7.507  19.087  0.00  0.00    +0.000 A 
ATOM     18  C   UNL     1       3.257   7.599  17.883  0.00  0.00    +0.000 A 
ATOM     19  C   UNL     1       4.034   6.407  17.729  0.00  0.00    +0.000 A 
ATOM     20  C   UNL     1       4.686   5.775  16.654  0.00  0.00    +0.000 A 
ATOM     21  C   UNL     1       5.370   4.575  16.899  0.00  0.00    +0.000 A 
ATOM     22 CL   UNL     1       5.933   3.635  15.569  0.00  0.00    +0.000 Cl
ATOM     23  C   UNL     1       5.547   4.090  18.194  0.00  0.00    +0.000 A 
ATOM     24  C   UNL     1       4.903   4.700  19.270  0.00  0.00    +0.000 A 
ATOM     25  C   UNL     1       4.078   5.788  18.974  0.00  0.00    +0.000 A 
ATOM     26  N   UNL     1       3.111   6.395  19.730  0.00  0.00    +0.000 N 
ATOM     27  H   UNL     1       2.730   6.027  20.593  0.00  0.00    +0.000 HD
ENDBRANCH  14  17
ENDBRANCH   6  13
BRANCH   1  29
ATOM     28  C   UNL     1      -2.312  10.004  16.789  0.00  0.00    +0.000 C 
ATOM     29  O   UNL     1      -1.053  10.009  17.465  0.00  0.00    +0.000 OA
ENDBRANCH   1  29
BRANCH  12  30
ATOM     30  O   UNL     1      -2.870  14.196  20.128  0.00  0.00    +0.000 OA
ATOM     31  H   UNL     1      -2.043  14.091  19.626  0.00  0.00    +0.000 HD
ENDBRANCH  12  30
TORSDOF 4
ENDMDL
MODEL 7
REMARK VINA RESULT:      -7.9      3.452      4.564
REMARK  Name = 
REMARK  5 active torsions:
REMARK  status: ('A' for Active; 'I' for Inactive)
REMARK    1  A    between atoms: C_1  and  O_2
REMARK    2  A    between atoms: O_2  and  C_3
REMARK    3  A    between atoms: C_8  and  N_9
REMARK    4  A    between atoms: C_10  and  C_12
REMARK    5  A    between atoms: C_27  and  O_28
REMARK                            x       y       z     vdW  Elec       q    Type
REMARK                         _______ _______ _______ _____ _____    ______ ____
ROOT
ATOM      1  C   UNL     1       2.275   7.468  19.319  0.00  0.00    +0.000 A 
ATOM      2  C   UNL     1       2.997   6.383  18.784  0.00  0.00    +0.000 A 
ATOM      3  C   UNL     1       2.837   5.085  19.294  0.00  0.00    +0.000 A 
ATOM      4  C   UNL     1       1.938   4.866  20.343  0.00  0.00    +0.000 A 
ATOM      5  C   UNL     1       1.242   5.952  20.888  0.00  0.00    +0.000 A 
ATOM      6  C   UNL     1       1.389   7.253  20.403  0.00  0.00    +0.000 A 
ATOM      7  C   UNL     1       1.742   3.500  20.957  0.00  0.00    +0.000 C 
ATOM      8  C   UNL     1       2.204   2.359  20.062  0.00  0.00    +0.000 C 
ATOM      9  C   UNL     1       3.577   2.663  19.499  0.00  0.00    +0.000 C 
ATOM     10  F   UNL     1       4.467   2.784  20.521  0.00  0.00    +0.000 F 
ATOM     11  F   UNL     1       3.999   1.599  18.764  0.00  0.00    +0.000 F 
ATOM     12  C   UNL     1       3.584   3.942  18.639  0.00  0.00    +0.000 C 
ENDROOT
BRANCH   6  13
ATOM     13  N   UNL     1       0.660   8.360  20.929  0.00  0.00    +0.000 N 
ATOM     14  C   UNL     1       1.052   9.168  21.989  0.00  0.00    +0.000 C 
ATOM     15  O   UNL     1       2.113   9.073  22.594  0.00  0.00    +0.000 OA
ATOM     16  H   UNL     1      -0.229   8.548  20.483  0.00  0.00    +0.000 HD
BRANCH  14  17
ATOM     17  C   UNL     1       0.132  10.229  22.384  0.00  0.00    +0.000 A 
ATOM     18  C   UNL     1      -0.945  10.334  23.240  0.00  0.00    +0.000 A 
ATOM     19  C   UNL     1      -1.589  11.583  22.968  0.00  0.00    +0.000 A 
ATOM     20  C   UNL     1      -2.844  12.144  23.273  0.00  0.00    +0.000 A 
ATOM     21  C   UNL     1      -3.124  13.441  22.818  0.00  0.00    +0.000 A 
ATOM     22 CL   UNL     1      -4.735  14.045  22.926  0.00  0.00    +0.000 Cl
ATOM     23  C   UNL     1      -2.144  14.230  22.218  0.00  0.00    +0.000 A 
ATOM     24  C   UNL     1      -0.898  13.688  21.902  0.00  0.00    +0.000 A 
ATOM     25  C   UNL     1      -0.706  12.337  22.202  0.00  0.00    +0.000 A 
ATOM     26  N   UNL     1       0.254  11.463  21.767  0.00  0.00    +0.000 N 
ATOM     27  H   UNL     1       0.901  11.640  21.007  0.00  0.00    +0.000 HD
ENDBRANCH  14  17
ENDBRANCH   6  13
BRANCH   1  29
ATOM     28  C   UNL     1       1.574   9.106  17.750  0.00  0.00    +0.000 C 
ATOM     29  O   UNL     1       2.402   8.760  18.861  0.00  0.00    +0.000 OA
ENDBRANCH   1  29
BRANCH  12  30
ATOM     30  O   UNL     1       2.976   3.728  17.353  0.00  0.00    +0.000 OA
ATOM     31  H   UNL     1       3.547   3.125  16.846  0.00  0.00    +0.000 HD
ENDBRANCH  12  30
TORSDOF 4
ENDMDL
MODEL 8
REMARK VINA RESULT:      -7.8      5.515      9.649
REMARK  Name = 
REMARK  5 active torsions:
REMARK  status: ('A' for Active; 'I' for Inactive)
REMARK    1  A    between atoms: C_1  and  O_2
REMARK    2  A    between atoms: O_2  and  C_3
REMARK    3  A    between atoms: C_8  and  N_9
REMARK    4  A    between atoms: C_10  and  C_12
REMARK    5  A    between atoms: C_27  and  O_28
REMARK                            x       y       z     vdW  Elec       q    Type
REMARK                         _______ _______ _______ _____ _____    ______ ____
ROOT
ATOM      1  C   UNL     1      -0.978  10.478  18.697  0.00  0.00    +0.000 A 
ATOM      2  C   UNL     1      -1.929  11.431  19.111  0.00  0.00    +0.000 A 
ATOM      3  C   UNL     1      -1.883  11.989  20.398  0.00  0.00    +0.000 A 
ATOM      4  C   UNL     1      -0.869  11.598  21.279  0.00  0.00    +0.000 A 
ATOM      5  C   UNL     1       0.059  10.632  20.872  0.00  0.00    +0.000 A 
ATOM      6  C   UNL     1       0.030  10.057  19.599  0.00  0.00    +0.000 A 
ATOM      7  C   UNL     1      -0.780  12.137  22.687  0.00  0.00    +0.000 C 
ATOM      8  C   UNL     1      -1.544  13.437  22.890  0.00  0.00    +0.000 C 
ATOM      9  C   UNL     1      -2.930  13.325  22.288  0.00  0.00    +0.000 C 
ATOM     10  F   UNL     1      -3.615  12.331  22.915  0.00  0.00    +0.000 F 
ATOM     11  F   UNL     1      -3.618  14.470  22.546  0.00  0.00    +0.000 F 
ATOM     12  C   UNL     1      -2.887  13.060  20.771  0.00  0.00    +0.000 C 
ENDROOT
BRANCH   6  13
ATOM     13  N   UNL     1       0.990   9.097  19.163  0.00  0.00    +0.000 N 
ATOM     14  C   UNL     1       1.488   8.040  19.913  0.00  0.00    +0.000 C 
ATOM     15  O   UNL     1       1.132   7.751  21.050  0.00  0.00    +0.000 OA
ATOM     16  H   UNL     1       1.338   9.226  18.222  0.00  0.00    +0.000 HD
BRANCH  14  17
ATOM     17  C   UNL     1       2.494   7.197  19.278  0.00  0.00    +0.000 A 
ATOM     18  C   UNL     1       3.132   6.014  19.589  0.00  0.00    +0.000 A 
ATOM     19  C   UNL     1       4.218   5.857  18.670  0.00  0.00    +0.000 A 
ATOM     20  C   UNL     1       5.375   5.055  18.622  0.00  0.00    +0.000 A 
ATOM     21  C   UNL     1       6.235   5.187  17.522  0.00  0.00    +0.000 A 
ATOM     22 CL   UNL     1       7.786   4.437  17.566  0.00  0.00    +0.000 Cl
ATOM     23  C   UNL     1       5.891   5.968  16.419  0.00  0.00    +0.000 A 
ATOM     24  C   UNL     1       4.753   6.773  16.452  0.00  0.00    +0.000 A 
ATOM     25  C   UNL     1       4.009   6.762  17.636  0.00  0.00    +0.000 A 
ATOM     26  N   UNL     1       3.048   7.628  18.083  0.00  0.00    +0.000 N 
ATOM     27  H   UNL     1       2.840   8.531  17.672  0.00  0.00    +0.000 HD
ENDBRANCH  14  17
ENDBRANCH   6  13
BRANCH   1  29
ATOM     28  C   UNL     1      -2.187  10.060  16.696  0.00  0.00    +0.000 C 
ATOM     29  O   UNL     1      -0.985   9.895  17.450  0.00  0.00    +0.000 OA
ENDBRANCH   1  29
BRANCH  12  30
ATOM     30  O   UNL     1      -2.533  14.240  20.028  0.00  0.00    +0.000 OA
ATOM     31  H   UNL     1      -2.393  14.965  20.662  0.00  0.00    +0.000 HD
ENDBRANCH  12  30
TORSDOF 4
ENDMDL
MODEL 9
REMARK VINA RESULT:      -7.8      4.158      4.968
REMARK  Name = 
REMARK  5 active torsions:
REMARK  status: ('A' for Active; 'I' for Inactive)
REMARK    1  A    between atoms: C_1  and  O_2
REMARK    2  A    between atoms: O_2  and  C_3
REMARK    3  A    between atoms: C_8  and  N_9
REMARK    4  A    between atoms: C_10  and  C_12
REMARK    5  A    between atoms: C_27  and  O_28
REMARK                            x       y       z     vdW  Elec       q    Type
REMARK                         _______ _______ _______ _____ _____    ______ ____
ROOT
ATOM      1  C   UNL     1       1.591   7.265  20.619  0.00  0.00    +0.000 A 
ATOM      2  C   UNL     1       1.454   5.886  20.873  0.00  0.00    +0.000 A 
ATOM      3  C   UNL     1       1.765   4.933  19.890  0.00  0.00    +0.000 A 
ATOM      4  C   UNL     1       2.228   5.362  18.642  0.00  0.00    +0.000 A 
ATOM      5  C   UNL     1       2.339   6.734  18.386  0.00  0.00    +0.000 A 
ATOM      6  C   UNL     1       2.029   7.701  19.344  0.00  0.00    +0.000 A 
ATOM      7  C   UNL     1       2.551   4.391  17.531  0.00  0.00    +0.000 C 
ATOM      8  C   UNL     1       2.794   2.970  18.017  0.00  0.00    +0.000 C 
ATOM      9  C   UNL     1       1.705   2.560  18.988  0.00  0.00    +0.000 C 
ATOM     10  F   UNL     1       0.502   2.588  18.354  0.00  0.00    +0.000 F 
ATOM     11  F   UNL     1       1.903   1.264  19.351  0.00  0.00    +0.000 F 
ATOM     12  C   UNL     1       1.666   3.463  20.236  0.00  0.00    +0.000 C 
ENDROOT
BRANCH   6  13
ATOM     13  N   UNL     1       2.171   9.100  19.105  0.00  0.00    +0.000 N 
ATOM     14  C   UNL     1       1.189   9.947  18.605  0.00  0.00    +0.000 C 
ATOM     15  O   UNL     1       0.038   9.618  18.345  0.00  0.00    +0.000 OA
ATOM     16  H   UNL     1       3.082   9.487  19.311  0.00  0.00    +0.000 HD
BRANCH  14  17
ATOM     17  C   UNL     1       1.563  11.343  18.406  0.00  0.00    +0.000 A 
ATOM     18  C   UNL     1       2.646  12.009  17.872  0.00  0.00    +0.000 A 
ATOM     19  C   UNL     1       2.517  13.390  18.225  0.00  0.00    +0.000 A 
ATOM     20  C   UNL     1       3.383  14.500  18.238  0.00  0.00    +0.000 A 
ATOM     21  C   UNL     1       2.878  15.737  18.664  0.00  0.00    +0.000 A 
ATOM     22 CL   UNL     1       3.968  17.040  18.960  0.00  0.00    +0.000 Cl
ATOM     23  C   UNL     1       1.520  15.920  18.919  0.00  0.00    +0.000 A 
ATOM     24  C   UNL     1       0.649  14.831  18.918  0.00  0.00    +0.000 A 
ATOM     25  C   UNL     1       1.212  13.576  18.668  0.00  0.00    +0.000 A 
ATOM     26  N   UNL     1       0.706  12.322  18.882  0.00  0.00    +0.000 N 
ATOM     27  H   UNL     1      -0.126  12.114  19.422  0.00  0.00    +0.000 HD
ENDBRANCH  14  17
ENDBRANCH   6  13
BRANCH   1  29
ATOM     28  C   UNL     1      -0.099   8.491  21.749  0.00  0.00    +0.000 C 
ATOM     29  O   UNL     1       1.292   8.239  21.545  0.00  0.00    +0.000 OA
ENDBRANCH   1  29
BRANCH  12  30
ATOM     30  O   UNL     1       2.745   3.174  21.143  0.00  0.00    +0.000 OA
ATOM     31  H   UNL     1       3.007   4.005  21.575  0.00  0.00    +0.000 HD
ENDBRANCH  12  30
TORSDOF 4
ENDMDL
