MODEL 1
REMARK VINA RESULT:      -7.1      0.000      0.000
REMARK  Name = 
REMARK  12 active torsions:
REMARK  status: ('A' for Active; 'I' for Inactive)
REMARK    1  A    between atoms: C_1  and  N_2
REMARK    2  A    between atoms: N_2  and  C_3
REMARK    3  A    between atoms: N_2  and  C_19
REMARK    4  A    between atoms: C_3  and  C_4
REMARK    5  A    between atoms: C_4  and  N_5
REMARK    6  A    between atoms: N_5  and  C_6
REMARK    7  A    between atoms: C_6  and  C_7
REMARK    8  A    between atoms: N_9  and  C_10
REMARK    9  A    between atoms: C_10  and  C_11
REMARK   10  A    between atoms: C_19  and  C_20
REMARK   11  A    between atoms: C_20  and  N_21
REMARK   12  A    between atoms: N_21  and  C_22
REMARK                            x       y       z     vdW  Elec       q    Type
REMARK                         _______ _______ _______ _____ _____    ______ ____
ROOT
ATOM      1  C   UNL     1      -0.568   8.955  22.368  0.00  0.00    +0.000 C 
ATOM      2  N   UNL     1       0.743   8.920  21.695  0.00  0.00    +0.000 NA
ENDROOT
BRANCH   2   3
ATOM      3  C   UNL     1       0.757   7.625  20.912  0.00  0.00    +0.000 C 
BRANCH   3   4
ATOM      4  C   UNL     1       2.039   6.750  20.771  0.00  0.00    +0.000 C 
BRANCH   4   5
ATOM      5  N   UNL     1       1.919   5.316  21.191  0.00  0.00    +0.000 NA
ATOM      6  H   UNL     1       1.465   5.268  22.103  0.00  0.00    +0.000 HD
BRANCH   5   7
ATOM      7  C   UNL     1       1.181   4.456  20.248  0.00  0.00    +0.000 C 
BRANCH   7   8
ATOM      8  C   UNL     1       1.970   4.174  18.998  0.00  0.00    +0.000 A 
ATOM      9  C   UNL     1       3.242   4.511  18.628  0.00  0.00    +0.000 A 
ATOM     10  N   UNL     1       3.382   4.065  17.341  0.00  0.00    +0.000 N 
ATOM     11  N   UNL     1       2.254   3.456  16.938  0.00  0.00    +0.000 NA
ATOM     12  N   UNL     1       1.378   3.526  17.940  0.00  0.00    +0.000 NA
BRANCH  10  13
ATOM     13  C   UNL     1       4.582   4.021  16.524  0.00  0.00    +0.000 C 
BRANCH  13  14
ATOM     14  C   UNL     1       5.690   4.945  16.993  0.00  0.00    +0.000 A 
ATOM     15  C   UNL     1       5.619   6.324  16.736  0.00  0.00    +0.000 A 
ATOM     16  C   UNL     1       6.591   7.197  17.235  0.00  0.00    +0.000 A 
ATOM     17  C   UNL     1       7.642   6.704  18.003  0.00  0.00    +0.000 A 
ATOM     18  C   UNL     1       7.727   5.340  18.269  0.00  0.00    +0.000 A 
ATOM     19  C   UNL     1       6.748   4.465  17.779  0.00  0.00    +0.000 A 
ENDBRANCH  13  14
ENDBRANCH  10  13
ENDBRANCH   7   8
ENDBRANCH   5   7
ENDBRANCH   4   5
ENDBRANCH   3   4
ENDBRANCH   2   3
BRANCH   2  20
ATOM     20  C   UNL     1       0.971  10.187  20.913  0.00  0.00    +0.000 C 
BRANCH  20  21
ATOM     21  C   UNL     1       0.681  10.205  19.296  0.00  0.00    +0.000 C 
BRANCH  21  22
ATOM     22  N   UNL     1      -0.783  10.306  19.020  0.00  0.00    +0.000 N 
ATOM     23  H   UNL     1      -1.039   9.480  18.465  0.00  0.00    +0.000 HD
BRANCH  22  24
ATOM     24  C   UNL     1      -1.530  11.400  18.370  0.00  0.00    +0.000 A 
ATOM     25  C   UNL     1      -1.042  12.612  18.865  0.00  0.00    +0.000 A 
ATOM     26  C   UNL     1      -1.711  13.157  19.951  0.00  0.00    +0.000 A 
ATOM     27  N   UNL     1      -2.952  12.766  20.309  0.00  0.00    +0.000 NA
ATOM     28  C   UNL     1      -3.626  12.099  19.370  0.00  0.00    +0.000 A 
ATOM     29  C   UNL     1      -4.999  12.285  19.339  0.00  0.00    +0.000 A 
ATOM     30  C   UNL     1      -5.701  12.121  18.153  0.00  0.00    +0.000 A 
ATOM     31 CL   UNL     1      -7.379  12.504  18.092  0.00  0.00    +0.000 Cl
ATOM     32  C   UNL     1      -5.023  11.757  16.996  0.00  0.00    +0.000 A 
ATOM     33  C   UNL     1      -3.661  11.409  17.071  0.00  0.00    +0.000 A 
ATOM     34  C   UNL     1      -2.943  11.471  18.294  0.00  0.00    +0.000 A 
ENDBRANCH  22  24
ENDBRANCH  21  22
ENDBRANCH  20  21
ENDBRANCH   2  20
TORSDOF 11
ENDMDL
MODEL 2
REMARK VINA RESULT:      -7.0      5.572      9.758
REMARK  Name = 
REMARK  12 active torsions:
REMARK  status: ('A' for Active; 'I' for Inactive)
REMARK    1  A    between atoms: C_1  and  N_2
REMARK    2  A    between atoms: N_2  and  C_3
REMARK    3  A    between atoms: N_2  and  C_19
REMARK    4  A    between atoms: C_3  and  C_4
REMARK    5  A    between atoms: C_4  and  N_5
REMARK    6  A    between atoms: N_5  and  C_6
REMARK    7  A    between atoms: C_6  and  C_7
REMARK    8  A    between atoms: N_9  and  C_10
REMARK    9  A    between atoms: C_10  and  C_11
REMARK   10  A    between atoms: C_19  and  C_20
REMARK   11  A    between atoms: C_20  and  N_21
REMARK   12  A    between atoms: N_21  and  C_22
REMARK                            x       y       z     vdW  Elec       q    Type
REMARK                         _______ _______ _______ _____ _____    ______ ____
ROOT
ATOM      1  C   UNL     1       5.858   8.146  17.332  0.00  0.00    +0.000 C 
ATOM      2  N   UNL     1       6.851   7.103  17.646  0.00  0.00    +0.000 NA
ENDROOT
BRANCH   2   3
ATOM      3  C   UNL     1       6.831   6.161  16.462  0.00  0.00    +0.000 C 
BRANCH   3   4
ATOM      4  C   UNL     1       7.153   4.642  16.601  0.00  0.00    +0.000 C 
BRANCH   4   5
ATOM      5  N   UNL     1       6.213   3.834  17.444  0.00  0.00    +0.000 NA
ATOM      6  H   UNL     1       6.125   4.268  18.362  0.00  0.00    +0.000 HD
BRANCH   5   7
ATOM      7  C   UNL     1       4.867   3.658  16.871  0.00  0.00    +0.000 C 
BRANCH   7   8
ATOM      8  C   UNL     1       3.807   4.353  17.683  0.00  0.00    +0.000 A 
ATOM      9  C   UNL     1       3.882   5.119  18.813  0.00  0.00    +0.000 A 
ATOM     10  N   UNL     1       2.586   5.402  19.153  0.00  0.00    +0.000 N 
ATOM     11  N   UNL     1       1.744   4.855  18.260  0.00  0.00    +0.000 NA
ATOM     12  N   UNL     1       2.479   4.201  17.360  0.00  0.00    +0.000 NA
BRANCH  10  13
ATOM     13  C   UNL     1       2.096   6.308  20.176  0.00  0.00    +0.000 C 
BRANCH  13  14
ATOM     14  C   UNL     1       1.857   7.725  19.691  0.00  0.00    +0.000 A 
ATOM     15  C   UNL     1       2.159   8.082  18.367  0.00  0.00    +0.000 A 
ATOM     16  C   UNL     1       1.866   9.361  17.884  0.00  0.00    +0.000 A 
ATOM     17  C   UNL     1       1.259  10.298  18.717  0.00  0.00    +0.000 A 
ATOM     18  C   UNL     1       0.951   9.960  20.032  0.00  0.00    +0.000 A 
ATOM     19  C   UNL     1       1.234   8.676  20.515  0.00  0.00    +0.000 A 
ENDBRANCH  13  14
ENDBRANCH  10  13
ENDBRANCH   7   8
ENDBRANCH   5   7
ENDBRANCH   4   5
ENDBRANCH   3   4
ENDBRANCH   2   3
BRANCH   2  20
ATOM     20  C   UNL     1       8.179   7.725  17.994  0.00  0.00    +0.000 C 
BRANCH  20  21
ATOM     21  C   UNL     1       8.301   9.358  18.119  0.00  0.00    +0.000 C 
BRANCH  21  22
ATOM     22  N   UNL     1       9.010   9.744  19.375  0.00  0.00    +0.000 N 
ATOM     23  H   UNL     1       8.286   9.951  20.074  0.00  0.00    +0.000 HD
BRANCH  22  24
ATOM     24  C   UNL     1      10.006  10.811  19.588  0.00  0.00    +0.000 A 
ATOM     25  C   UNL     1       9.792  11.356  20.857  0.00  0.00    +0.000 A 
ATOM     26  C   UNL     1       8.972  12.473  20.927  0.00  0.00    +0.000 A 
ATOM     27  N   UNL     1       8.671  13.219  19.844  0.00  0.00    +0.000 NA
ATOM     28  C   UNL     1       9.474  13.040  18.794  0.00  0.00    +0.000 A 
ATOM     29  C   UNL     1       9.712  14.148  17.996  0.00  0.00    +0.000 A 
ATOM     30  C   UNL     1      10.887  14.243  17.263  0.00  0.00    +0.000 A 
ATOM     31 CL   UNL     1      11.240  15.690  16.398  0.00  0.00    +0.000 Cl
ATOM     32  C   UNL     1      11.821  13.216  17.323  0.00  0.00    +0.000 A 
ATOM     33  C   UNL     1      11.500  12.026  18.001  0.00  0.00    +0.000 A 
ATOM     34  C   UNL     1      10.261  11.863  18.675  0.00  0.00    +0.000 A 
ENDBRANCH  22  24
ENDBRANCH  21  22
ENDBRANCH  20  21
ENDBRANCH   2  20
TORSDOF 11
ENDMDL
MODEL 3
REMARK VINA RESULT:      -7.0      2.799      4.636
REMARK  Name = 
REMARK  12 active torsions:
REMARK  status: ('A' for Active; 'I' for Inactive)
REMARK    1  A    between atoms: C_1  and  N_2
REMARK    2  A    between atoms: N_2  and  C_3
REMARK    3  A    between atoms: N_2  and  C_19
REMARK    4  A    between atoms: C_3  and  C_4
REMARK    5  A    between atoms: C_4  and  N_5
REMARK    6  A    between atoms: N_5  and  C_6
REMARK    7  A    between atoms: C_6  and  C_7
REMARK    8  A    between atoms: N_9  and  C_10
REMARK    9  A    between atoms: C_10  and  C_11
REMARK   10  A    between atoms: C_19  and  C_20
REMARK   11  A    between atoms: C_20  and  N_21
REMARK   12  A    between atoms: N_21  and  C_22
REMARK                            x       y       z     vdW  Elec       q    Type
REMARK                         _______ _______ _______ _____ _____    ______ ____
ROOT
ATOM      1  C   UNL     1       0.110  10.023  22.776  0.00  0.00    +0.000 C 
ATOM      2  N   UNL     1      -0.541  11.344  22.823  0.00  0.00    +0.000 NA
ENDROOT
BRANCH   2   3
ATOM      3  C   UNL     1      -0.213  11.999  21.498  0.00  0.00    +0.000 C 
BRANCH   3   4
ATOM      4  C   UNL     1       1.201  11.902  20.848  0.00  0.00    +0.000 C 
BRANCH   4   5
ATOM      5  N   UNL     1       1.243  11.799  19.353  0.00  0.00    +0.000 NA
ATOM      6  H   UNL     1       2.212  11.709  19.049  0.00  0.00    +0.000 HD
BRANCH   5   7
ATOM      7  C   UNL     1       0.463  10.683  18.789  0.00  0.00    +0.000 C 
BRANCH   7   8
ATOM      8  C   UNL     1       1.271   9.418  18.687  0.00  0.00    +0.000 A 
ATOM      9  C   UNL     1       1.778   8.581  19.642  0.00  0.00    +0.000 A 
ATOM     10  N   UNL     1       2.509   7.644  18.961  0.00  0.00    +0.000 N 
ATOM     11  N   UNL     1       2.439   7.875  17.639  0.00  0.00    +0.000 NA
ATOM     12  N   UNL     1       1.692   8.964  17.459  0.00  0.00    +0.000 NA
BRANCH  10  13
ATOM     13  C   UNL     1       3.129   6.434  19.472  0.00  0.00    +0.000 C 
BRANCH  13  14
ATOM     14  C   UNL     1       2.259   5.196  19.371  0.00  0.00    +0.000 A 
ATOM     15  C   UNL     1       2.205   4.464  18.173  0.00  0.00    +0.000 A 
ATOM     16  C   UNL     1       1.472   3.275  18.093  0.00  0.00    +0.000 A 
ATOM     17  C   UNL     1       0.791   2.799  19.210  0.00  0.00    +0.000 A 
ATOM     18  C   UNL     1       0.836   3.512  20.405  0.00  0.00    +0.000 A 
ATOM     19  C   UNL     1       1.577   4.697  20.491  0.00  0.00    +0.000 A 
ENDBRANCH  13  14
ENDBRANCH  10  13
ENDBRANCH   7   8
ENDBRANCH   5   7
ENDBRANCH   4   5
ENDBRANCH   3   4
ENDBRANCH   2   3
BRANCH   2  20
ATOM     20  C   UNL     1      -2.001  11.204  23.165  0.00  0.00    +0.000 C 
BRANCH  20  21
ATOM     21  C   UNL     1      -2.916  12.551  23.381  0.00  0.00    +0.000 C 
BRANCH  21  22
ATOM     22  N   UNL     1      -3.905  12.705  22.272  0.00  0.00    +0.000 N 
ATOM     23  H   UNL     1      -4.331  11.782  22.123  0.00  0.00    +0.000 HD
BRANCH  22  24
ATOM     24  C   UNL     1      -3.691  13.208  20.902  0.00  0.00    +0.000 A 
ATOM     25  C   UNL     1      -4.531  14.308  20.708  0.00  0.00    +0.000 A 
ATOM     26  C   UNL     1      -5.769  14.054  20.137  0.00  0.00    +0.000 A 
ATOM     27  N   UNL     1      -6.043  12.909  19.479  0.00  0.00    +0.000 NA
ATOM     28  C   UNL     1      -4.973  12.203  19.106  0.00  0.00    +0.000 A 
ATOM     29  C   UNL     1      -5.078  11.496  17.918  0.00  0.00    +0.000 A 
ATOM     30  C   UNL     1      -3.942  11.206  17.175  0.00  0.00    +0.000 A 
ATOM     31 CL   UNL     1      -4.098  10.464  15.628  0.00  0.00    +0.000 Cl
ATOM     32  C   UNL     1      -2.696  11.618  17.632  0.00  0.00    +0.000 A 
ATOM     33  C   UNL     1      -2.581  12.186  18.915  0.00  0.00    +0.000 A 
ATOM     34  C   UNL     1      -3.717  12.401  19.739  0.00  0.00    +0.000 A 
ENDBRANCH  22  24
ENDBRANCH  21  22
ENDBRANCH  20  21
ENDBRANCH   2  20
TORSDOF 11
ENDMDL
MODEL 4
REMARK VINA RESULT:      -6.9      6.857      9.629
REMARK  Name = 
REMARK  12 active torsions:
REMARK  status: ('A' for Active; 'I' for Inactive)
REMARK    1  A    between atoms: C_1  and  N_2
REMARK    2  A    between atoms: N_2  and  C_3
REMARK    3  A    between atoms: N_2  and  C_19
REMARK    4  A    between atoms: C_3  and  C_4
REMARK    5  A    between atoms: C_4  and  N_5
REMARK    6  A    between atoms: N_5  and  C_6
REMARK    7  A    between atoms: C_6  and  C_7
REMARK    8  A    between atoms: N_9  and  C_10
REMARK    9  A    between atoms: C_10  and  C_11
REMARK   10  A    between atoms: C_19  and  C_20
REMARK   11  A    between atoms: C_20  and  N_21
REMARK   12  A    between atoms: N_21  and  C_22
REMARK                            x       y       z     vdW  Elec       q    Type
REMARK                         _______ _______ _______ _____ _____    ______ ____
ROOT
ATOM      1  C   UNL     1       9.122  11.164  20.672  0.00  0.00    +0.000 C 
ATOM      2  N   UNL     1      10.072  10.742  19.628  0.00  0.00    +0.000 NA
ENDROOT
BRANCH   2   3
ATOM      3  C   UNL     1       9.307  10.842  18.326  0.00  0.00    +0.000 C 
BRANCH   3   4
ATOM      4  C   UNL     1       8.027   9.997  18.045  0.00  0.00    +0.000 C 
BRANCH   4   5
ATOM      5  N   UNL     1       8.118   8.529  18.334  0.00  0.00    +0.000 NA
ATOM      6  H   UNL     1       7.407   8.276  19.019  0.00  0.00    +0.000 HD
BRANCH   5   7
ATOM      7  C   UNL     1       7.972   7.658  17.155  0.00  0.00    +0.000 C 
BRANCH   7   8
ATOM      8  C   UNL     1       7.111   6.457  17.437  0.00  0.00    +0.000 A 
ATOM      9  C   UNL     1       5.860   6.111  17.007  0.00  0.00    +0.000 A 
ATOM     10  N   UNL     1       5.549   4.953  17.669  0.00  0.00    +0.000 N 
ATOM     11  N   UNL     1       6.572   4.584  18.458  0.00  0.00    +0.000 NA
ATOM     12  N   UNL     1       7.530   5.501  18.333  0.00  0.00    +0.000 NA
BRANCH  10  13
ATOM     13  C   UNL     1       4.410   4.075  17.469  0.00  0.00    +0.000 C 
BRANCH  13  14
ATOM     14  C   UNL     1       3.282   4.280  18.462  0.00  0.00    +0.000 A 
ATOM     15  C   UNL     1       2.121   3.493  18.388  0.00  0.00    +0.000 A 
ATOM     16  C   UNL     1       1.110   3.614  19.347  0.00  0.00    +0.000 A 
ATOM     17  C   UNL     1       1.251   4.518  20.397  0.00  0.00    +0.000 A 
ATOM     18  C   UNL     1       2.396   5.305  20.486  0.00  0.00    +0.000 A 
ATOM     19  C   UNL     1       3.414   5.177  19.533  0.00  0.00    +0.000 A 
ENDBRANCH  13  14
ENDBRANCH  10  13
ENDBRANCH   7   8
ENDBRANCH   5   7
ENDBRANCH   4   5
ENDBRANCH   3   4
ENDBRANCH   2   3
BRANCH   2  20
ATOM     20  C   UNL     1      11.350  11.533  19.724  0.00  0.00    +0.000 C 
BRANCH  20  21
ATOM     21  C   UNL     1      11.283  13.164  19.910  0.00  0.00    +0.000 C 
BRANCH  21  22
ATOM     22  N   UNL     1      11.438  13.855  18.595  0.00  0.00    +0.000 N 
ATOM     23  H   UNL     1      12.021  14.685  18.762  0.00  0.00    +0.000 HD
BRANCH  22  24
ATOM     24  C   UNL     1      10.394  14.350  17.678  0.00  0.00    +0.000 A 
ATOM     25  C   UNL     1      10.966  15.322  16.853  0.00  0.00    +0.000 A 
ATOM     26  C   UNL     1      10.851  16.640  17.270  0.00  0.00    +0.000 A 
ATOM     27  N   UNL     1       9.960  17.030  18.204  0.00  0.00    +0.000 NA
ATOM     28  C   UNL     1       8.974  16.162  18.440  0.00  0.00    +0.000 A 
ATOM     29  C   UNL     1       7.739  16.699  18.773  0.00  0.00    +0.000 A 
ATOM     30  C   UNL     1       6.575  15.993  18.503  0.00  0.00    +0.000 A 
ATOM     31 CL   UNL     1       5.044  16.733  18.778  0.00  0.00    +0.000 Cl
ATOM     32  C   UNL     1       6.651  14.740  17.907  0.00  0.00    +0.000 A 
ATOM     33  C   UNL     1       7.908  14.134  17.725  0.00  0.00    +0.000 A 
ATOM     34  C   UNL     1       9.112  14.793  18.088  0.00  0.00    +0.000 A 
ENDBRANCH  22  24
ENDBRANCH  21  22
ENDBRANCH  20  21
ENDBRANCH   2  20
TORSDOF 11
ENDMDL
MODEL 5
REMARK VINA RESULT:      -6.7      3.134      5.324
REMARK  Name = 
REMARK  12 active torsions:
REMARK  status: ('A' for Active; 'I' for Inactive)
REMARK    1  A    between atoms: C_1  and  N_2
REMARK    2  A    between atoms: N_2  and  C_3
REMARK    3  A    between atoms: N_2  and  C_19
REMARK    4  A    between atoms: C_3  and  C_4
REMARK    5  A    between atoms: C_4  and  N_5
REMARK    6  A    between atoms: N_5  and  C_6
REMARK    7  A    between atoms: C_6  and  C_7
REMARK    8  A    between atoms: N_9  and  C_10
REMARK    9  A    between atoms: C_10  and  C_11
REMARK   10  A    between atoms: C_19  and  C_20
REMARK   11  A    between atoms: C_20  and  N_21
REMARK   12  A    between atoms: N_21  and  C_22
REMARK                            x       y       z     vdW  Elec       q    Type
REMARK                         _______ _______ _______ _____ _____    ______ ____
ROOT
ATOM      1  C   UNL     1       2.184   4.873  18.144  0.00  0.00    +0.000 C 
ATOM      2  N   UNL     1       1.894   4.282  19.463  0.00  0.00    +0.000 NA
ENDROOT
BRANCH   2   3
ATOM      3  C   UNL     1       3.130   3.489  19.827  0.00  0.00    +0.000 C 
BRANCH   3   4
ATOM      4  C   UNL     1       4.394   3.451  18.915  0.00  0.00    +0.000 C 
BRANCH   4   5
ATOM      5  N   UNL     1       5.479   4.435  19.234  0.00  0.00    +0.000 NA
ATOM      6  H   UNL     1       6.383   3.965  19.196  0.00  0.00    +0.000 HD
BRANCH   5   7
ATOM      7  C   UNL     1       5.521   5.615  18.352  0.00  0.00    +0.000 C 
BRANCH   7   8
ATOM      8  C   UNL     1       6.235   5.334  17.058  0.00  0.00    +0.000 A 
ATOM      9  C   UNL     1       5.877   5.543  15.755  0.00  0.00    +0.000 A 
ATOM     10  N   UNL     1       6.885   5.001  15.004  0.00  0.00    +0.000 N 
ATOM     11  N   UNL     1       7.840   4.500  15.805  0.00  0.00    +0.000 NA
ATOM     12  N   UNL     1       7.449   4.688  17.065  0.00  0.00    +0.000 NA
BRANCH  10  13
ATOM     13  C   UNL     1       7.089   5.084  13.568  0.00  0.00    +0.000 C 
BRANCH  13  14
ATOM     14  C   UNL     1       6.425   3.973  12.778  0.00  0.00    +0.000 A 
ATOM     15  C   UNL     1       5.040   4.002  12.542  0.00  0.00    +0.000 A 
ATOM     16  C   UNL     1       4.429   3.029  11.745  0.00  0.00    +0.000 A 
ATOM     17  C   UNL     1       5.195   2.019  11.166  0.00  0.00    +0.000 A 
ATOM     18  C   UNL     1       6.569   1.978  11.389  0.00  0.00    +0.000 A 
ATOM     19  C   UNL     1       7.185   2.958  12.178  0.00  0.00    +0.000 A 
ENDBRANCH  13  14
ENDBRANCH  10  13
ENDBRANCH   7   8
ENDBRANCH   5   7
ENDBRANCH   4   5
ENDBRANCH   3   4
ENDBRANCH   2   3
BRANCH   2  20
ATOM     20  C   UNL     1       1.461   5.346  20.437  0.00  0.00    +0.000 C 
BRANCH  20  21
ATOM     21  C   UNL     1       1.942   6.900  20.207  0.00  0.00    +0.000 C 
BRANCH  21  22
ATOM     22  N   UNL     1       1.018   7.850  20.894  0.00  0.00    +0.000 N 
ATOM     23  H   UNL     1       0.180   7.930  20.305  0.00  0.00    +0.000 HD
BRANCH  22  24
ATOM     24  C   UNL     1       1.267   9.240  21.323  0.00  0.00    +0.000 A 
ATOM     25  C   UNL     1       1.420   9.244  22.712  0.00  0.00    +0.000 A 
ATOM     26  C   UNL     1       0.282   9.497  23.464  0.00  0.00    +0.000 A 
ATOM     27  N   UNL     1      -0.828  10.052  22.934  0.00  0.00    +0.000 NA
ATOM     28  C   UNL     1      -0.650  10.659  21.759  0.00  0.00    +0.000 A 
ATOM     29  C   UNL     1      -1.434  11.775  21.511  0.00  0.00    +0.000 A 
ATOM     30  C   UNL     1      -0.987  12.764  20.645  0.00  0.00    +0.000 A 
ATOM     31 CL   UNL     1      -1.897  14.216  20.464  0.00  0.00    +0.000 Cl
ATOM     32  C   UNL     1       0.246  12.626  20.019  0.00  0.00    +0.000 A 
ATOM     33  C   UNL     1       0.957  11.419  20.146  0.00  0.00    +0.000 A 
ATOM     34  C   UNL     1       0.472  10.350  20.945  0.00  0.00    +0.000 A 
ENDBRANCH  22  24
ENDBRANCH  21  22
ENDBRANCH  20  21
ENDBRANCH   2  20
TORSDOF 11
ENDMDL
MODEL 6
REMARK VINA RESULT:      -6.7      3.947      9.485
REMARK  Name = 
REMARK  12 active torsions:
REMARK  status: ('A' for Active; 'I' for Inactive)
REMARK    1  A    between atoms: C_1  and  N_2
REMARK    2  A    between atoms: N_2  and  C_3
REMARK    3  A    between atoms: N_2  and  C_19
REMARK    4  A    between atoms: C_3  and  C_4
REMARK    5  A    between atoms: C_4  and  N_5
REMARK    6  A    between atoms: N_5  and  C_6
REMARK    7  A    between atoms: C_6  and  C_7
REMARK    8  A    between atoms: N_9  and  C_10
REMARK    9  A    between atoms: C_10  and  C_11
REMARK   10  A    between atoms: C_19  and  C_20
REMARK   11  A    between atoms: C_20  and  N_21
REMARK   12  A    between atoms: N_21  and  C_22
REMARK                            x       y       z     vdW  Elec       q    Type
REMARK                         _______ _______ _______ _____ _____    ______ ____
ROOT
ATOM      1  C   UNL     1       1.466   1.458  19.283  0.00  0.00    +0.000 C 
ATOM      2  N   UNL     1       1.682   2.867  18.909  0.00  0.00    +0.000 NA
ENDROOT
BRANCH   2   3
ATOM      3  C   UNL     1       2.240   3.530  20.150  0.00  0.00    +0.000 C 
BRANCH   3   4
ATOM      4  C   UNL     1       1.523   4.724  20.851  0.00  0.00    +0.000 C 
BRANCH   4   5
ATOM      5  N   UNL     1       2.287   6.011  20.927  0.00  0.00    +0.000 NA
ATOM      6  H   UNL     1       3.244   5.819  21.221  0.00  0.00    +0.000 HD
BRANCH   5   7
ATOM      7  C   UNL     1       2.323   6.782  19.671  0.00  0.00    +0.000 C 
BRANCH   7   8
ATOM      8  C   UNL     1       1.721   8.152  19.827  0.00  0.00    +0.000 A 
ATOM      9  C   UNL     1       1.546   9.177  18.938  0.00  0.00    +0.000 A 
ATOM     10  N   UNL     1       1.032  10.215  19.669  0.00  0.00    +0.000 N 
ATOM     11  N   UNL     1       0.872   9.843  20.950  0.00  0.00    +0.000 NA
ATOM     12  N   UNL     1       1.300   8.586  21.062  0.00  0.00    +0.000 NA
BRANCH  10  13
ATOM     13  C   UNL     1       0.514  11.486  19.195  0.00  0.00    +0.000 C 
BRANCH  13  14
ATOM     14  C   UNL     1       1.515  12.624  19.242  0.00  0.00    +0.000 A 
ATOM     15  C   UNL     1       1.774  13.290  20.452  0.00  0.00    +0.000 A 
ATOM     16  C   UNL     1       2.754  14.285  20.527  0.00  0.00    +0.000 A 
ATOM     17  C   UNL     1       3.495  14.621  19.396  0.00  0.00    +0.000 A 
ATOM     18  C   UNL     1       3.252  13.969  18.190  0.00  0.00    +0.000 A 
ATOM     19  C   UNL     1       2.278  12.965  18.115  0.00  0.00    +0.000 A 
ENDBRANCH  13  14
ENDBRANCH  10  13
ENDBRANCH   7   8
ENDBRANCH   5   7
ENDBRANCH   4   5
ENDBRANCH   3   4
ENDBRANCH   2   3
BRANCH   2  20
ATOM     20  C   UNL     1       2.515   2.962  17.658  0.00  0.00    +0.000 C 
BRANCH  20  21
ATOM     21  C   UNL     1       4.094   2.511  17.699  0.00  0.00    +0.000 C 
BRANCH  21  22
ATOM     22  N   UNL     1       4.814   2.984  16.480  0.00  0.00    +0.000 N 
ATOM     23  H   UNL     1       5.790   2.675  16.572  0.00  0.00    +0.000 HD
BRANCH  22  24
ATOM     24  C   UNL     1       4.938   4.354  15.949  0.00  0.00    +0.000 A 
ATOM     25  C   UNL     1       5.421   4.271  14.641  0.00  0.00    +0.000 A 
ATOM     26  C   UNL     1       6.795   4.367  14.476  0.00  0.00    +0.000 A 
ATOM     27  N   UNL     1       7.607   4.859  15.434  0.00  0.00    +0.000 NA
ATOM     28  C   UNL     1       6.994   5.564  16.387  0.00  0.00    +0.000 A 
ATOM     29  C   UNL     1       7.704   6.622  16.932  0.00  0.00    +0.000 A 
ATOM     30  C   UNL     1       7.032   7.707  17.477  0.00  0.00    +0.000 A 
ATOM     31 CL   UNL     1       7.921   9.083  18.011  0.00  0.00    +0.000 Cl
ATOM     32  C   UNL     1       5.643   7.725  17.485  0.00  0.00    +0.000 A 
ATOM     33  C   UNL     1       4.933   6.578  17.082  0.00  0.00    +0.000 A 
ATOM     34  C   UNL     1       5.600   5.415  16.616  0.00  0.00    +0.000 A 
ENDBRANCH  22  24
ENDBRANCH  21  22
ENDBRANCH  20  21
ENDBRANCH   2  20
TORSDOF 11
ENDMDL
MODEL 7
REMARK VINA RESULT:      -6.7      2.807      3.730
REMARK  Name = 
REMARK  12 active torsions:
REMARK  status: ('A' for Active; 'I' for Inactive)
REMARK    1  A    between atoms: C_1  and  N_2
REMARK    2  A    between atoms: N_2  and  C_3
REMARK    3  A    between atoms: N_2  and  C_19
REMARK    4  A    between atoms: C_3  and  C_4
REMARK    5  A    between atoms: C_4  and  N_5
REMARK    6  A    between atoms: N_5  and  C_6
REMARK    7  A    between atoms: C_6  and  C_7
REMARK    8  A    between atoms: N_9  and  C_10
REMARK    9  A    between atoms: C_10  and  C_11
REMARK   10  A    between atoms: C_19  and  C_20
REMARK   11  A    between atoms: C_20  and  N_21
REMARK   12  A    between atoms: N_21  and  C_22
REMARK                            x       y       z     vdW  Elec       q    Type
REMARK                         _______ _______ _______ _____ _____    ______ ____
ROOT
ATOM      1  C   UNL     1       3.111   6.668  19.234  0.00  0.00    +0.000 C 
ATOM      2  N   UNL     1       1.801   6.743  19.905  0.00  0.00    +0.000 NA
ENDROOT
BRANCH   2   3
ATOM      3  C   UNL     1       1.693   5.472  20.718  0.00  0.00    +0.000 C 
BRANCH   3   4
ATOM      4  C   UNL     1       0.717   4.318  20.336  0.00  0.00    +0.000 C 
BRANCH   4   5
ATOM      5  N   UNL     1       1.104   2.940  20.781  0.00  0.00    +0.000 NA
ATOM      6  H   UNL     1       0.289   2.472  21.175  0.00  0.00    +0.000 HD
BRANCH   5   7
ATOM      7  C   UNL     1       1.676   2.088  19.724  0.00  0.00    +0.000 C 
BRANCH   7   8
ATOM      8  C   UNL     1       2.911   2.691  19.112  0.00  0.00    +0.000 A 
ATOM      9  C   UNL     1       3.203   3.066  17.830  0.00  0.00    +0.000 A 
ATOM     10  N   UNL     1       4.513   3.462  17.850  0.00  0.00    +0.000 N 
ATOM     11  N   UNL     1       5.007   3.362  19.096  0.00  0.00    +0.000 NA
ATOM     12  N   UNL     1       4.039   2.881  19.876  0.00  0.00    +0.000 NA
BRANCH  10  13
ATOM     13  C   UNL     1       5.282   4.101  16.796  0.00  0.00    +0.000 C 
BRANCH  13  14
ATOM     14  C   UNL     1       6.238   5.172  17.283  0.00  0.00    +0.000 A 
ATOM     15  C   UNL     1       6.104   6.497  16.837  0.00  0.00    +0.000 A 
ATOM     16  C   UNL     1       6.926   7.510  17.342  0.00  0.00    +0.000 A 
ATOM     17  C   UNL     1       7.887   7.213  18.305  0.00  0.00    +0.000 A 
ATOM     18  C   UNL     1       8.032   5.905  18.760  0.00  0.00    +0.000 A 
ATOM     19  C   UNL     1       7.202   4.891  18.263  0.00  0.00    +0.000 A 
ENDBRANCH  13  14
ENDBRANCH  10  13
ENDBRANCH   7   8
ENDBRANCH   5   7
ENDBRANCH   4   5
ENDBRANCH   3   4
ENDBRANCH   2   3
BRANCH   2  20
ATOM     20  C   UNL     1       1.665   8.042  20.656  0.00  0.00    +0.000 C 
BRANCH  20  21
ATOM     21  C   UNL     1       0.994   9.343  19.911  0.00  0.00    +0.000 C 
BRANCH  21  22
ATOM     22  N   UNL     1       0.092  10.083  20.843  0.00  0.00    +0.000 N 
ATOM     23  H   UNL     1      -0.854  10.034  20.444  0.00  0.00    +0.000 HD
BRANCH  22  24
ATOM     24  C   UNL     1       0.191  11.476  21.319  0.00  0.00    +0.000 A 
ATOM     25  C   UNL     1      -0.983  11.780  22.015  0.00  0.00    +0.000 A 
ATOM     26  C   UNL     1      -2.001  12.380  21.288  0.00  0.00    +0.000 A 
ATOM     27  N   UNL     1      -1.789  12.966  20.091  0.00  0.00    +0.000 NA
ATOM     28  C   UNL     1      -0.513  13.245  19.817  0.00  0.00    +0.000 A 
ATOM     29  C   UNL     1      -0.274  14.383  19.063  0.00  0.00    +0.000 A 
ATOM     30  C   UNL     1       0.934  15.058  19.180  0.00  0.00    +0.000 A 
ATOM     31 CL   UNL     1       1.160  16.554  18.355  0.00  0.00    +0.000 Cl
ATOM     32  C   UNL     1       1.908  14.583  20.049  0.00  0.00    +0.000 A 
ATOM     33  C   UNL     1       1.723  13.341  20.685  0.00  0.00    +0.000 A 
ATOM     34  C   UNL     1       0.539  12.579  20.502  0.00  0.00    +0.000 A 
ENDBRANCH  22  24
ENDBRANCH  21  22
ENDBRANCH  20  21
ENDBRANCH   2  20
TORSDOF 11
ENDMDL
MODEL 8
REMARK VINA RESULT:      -6.6      5.993     10.587
REMARK  Name = 
REMARK  12 active torsions:
REMARK  status: ('A' for Active; 'I' for Inactive)
REMARK    1  A    between atoms: C_1  and  N_2
REMARK    2  A    between atoms: N_2  and  C_3
REMARK    3  A    between atoms: N_2  and  C_19
REMARK    4  A    between atoms: C_3  and  C_4
REMARK    5  A    between atoms: C_4  and  N_5
REMARK    6  A    between atoms: N_5  and  C_6
REMARK    7  A    between atoms: C_6  and  C_7
REMARK    8  A    between atoms: N_9  and  C_10
REMARK    9  A    between atoms: C_10  and  C_11
REMARK   10  A    between atoms: C_19  and  C_20
REMARK   11  A    between atoms: C_20  and  N_21
REMARK   12  A    between atoms: N_21  and  C_22
REMARK                            x       y       z     vdW  Elec       q    Type
REMARK                         _______ _______ _______ _____ _____    ______ ____
ROOT
ATOM      1  C   UNL     1       7.894   6.244  18.579  0.00  0.00    +0.000 C 
ATOM      2  N   UNL     1       7.532   6.930  17.325  0.00  0.00    +0.000 NA
ENDROOT
BRANCH   2   3
ATOM      3  C   UNL     1       6.255   6.267  16.859  0.00  0.00    +0.000 C 
BRANCH   3   4
ATOM      4  C   UNL     1       5.034   6.052  17.804  0.00  0.00    +0.000 C 
BRANCH   4   5
ATOM      5  N   UNL     1       3.792   6.823  17.477  0.00  0.00    +0.000 NA
ATOM      6  H   UNL     1       3.367   6.437  16.635  0.00  0.00    +0.000 HD
BRANCH   5   7
ATOM      7  C   UNL     1       2.781   6.850  18.549  0.00  0.00    +0.000 C 
BRANCH   7   8
ATOM      8  C   UNL     1       2.104   8.189  18.661  0.00  0.00    +0.000 A 
ATOM      9  C   UNL     1       1.460   8.800  19.701  0.00  0.00    +0.000 A 
ATOM     10  N   UNL     1       0.962   9.969  19.191  0.00  0.00    +0.000 N 
ATOM     11  N   UNL     1       1.303  10.090  17.897  0.00  0.00    +0.000 NA
ATOM     12  N   UNL     1       1.994   9.002  17.558  0.00  0.00    +0.000 NA
BRANCH  10  13
ATOM     13  C   UNL     1       0.331  11.069  19.898  0.00  0.00    +0.000 C 
BRANCH  13  14
ATOM     14  C   UNL     1       0.768  12.444  19.432  0.00  0.00    +0.000 A 
ATOM     15  C   UNL     1      -0.187  13.431  19.141  0.00  0.00    +0.000 A 
ATOM     16  C   UNL     1       0.204  14.727  18.791  0.00  0.00    +0.000 A 
ATOM     17  C   UNL     1       1.557  15.056  18.735  0.00  0.00    +0.000 A 
ATOM     18  C   UNL     1       2.517  14.089  19.023  0.00  0.00    +0.000 A 
ATOM     19  C   UNL     1       2.127  12.793  19.384  0.00  0.00    +0.000 A 
ENDBRANCH  13  14
ENDBRANCH  10  13
ENDBRANCH   7   8
ENDBRANCH   5   7
ENDBRANCH   4   5
ENDBRANCH   3   4
ENDBRANCH   2   3
BRANCH   2  20
ATOM     20  C   UNL     1       7.483   8.421  17.534  0.00  0.00    +0.000 C 
BRANCH  20  21
ATOM     21  C   UNL     1       8.598   9.142  18.501  0.00  0.00    +0.000 C 
BRANCH  21  22
ATOM     22  N   UNL     1       9.039  10.447  17.925  0.00  0.00    +0.000 N 
ATOM     23  H   UNL     1       9.265  10.275  16.937  0.00  0.00    +0.000 HD
BRANCH  22  24
ATOM     24  C   UNL     1      10.124  11.340  18.374  0.00  0.00    +0.000 A 
ATOM     25  C   UNL     1      10.138  11.336  19.771  0.00  0.00    +0.000 A 
ATOM     26  C   UNL     1       9.414  12.335  20.405  0.00  0.00    +0.000 A 
ATOM     27  N   UNL     1       9.006  13.451  19.766  0.00  0.00    +0.000 NA
ATOM     28  C   UNL     1       9.631  13.702  18.614  0.00  0.00    +0.000 A 
ATOM     29  C   UNL     1       9.820  15.036  18.286  0.00  0.00    +0.000 A 
ATOM     30  C   UNL     1      10.877  15.411  17.468  0.00  0.00    +0.000 A 
ATOM     31 CL   UNL     1      11.194  17.082  17.194  0.00  0.00    +0.000 Cl
ATOM     32  C   UNL     1      11.739  14.443  16.968  0.00  0.00    +0.000 A 
ATOM     33  C   UNL     1      11.444  13.082  17.169  0.00  0.00    +0.000 A 
ATOM     34  C   UNL     1      10.311  12.668  17.916  0.00  0.00    +0.000 A 
ENDBRANCH  22  24
ENDBRANCH  21  22
ENDBRANCH  20  21
ENDBRANCH   2  20
TORSDOF 11
ENDMDL
MODEL 9
REMARK VINA RESULT:      -6.6      3.576     10.714
REMARK  Name = 
REMARK  12 active torsions:
REMARK  status: ('A' for Active; 'I' for Inactive)
REMARK    1  A    between atoms: C_1  and  N_2
REMARK    2  A    between atoms: N_2  and  C_3
REMARK    3  A    between atoms: N_2  and  C_19
REMARK    4  A    between atoms: C_3  and  C_4
REMARK    5  A    between atoms: C_4  and  N_5
REMARK    6  A    between atoms: N_5  and  C_6
REMARK    7  A    between atoms: C_6  and  C_7
REMARK    8  A    between atoms: N_9  and  C_10
REMARK    9  A    between atoms: C_10  and  C_11
REMARK   10  A    between atoms: C_19  and  C_20
REMARK   11  A    between atoms: C_20  and  N_21
REMARK   12  A    between atoms: N_21  and  C_22
REMARK                            x       y       z     vdW  Elec       q    Type
REMARK                         _______ _______ _______ _____ _____    ______ ____
ROOT
ATOM      1  C   UNL     1       1.460   4.686  17.647  0.00  0.00    +0.000 C 
ATOM      2  N   UNL     1       2.322   4.495  18.828  0.00  0.00    +0.000 NA
ENDROOT
BRANCH   2   3
ATOM      3  C   UNL     1       1.614   5.208  19.959  0.00  0.00    +0.000 C 
BRANCH   3   4
ATOM      4  C   UNL     1       2.338   6.242  20.874  0.00  0.00    +0.000 C 
BRANCH   4   5
ATOM      5  N   UNL     1       1.846   7.657  20.804  0.00  0.00    +0.000 NA
ATOM      6  H   UNL     1       1.719   7.921  19.827  0.00  0.00    +0.000 HD
BRANCH   5   7
ATOM      7  C   UNL     1       0.589   7.910  21.531  0.00  0.00    +0.000 C 
BRANCH   7   8
ATOM      8  C   UNL     1       0.348   9.378  21.756  0.00  0.00    +0.000 A 
ATOM      9  C   UNL     1      -0.598  10.044  22.485  0.00  0.00    +0.000 A 
ATOM     10  N   UNL     1      -0.381  11.374  22.241  0.00  0.00    +0.000 N 
ATOM     11  N   UNL     1       0.668  11.528  21.417  0.00  0.00    +0.000 NA
ATOM     12  N   UNL     1       1.117  10.313  21.104  0.00  0.00    +0.000 NA
BRANCH  10  13
ATOM     13  C   UNL     1      -0.997  12.523  22.881  0.00  0.00    +0.000 C 
BRANCH  13  14
ATOM     14  C   UNL     1      -2.501  12.606  22.702  0.00  0.00    +0.000 A 
ATOM     15  C   UNL     1      -3.350  12.593  23.821  0.00  0.00    +0.000 A 
ATOM     16  C   UNL     1      -4.732  12.753  23.674  0.00  0.00    +0.000 A 
ATOM     17  C   UNL     1      -5.282  12.937  22.408  0.00  0.00    +0.000 A 
ATOM     18  C   UNL     1      -4.454  12.954  21.288  0.00  0.00    +0.000 A 
ATOM     19  C   UNL     1      -3.068  12.805  21.434  0.00  0.00    +0.000 A 
ENDBRANCH  13  14
ENDBRANCH  10  13
ENDBRANCH   7   8
ENDBRANCH   5   7
ENDBRANCH   4   5
ENDBRANCH   3   4
ENDBRANCH   2   3
BRANCH   2  20
ATOM     20  C   UNL     1       2.624   3.034  19.032  0.00  0.00    +0.000 C 
BRANCH  20  21
ATOM     21  C   UNL     1       3.433   2.203  17.869  0.00  0.00    +0.000 C 
BRANCH  21  22
ATOM     22  N   UNL     1       4.689   2.913  17.484  0.00  0.00    +0.000 N 
ATOM     23  H   UNL     1       5.192   3.123  18.355  0.00  0.00    +0.000 HD
BRANCH  22  24
ATOM     24  C   UNL     1       4.851   4.146  16.690  0.00  0.00    +0.000 A 
ATOM     25  C   UNL     1       5.350   3.790  15.434  0.00  0.00    +0.000 A 
ATOM     26  C   UNL     1       6.727   3.824  15.277  0.00  0.00    +0.000 A 
ATOM     27  N   UNL     1       7.538   4.483  16.130  0.00  0.00    +0.000 NA
ATOM     28  C   UNL     1       6.928   5.378  16.911  0.00  0.00    +0.000 A 
ATOM     29  C   UNL     1       7.655   6.510  17.244  0.00  0.00    +0.000 A 
ATOM     30  C   UNL     1       7.001   7.696  17.548  0.00  0.00    +0.000 A 
ATOM     31 CL   UNL     1       7.914   9.133  17.809  0.00  0.00    +0.000 Cl
ATOM     32  C   UNL     1       5.612   7.742  17.528  0.00  0.00    +0.000 A 
ATOM     33  C   UNL     1       4.882   6.552  17.352  0.00  0.00    +0.000 A 
ATOM     34  C   UNL     1       5.528   5.306  17.141  0.00  0.00    +0.000 A 
ENDBRANCH  22  24
ENDBRANCH  21  22
ENDBRANCH  20  21
ENDBRANCH   2  20
TORSDOF 11
ENDMDL
