MODEL 1
REMARK VINA RESULT:      -8.8      0.000      0.000
REMARK  Name = 
REMARK  6 active torsions:
REMARK  status: ('A' for Active; 'I' for Inactive)
REMARK    1  A    between atoms: C_1  and  N_2
REMARK    2  A    between atoms: N_2  and  C_3
REMARK    3  A    between atoms: C_4  and  C_6
REMARK    4  A    between atoms: C_9  and  N_10
REMARK    5  A    between atoms: C_11  and  C_13
REMARK    6  A    between atoms: C_13  and  N_14
REMARK                            x       y       z     vdW  Elec       q    Type
REMARK                         _______ _______ _______ _____ _____    ______ ____
ROOT
ATOM      1  C   UNL     1       8.120   6.942  18.213  0.00  0.00    +0.000 C 
ENDROOT
BRANCH   1   2
ATOM      2  N   UNL     1       6.989   6.396  17.426  0.00  0.00    +0.000 NA
ATOM      3  C   UNL     1       7.074   4.927  17.321  0.00  0.00    +0.000 C 
ATOM      4  C   UNL     1       5.962   4.475  16.364  0.00  0.00    +0.000 C 
ATOM      5  C   UNL     1       4.675   4.633  17.125  0.00  0.00    +0.000 A 
ATOM      6  C   UNL     1       3.684   3.654  17.068  0.00  0.00    +0.000 A 
ATOM      7  C   UNL     1       2.681   3.572  18.040  0.00  0.00    +0.000 A 
ATOM      8  C   UNL     1       2.691   4.495  19.086  0.00  0.00    +0.000 A 
ATOM      9  C   UNL     1       3.596   5.598  19.024  0.00  0.00    +0.000 A 
ATOM     10  C   UNL     1       4.597   5.686  18.042  0.00  0.00    +0.000 A 
ATOM     11  C   UNL     1       5.639   6.808  17.942  0.00  0.00    +0.000 C 
ATOM     12  O   UNL     1       2.039   4.445  20.280  0.00  0.00    +0.000 OA
ATOM     13  C   UNL     1       0.983   3.564  20.632  0.00  0.00    +0.000 C 
ATOM     14  C   UNL     1       0.876   2.204  19.975  0.00  0.00    +0.000 C 
ATOM     15  C   UNL     1       0.659   2.391  18.496  0.00  0.00    +0.000 C 
ATOM     16  O   UNL     1       1.903   2.474  17.834  0.00  0.00    +0.000 OA
ENDBRANCH   1   2
BRANCH   1  18
ATOM     17  N   UNL     1       9.055   9.074  19.091  0.00  0.00    +0.000 N 
ATOM     18  C   UNL     1       8.224   8.502  18.140  0.00  0.00    +0.000 C 
ATOM     19  O   UNL     1       7.635   9.104  17.236  0.00  0.00    +0.000 OA
ATOM     20  H   UNL     1       9.424   8.409  19.764  0.00  0.00    +0.000 HD
BRANCH  17  24
ATOM     21  C   UNL     1      10.150  13.207  19.451  0.00  0.00    +0.000 A 
ATOM     22  C   UNL     1       9.660  12.505  20.558  0.00  0.00    +0.000 A 
ATOM     23  C   UNL     1       9.321  11.134  20.464  0.00  0.00    +0.000 A 
ATOM     24  C   UNL     1       9.410  10.442  19.256  0.00  0.00    +0.000 A 
ATOM     25  C   UNL     1       9.850  11.161  18.135  0.00  0.00    +0.000 A 
ATOM     26  C   UNL     1      10.217  12.523  18.231  0.00  0.00    +0.000 A 
BRANCH  21  30
ATOM     27  C   UNL     1       9.946  17.056  19.389  0.00  0.00    +0.000 C 
ATOM     28  N   UNL     1       9.502  15.666  19.399  0.00  0.00    +0.000 N 
ATOM     29  C   UNL     1       8.070  15.443  19.504  0.00  0.00    +0.000 C 
ATOM     30  C   UNL     1      10.489  14.673  19.479  0.00  0.00    +0.000 C 
ATOM     31  O   UNL     1      11.682  14.968  19.591  0.00  0.00    +0.000 OA
ENDBRANCH  21  30
ENDBRANCH  17  24
ENDBRANCH   1  18
TORSDOF 4
ENDMDL
MODEL 2
REMARK VINA RESULT:      -8.7      0.770      1.012
REMARK  Name = 
REMARK  6 active torsions:
REMARK  status: ('A' for Active; 'I' for Inactive)
REMARK    1  A    between atoms: C_1  and  N_2
REMARK    2  A    between atoms: N_2  and  C_3
REMARK    3  A    between atoms: C_4  and  C_6
REMARK    4  A    between atoms: C_9  and  N_10
REMARK    5  A    between atoms: C_11  and  C_13
REMARK    6  A    between atoms: C_13  and  N_14
REMARK                            x       y       z     vdW  Elec       q    Type
REMARK                         _______ _______ _______ _____ _____    ______ ____
ROOT
ATOM      1  C   UNL     1       8.228   7.260  18.592  0.00  0.00    +0.000 C 
ENDROOT
BRANCH   1   2
ATOM      2  N   UNL     1       7.264   6.522  17.740  0.00  0.00    +0.000 NA
ATOM      3  C   UNL     1       7.408   5.065  17.916  0.00  0.00    +0.000 C 
ATOM      4  C   UNL     1       6.489   4.391  16.887  0.00  0.00    +0.000 C 
ATOM      5  C   UNL     1       5.087   4.603  17.386  0.00  0.00    +0.000 A 
ATOM      6  C   UNL     1       4.148   3.572  17.343  0.00  0.00    +0.000 A 
ATOM      7  C   UNL     1       2.996   3.601  18.137  0.00  0.00    +0.000 A 
ATOM      8  C   UNL     1       2.801   4.689  18.987  0.00  0.00    +0.000 A 
ATOM      9  C   UNL     1       3.672   5.815  18.878  0.00  0.00    +0.000 A 
ATOM     10  C   UNL     1       4.823   5.791  18.073  0.00  0.00    +0.000 A 
ATOM     11  C   UNL     1       5.835   6.938  17.946  0.00  0.00    +0.000 C 
ATOM     12  O   UNL     1       1.955   4.808  20.047  0.00  0.00    +0.000 OA
ATOM     13  C   UNL     1       0.879   3.940  20.374  0.00  0.00    +0.000 C 
ATOM     14  C   UNL     1       0.925   2.483  19.962  0.00  0.00    +0.000 C 
ATOM     15  C   UNL     1       0.960   2.401  18.459  0.00  0.00    +0.000 C 
ATOM     16  O   UNL     1       2.296   2.440  18.006  0.00  0.00    +0.000 OA
ENDBRANCH   1   2
BRANCH   1  18
ATOM     17  N   UNL     1       9.156   9.523  19.050  0.00  0.00    +0.000 N 
ATOM     18  C   UNL     1       8.380   8.764  18.186  0.00  0.00    +0.000 C 
ATOM     19  O   UNL     1       7.874   9.159  17.131  0.00  0.00    +0.000 OA
ATOM     20  H   UNL     1       9.458   9.018  19.878  0.00  0.00    +0.000 HD
BRANCH  17  24
ATOM     21  C   UNL     1      10.403  13.621  18.801  0.00  0.00    +0.000 A 
ATOM     22  C   UNL     1       9.405  13.131  17.952  0.00  0.00    +0.000 A 
ATOM     23  C   UNL     1       8.962  11.789  18.039  0.00  0.00    +0.000 A 
ATOM     24  C   UNL     1       9.537  10.889  18.937  0.00  0.00    +0.000 A 
ATOM     25  C   UNL     1      10.573  11.367  19.751  0.00  0.00    +0.000 A 
ATOM     26  C   UNL     1      10.999  12.713  19.686  0.00  0.00    +0.000 A 
BRANCH  21  30
ATOM     27  C   UNL     1      10.842  17.438  19.105  0.00  0.00    +0.000 C 
ATOM     28  N   UNL     1      10.248  16.116  19.271  0.00  0.00    +0.000 N 
ATOM     29  C   UNL     1       9.082  16.030  20.133  0.00  0.00    +0.000 C 
ATOM     30  C   UNL     1      10.943  15.023  18.730  0.00  0.00    +0.000 C 
ATOM     31  O   UNL     1      12.039  15.174  18.184  0.00  0.00    +0.000 OA
ENDBRANCH  21  30
ENDBRANCH  17  24
ENDBRANCH   1  18
TORSDOF 4
ENDMDL
MODEL 3
REMARK VINA RESULT:      -8.5      0.858      1.371
REMARK  Name = 
REMARK  6 active torsions:
REMARK  status: ('A' for Active; 'I' for Inactive)
REMARK    1  A    between atoms: C_1  and  N_2
REMARK    2  A    between atoms: N_2  and  C_3
REMARK    3  A    between atoms: C_4  and  C_6
REMARK    4  A    between atoms: C_9  and  N_10
REMARK    5  A    between atoms: C_11  and  C_13
REMARK    6  A    between atoms: C_13  and  N_14
REMARK                            x       y       z     vdW  Elec       q    Type
REMARK                         _______ _______ _______ _____ _____    ______ ____
ROOT
ATOM      1  C   UNL     1       8.195   7.131  18.134  0.00  0.00    +0.000 C 
ENDROOT
BRANCH   1   2
ATOM      2  N   UNL     1       7.098   6.485  17.374  0.00  0.00    +0.000 NA
ATOM      3  C   UNL     1       7.223   5.016  17.405  0.00  0.00    +0.000 C 
ATOM      4  C   UNL     1       6.146   4.449  16.468  0.00  0.00    +0.000 C 
ATOM      5  C   UNL     1       4.838   4.640  17.183  0.00  0.00    +0.000 A 
ATOM      6  C   UNL     1       3.873   3.633  17.192  0.00  0.00    +0.000 A 
ATOM      7  C   UNL     1       2.849   3.612  18.145  0.00  0.00    +0.000 A 
ATOM      8  C   UNL     1       2.810   4.625  19.103  0.00  0.00    +0.000 A 
ATOM      9  C   UNL     1       3.688   5.742  18.962  0.00  0.00    +0.000 A 
ATOM     10  C   UNL     1       4.710   5.768  17.998  0.00  0.00    +0.000 A 
ATOM     11  C   UNL     1       5.726   6.905  17.820  0.00  0.00    +0.000 C 
ATOM     12  O   UNL     1       2.130   4.665  20.281  0.00  0.00    +0.000 OA
ATOM     13  C   UNL     1       1.088   3.791  20.688  0.00  0.00    +0.000 C 
ATOM     14  C   UNL     1       1.031   2.374  20.155  0.00  0.00    +0.000 C 
ATOM     15  C   UNL     1       0.847   2.422  18.662  0.00  0.00    +0.000 C 
ATOM     16  O   UNL     1       2.104   2.478  18.023  0.00  0.00    +0.000 OA
ENDBRANCH   1   2
BRANCH   1  18
ATOM     17  N   UNL     1       8.988   9.332  18.980  0.00  0.00    +0.000 N 
ATOM     18  C   UNL     1       8.137   8.694  18.090  0.00  0.00    +0.000 C 
ATOM     19  O   UNL     1       7.412   9.248  17.257  0.00  0.00    +0.000 OA
ATOM     20  H   UNL     1       9.480   8.697  19.601  0.00  0.00    +0.000 HD
BRANCH  17  24
ATOM     21  C   UNL     1       9.730  13.511  19.609  0.00  0.00    +0.000 A 
ATOM     22  C   UNL     1       9.307  13.047  18.359  0.00  0.00    +0.000 A 
ATOM     23  C   UNL     1       9.031  11.676  18.142  0.00  0.00    +0.000 A 
ATOM     24  C   UNL     1       9.218  10.726  19.146  0.00  0.00    +0.000 A 
ATOM     25  C   UNL     1       9.693  11.185  20.383  0.00  0.00    +0.000 A 
ATOM     26  C   UNL     1       9.943  12.558  20.613  0.00  0.00    +0.000 A 
BRANCH  21  30
ATOM     27  C   UNL     1      11.573  16.883  19.913  0.00  0.00    +0.000 C 
ATOM     28  N   UNL     1      11.326  15.490  19.554  0.00  0.00    +0.000 N 
ATOM     29  C   UNL     1      12.330  14.846  18.724  0.00  0.00    +0.000 C 
ATOM     30  C   UNL     1      10.077  14.948  19.890  0.00  0.00    +0.000 C 
ATOM     31  O   UNL     1       9.204  15.641  20.420  0.00  0.00    +0.000 OA
ENDBRANCH  21  30
ENDBRANCH  17  24
ENDBRANCH   1  18
TORSDOF 4
ENDMDL
MODEL 4
REMARK VINA RESULT:      -8.3      2.965      4.057
REMARK  Name = 
REMARK  6 active torsions:
REMARK  status: ('A' for Active; 'I' for Inactive)
REMARK    1  A    between atoms: C_1  and  N_2
REMARK    2  A    between atoms: N_2  and  C_3
REMARK    3  A    between atoms: C_4  and  C_6
REMARK    4  A    between atoms: C_9  and  N_10
REMARK    5  A    between atoms: C_11  and  C_13
REMARK    6  A    between atoms: C_13  and  N_14
REMARK                            x       y       z     vdW  Elec       q    Type
REMARK                         _______ _______ _______ _____ _____    ______ ____
ROOT
ATOM      1  C   UNL     1       6.689   5.832  16.976  0.00  0.00    +0.000 C 
ENDROOT
BRANCH   1   2
ATOM      2  N   UNL     1       5.351   5.585  17.564  0.00  0.00    +0.000 NA
ATOM      3  C   UNL     1       5.384   5.719  19.032  0.00  0.00    +0.000 C 
ATOM      4  C   UNL     1       4.005   5.292  19.557  0.00  0.00    +0.000 C 
ATOM      5  C   UNL     1       3.063   6.404  19.189  0.00  0.00    +0.000 A 
ATOM      6  C   UNL     1       2.105   6.860  20.094  0.00  0.00    +0.000 A 
ATOM      7  C   UNL     1       1.500   8.113  19.946  0.00  0.00    +0.000 A 
ATOM      8  C   UNL     1       1.878   8.913  18.868  0.00  0.00    +0.000 A 
ATOM      9  C   UNL     1       2.715   8.353  17.855  0.00  0.00    +0.000 A 
ATOM     10  C   UNL     1       3.314   7.091  17.998  0.00  0.00    +0.000 A 
ATOM     11  C   UNL     1       4.267   6.446  16.981  0.00  0.00    +0.000 C 
ATOM     12  O   UNL     1       1.679  10.245  18.677  0.00  0.00    +0.000 OA
ATOM     13  C   UNL     1       0.803  11.085  19.414  0.00  0.00    +0.000 C 
ATOM     14  C   UNL     1       0.464  10.755  20.853  0.00  0.00    +0.000 C 
ATOM     15  C   UNL     1      -0.249   9.430  20.895  0.00  0.00    +0.000 C 
ATOM     16  O   UNL     1       0.690   8.381  21.008  0.00  0.00    +0.000 OA
ENDBRANCH   1   2
BRANCH   1  18
ATOM     17  N   UNL     1       7.545   8.135  17.365  0.00  0.00    +0.000 N 
ATOM     18  C   UNL     1       7.557   6.825  17.819  0.00  0.00    +0.000 C 
ATOM     19  O   UNL     1       8.129   6.415  18.834  0.00  0.00    +0.000 OA
ATOM     20  H   UNL     1       7.037   8.262  16.495  0.00  0.00    +0.000 HD
BRANCH  17  24
ATOM     21  C   UNL     1       9.367  11.665  18.989  0.00  0.00    +0.000 A 
ATOM     22  C   UNL     1       9.545  10.425  19.611  0.00  0.00    +0.000 A 
ATOM     23  C   UNL     1       8.975   9.246  19.074  0.00  0.00    +0.000 A 
ATOM     24  C   UNL     1       8.171   9.279  17.934  0.00  0.00    +0.000 A 
ATOM     25  C   UNL     1       7.949  10.530  17.341  0.00  0.00    +0.000 A 
ATOM     26  C   UNL     1       8.541  11.706  17.859  0.00  0.00    +0.000 A 
BRANCH  21  30
ATOM     27  C   UNL     1      11.644  14.662  19.821  0.00  0.00    +0.000 C 
ATOM     28  N   UNL     1      11.196  13.419  19.200  0.00  0.00    +0.000 N 
ATOM     29  C   UNL     1      12.048  12.869  18.159  0.00  0.00    +0.000 C 
ATOM     30  C   UNL     1       9.914  12.956  19.533  0.00  0.00    +0.000 C 
ATOM     31  O   UNL     1       9.177  13.605  20.279  0.00  0.00    +0.000 OA
ENDBRANCH  21  30
ENDBRANCH  17  24
ENDBRANCH   1  18
TORSDOF 4
ENDMDL
MODEL 5
REMARK VINA RESULT:      -8.2      7.710     11.061
REMARK  Name = 
REMARK  6 active torsions:
REMARK  status: ('A' for Active; 'I' for Inactive)
REMARK    1  A    between atoms: C_1  and  N_2
REMARK    2  A    between atoms: N_2  and  C_3
REMARK    3  A    between atoms: C_4  and  C_6
REMARK    4  A    between atoms: C_9  and  N_10
REMARK    5  A    between atoms: C_11  and  C_13
REMARK    6  A    between atoms: C_13  and  N_14
REMARK                            x       y       z     vdW  Elec       q    Type
REMARK                         _______ _______ _______ _____ _____    ______ ____
ROOT
ATOM      1  C   UNL     1       0.727  10.991  19.336  0.00  0.00    +0.000 C 
ENDROOT
BRANCH   1   2
ATOM      2  N   UNL     1      -0.514  11.285  18.580  0.00  0.00    +0.000 NA
ATOM      3  C   UNL     1      -1.383  10.095  18.503  0.00  0.00    +0.000 C 
ATOM      4  C   UNL     1      -2.555  10.448  17.575  0.00  0.00    +0.000 C 
ATOM      5  C   UNL     1      -3.428  11.390  18.356  0.00  0.00    +0.000 A 
ATOM      6  C   UNL     1      -4.816  11.263  18.336  0.00  0.00    +0.000 A 
ATOM      7  C   UNL     1      -5.617  11.840  19.328  0.00  0.00    +0.000 A 
ATOM      8  C   UNL     1      -4.996  12.550  20.355  0.00  0.00    +0.000 A 
ATOM      9  C   UNL     1      -3.599  12.828  20.255  0.00  0.00    +0.000 A 
ATOM     10  C   UNL     1      -2.797  12.257  19.253  0.00  0.00    +0.000 A 
ATOM     11  C   UNL     1      -1.282  12.462  19.112  0.00  0.00    +0.000 C 
ATOM     12  O   UNL     1      -5.499  12.931  21.561  0.00  0.00    +0.000 OA
ATOM     13  C   UNL     1      -6.865  12.922  21.950  0.00  0.00    +0.000 C 
ATOM     14  C   UNL     1      -7.829  11.937  21.321  0.00  0.00    +0.000 C 
ATOM     15  C   UNL     1      -7.916  12.213  19.844  0.00  0.00    +0.000 C 
ATOM     16  O   UNL     1      -6.921  11.485  19.158  0.00  0.00    +0.000 OA
ENDBRANCH   1   2
BRANCH   1  18
ATOM     17  N   UNL     1       1.683   8.715  19.647  0.00  0.00    +0.000 N 
ATOM     18  C   UNL     1       1.521   9.770  18.763  0.00  0.00    +0.000 C 
ATOM     19  O   UNL     1       1.888   9.790  17.583  0.00  0.00    +0.000 OA
ATOM     20  H   UNL     1       1.333   8.907  20.581  0.00  0.00    +0.000 HD
BRANCH  17  24
ATOM     21  C   UNL     1       3.468   4.854  19.083  0.00  0.00    +0.000 A 
ATOM     22  C   UNL     1       3.597   5.845  18.104  0.00  0.00    +0.000 A 
ATOM     23  C   UNL     1       3.039   7.133  18.286  0.00  0.00    +0.000 A 
ATOM     24  C   UNL     1       2.294   7.450  19.422  0.00  0.00    +0.000 A 
ATOM     25  C   UNL     1       2.120   6.440  20.379  0.00  0.00    +0.000 A 
ATOM     26  C   UNL     1       2.701   5.161  20.213  0.00  0.00    +0.000 A 
BRANCH  21  30
ATOM     27  C   UNL     1       3.797   1.058  18.497  0.00  0.00    +0.000 C 
ATOM     28  N   UNL     1       3.181   2.379  18.573  0.00  0.00    +0.000 N 
ATOM     29  C   UNL     1       1.811   2.485  18.100  0.00  0.00    +0.000 C 
ATOM     30  C   UNL     1       4.005   3.457  18.930  0.00  0.00    +0.000 C 
ATOM     31  O   UNL     1       5.214   3.298  19.119  0.00  0.00    +0.000 OA
ENDBRANCH  21  30
ENDBRANCH  17  24
ENDBRANCH   1  18
TORSDOF 4
ENDMDL
MODEL 6
REMARK VINA RESULT:      -8.2      6.090      9.593
REMARK  Name = 
REMARK  6 active torsions:
REMARK  status: ('A' for Active; 'I' for Inactive)
REMARK    1  A    between atoms: C_1  and  N_2
REMARK    2  A    between atoms: N_2  and  C_3
REMARK    3  A    between atoms: C_4  and  C_6
REMARK    4  A    between atoms: C_9  and  N_10
REMARK    5  A    between atoms: C_11  and  C_13
REMARK    6  A    between atoms: C_13  and  N_14
REMARK                            x       y       z     vdW  Elec       q    Type
REMARK                         _______ _______ _______ _____ _____    ______ ____
ROOT
ATOM      1  C   UNL     1       1.667   6.442  20.609  0.00  0.00    +0.000 C 
ENDROOT
BRANCH   1   2
ATOM      2  N   UNL     1       1.786   7.918  20.558  0.00  0.00    +0.000 NA
ATOM      3  C   UNL     1       0.959   8.480  19.473  0.00  0.00    +0.000 C 
ATOM      4  C   UNL     1       1.270   9.982  19.397  0.00  0.00    +0.000 C 
ATOM      5  C   UNL     1       0.618  10.599  20.603  0.00  0.00    +0.000 A 
ATOM      6  C   UNL     1      -0.077  11.803  20.505  0.00  0.00    +0.000 A 
ATOM      7  C   UNL     1      -1.005  12.192  21.477  0.00  0.00    +0.000 A 
ATOM      8  C   UNL     1      -1.232  11.342  22.559  0.00  0.00    +0.000 A 
ATOM      9  C   UNL     1      -0.378  10.211  22.738  0.00  0.00    +0.000 A 
ATOM     10  C   UNL     1       0.561   9.826  21.767  0.00  0.00    +0.000 A 
ATOM     11  C   UNL     1       1.474   8.596  21.862  0.00  0.00    +0.000 C 
ATOM     12  O   UNL     1      -2.265  11.338  23.445  0.00  0.00    +0.000 OA
ATOM     13  C   UNL     1      -3.222  12.370  23.634  0.00  0.00    +0.000 C 
ATOM     14  C   UNL     1      -3.581  13.294  22.489  0.00  0.00    +0.000 C 
ATOM     15  C   UNL     1      -2.354  14.065  22.081  0.00  0.00    +0.000 C 
ATOM     16  O   UNL     1      -1.633  13.342  21.106  0.00  0.00    +0.000 OA
ENDBRANCH   1   2
BRANCH   1  18
ATOM     17  N   UNL     1       3.406   6.317  18.834  0.00  0.00    +0.000 N 
ATOM     18  C   UNL     1       2.257   5.733  19.344  0.00  0.00    +0.000 C 
ATOM     19  O   UNL     1       1.723   4.699  18.928  0.00  0.00    +0.000 OA
ATOM     20  H   UNL     1       3.669   7.179  19.303  0.00  0.00    +0.000 HD
BRANCH  17  24
ATOM     21  C   UNL     1       5.833   5.150  15.493  0.00  0.00    +0.000 A 
ATOM     22  C   UNL     1       5.617   4.266  16.556  0.00  0.00    +0.000 A 
ATOM     23  C   UNL     1       4.797   4.624  17.652  0.00  0.00    +0.000 A 
ATOM     24  C   UNL     1       4.214   5.888  17.744  0.00  0.00    +0.000 A 
ATOM     25  C   UNL     1       4.474   6.792  16.705  0.00  0.00    +0.000 A 
ATOM     26  C   UNL     1       5.270   6.429  15.594  0.00  0.00    +0.000 A 
BRANCH  21  30
ATOM     27  C   UNL     1       7.265   3.761  12.195  0.00  0.00    +0.000 C 
ATOM     28  N   UNL     1       6.302   4.032  13.258  0.00  0.00    +0.000 N 
ATOM     29  C   UNL     1       4.939   3.583  13.030  0.00  0.00    +0.000 C 
ATOM     30  C   UNL     1       6.726   4.842  14.322  0.00  0.00    +0.000 C 
ATOM     31  O   UNL     1       7.851   5.348  14.328  0.00  0.00    +0.000 OA
ENDBRANCH  21  30
ENDBRANCH  17  24
ENDBRANCH   1  18
TORSDOF 4
ENDMDL
MODEL 7
REMARK VINA RESULT:      -7.9      2.936      4.017
REMARK  Name = 
REMARK  6 active torsions:
REMARK  status: ('A' for Active; 'I' for Inactive)
REMARK    1  A    between atoms: C_1  and  N_2
REMARK    2  A    between atoms: N_2  and  C_3
REMARK    3  A    between atoms: C_4  and  C_6
REMARK    4  A    between atoms: C_9  and  N_10
REMARK    5  A    between atoms: C_11  and  C_13
REMARK    6  A    between atoms: C_13  and  N_14
REMARK                            x       y       z     vdW  Elec       q    Type
REMARK                         _______ _______ _______ _____ _____    ______ ____
ROOT
ATOM      1  C   UNL     1       6.724   5.850  17.026  0.00  0.00    +0.000 C 
ENDROOT
BRANCH   1   2
ATOM      2  N   UNL     1       5.387   5.598  17.613  0.00  0.00    +0.000 NA
ATOM      3  C   UNL     1       5.414   5.749  19.081  0.00  0.00    +0.000 C 
ATOM      4  C   UNL     1       4.038   5.316  19.607  0.00  0.00    +0.000 C 
ATOM      5  C   UNL     1       3.087   6.415  19.224  0.00  0.00    +0.000 A 
ATOM      6  C   UNL     1       2.123   6.873  20.121  0.00  0.00    +0.000 A 
ATOM      7  C   UNL     1       1.507   8.120  19.958  0.00  0.00    +0.000 A 
ATOM      8  C   UNL     1       1.882   8.910  18.873  0.00  0.00    +0.000 A 
ATOM      9  C   UNL     1       2.726   8.347  17.868  0.00  0.00    +0.000 A 
ATOM     10  C   UNL     1       3.336   7.092  18.026  0.00  0.00    +0.000 A 
ATOM     11  C   UNL     1       4.297   6.444  17.019  0.00  0.00    +0.000 C 
ATOM     12  O   UNL     1       1.672  10.239  18.666  0.00  0.00    +0.000 OA
ATOM     13  C   UNL     1       0.787  11.079  19.392  0.00  0.00    +0.000 C 
ATOM     14  C   UNL     1       0.446  10.762  20.833  0.00  0.00    +0.000 C 
ATOM     15  C   UNL     1      -0.255   9.431  20.889  0.00  0.00    +0.000 C 
ATOM     16  O   UNL     1       0.692   8.392  21.015  0.00  0.00    +0.000 OA
ENDBRANCH   1   2
BRANCH   1  18
ATOM     17  N   UNL     1       7.529   8.179  17.371  0.00  0.00    +0.000 N 
ATOM     18  C   UNL     1       7.572   6.878  17.848  0.00  0.00    +0.000 C 
ATOM     19  O   UNL     1       8.157   6.500  18.868  0.00  0.00    +0.000 OA
ATOM     20  H   UNL     1       7.014   8.279  16.500  0.00  0.00    +0.000 HD
BRANCH  17  24
ATOM     21  C   UNL     1       9.404  11.624  19.111  0.00  0.00    +0.000 A 
ATOM     22  C   UNL     1       8.644  11.745  17.942  0.00  0.00    +0.000 A 
ATOM     23  C   UNL     1       7.995  10.625  17.370  0.00  0.00    +0.000 A 
ATOM     24  C   UNL     1       8.130   9.348  17.916  0.00  0.00    +0.000 A 
ATOM     25  C   UNL     1       8.935   9.219  19.057  0.00  0.00    +0.000 A 
ATOM     26  C   UNL     1       9.561  10.340  19.647  0.00  0.00    +0.000 A 
BRANCH  21  30
ATOM     27  C   UNL     1      10.341  14.735  21.185  0.00  0.00    +0.000 C 
ATOM     28  N   UNL     1       9.540  13.630  20.668  0.00  0.00    +0.000 N 
ATOM     29  C   UNL     1       8.246  13.418  21.293  0.00  0.00    +0.000 C 
ATOM     30  C   UNL     1      10.148  12.769  19.742  0.00  0.00    +0.000 C 
ATOM     31  O   UNL     1      11.331  12.913  19.421  0.00  0.00    +0.000 OA
ENDBRANCH  21  30
ENDBRANCH  17  24
ENDBRANCH   1  18
TORSDOF 4
ENDMDL
MODEL 8
REMARK VINA RESULT:      -7.8      7.939     11.645
REMARK  Name = 
REMARK  6 active torsions:
REMARK  status: ('A' for Active; 'I' for Inactive)
REMARK    1  A    between atoms: C_1  and  N_2
REMARK    2  A    between atoms: N_2  and  C_3
REMARK    3  A    between atoms: C_4  and  C_6
REMARK    4  A    between atoms: C_9  and  N_10
REMARK    5  A    between atoms: C_11  and  C_13
REMARK    6  A    between atoms: C_13  and  N_14
REMARK                            x       y       z     vdW  Elec       q    Type
REMARK                         _______ _______ _______ _____ _____    ______ ____
ROOT
ATOM      1  C   UNL     1       0.751  10.428  22.143  0.00  0.00    +0.000 C 
ENDROOT
BRANCH   1   2
ATOM      2  N   UNL     1      -0.078  11.460  21.476  0.00  0.00    +0.000 NA
ATOM      3  C   UNL     1      -0.911  10.866  20.413  0.00  0.00    +0.000 C 
ATOM      4  C   UNL     1      -1.607  12.024  19.682  0.00  0.00    +0.000 C 
ATOM      5  C   UNL     1      -2.663  12.530  20.624  0.00  0.00    +0.000 A 
ATOM      6  C   UNL     1      -3.938  12.855  20.162  0.00  0.00    +0.000 A 
ATOM      7  C   UNL     1      -5.030  12.941  21.033  0.00  0.00    +0.000 A 
ATOM      8  C   UNL     1      -4.822  12.687  22.389  0.00  0.00    +0.000 A 
ATOM      9  C   UNL     1      -3.483  12.543  22.866  0.00  0.00    +0.000 A 
ATOM     10  C   UNL     1      -2.386  12.467  21.993  0.00  0.00    +0.000 A 
ATOM     11  C   UNL     1      -0.927  12.258  22.424  0.00  0.00    +0.000 C 
ATOM     12  O   UNL     1      -5.734  12.412  23.360  0.00  0.00    +0.000 OA
ATOM     13  C   UNL     1      -7.142  12.578  23.271  0.00  0.00    +0.000 C 
ATOM     14  C   UNL     1      -7.835  12.491  21.928  0.00  0.00    +0.000 C 
ATOM     15  C   UNL     1      -7.324  13.595  21.041  0.00  0.00    +0.000 C 
ATOM     16  O   UNL     1      -6.180  13.158  20.338  0.00  0.00    +0.000 OA
ENDBRANCH   1   2
BRANCH   1  18
ATOM     17  N   UNL     1       1.669   8.491  20.880  0.00  0.00    +0.000 N 
ATOM     18  C   UNL     1       0.558   8.998  21.537  0.00  0.00    +0.000 C 
ATOM     19  O   UNL     1      -0.507   8.402  21.725  0.00  0.00    +0.000 OA
ATOM     20  H   UNL     1       2.438   9.150  20.810  0.00  0.00    +0.000 HD
BRANCH  17  24
ATOM     21  C   UNL     1       2.256   4.695  18.967  0.00  0.00    +0.000 A 
ATOM     22  C   UNL     1       1.680   4.766  20.240  0.00  0.00    +0.000 A 
ATOM     23  C   UNL     1       1.453   6.011  20.874  0.00  0.00    +0.000 A 
ATOM     24  C   UNL     1       1.842   7.212  20.280  0.00  0.00    +0.000 A 
ATOM     25  C   UNL     1       2.468   7.137  19.028  0.00  0.00    +0.000 A 
ATOM     26  C   UNL     1       2.670   5.897  18.379  0.00  0.00    +0.000 A 
BRANCH  21  30
ATOM     27  C   UNL     1       3.736   1.277  17.974  0.00  0.00    +0.000 C 
ATOM     28  N   UNL     1       3.487   2.479  18.764  0.00  0.00    +0.000 N 
ATOM     29  C   UNL     1       4.091   2.525  20.084  0.00  0.00    +0.000 C 
ATOM     30  C   UNL     1       2.558   3.402  18.260  0.00  0.00    +0.000 C 
ATOM     31  O   UNL     1       1.939   3.177  17.217  0.00  0.00    +0.000 OA
ENDBRANCH  21  30
ENDBRANCH  17  24
ENDBRANCH   1  18
TORSDOF 4
ENDMDL
MODEL 9
REMARK VINA RESULT:      -7.7      5.821     11.264
REMARK  Name = 
REMARK  6 active torsions:
REMARK  status: ('A' for Active; 'I' for Inactive)
REMARK    1  A    between atoms: C_1  and  N_2
REMARK    2  A    between atoms: N_2  and  C_3
REMARK    3  A    between atoms: C_4  and  C_6
REMARK    4  A    between atoms: C_9  and  N_10
REMARK    5  A    between atoms: C_11  and  C_13
REMARK    6  A    between atoms: C_13  and  N_14
REMARK                            x       y       z     vdW  Elec       q    Type
REMARK                         _______ _______ _______ _____ _____    ______ ____
ROOT
ATOM      1  C   UNL     1      -1.643  11.930  20.029  0.00  0.00    +0.000 C 
ENDROOT
BRANCH   1   2
ATOM      2  N   UNL     1      -1.139  13.301  19.776  0.00  0.00    +0.000 NA
ATOM      3  C   UNL     1      -0.458  13.845  20.966  0.00  0.00    +0.000 C 
ATOM      4  C   UNL     1      -0.116  15.311  20.663  0.00  0.00    +0.000 C 
ATOM      5  C   UNL     1       1.017  15.274  19.676  0.00  0.00    +0.000 A 
ATOM      6  C   UNL     1       2.104  16.138  19.801  0.00  0.00    +0.000 A 
ATOM      7  C   UNL     1       3.324  15.874  19.167  0.00  0.00    +0.000 A 
ATOM      8  C   UNL     1       3.439  14.714  18.402  0.00  0.00    +0.000 A 
ATOM      9  C   UNL     1       2.265  13.946  18.134  0.00  0.00    +0.000 A 
ATOM     10  C   UNL     1       1.038  14.216  18.762  0.00  0.00    +0.000 A 
ATOM     11  C   UNL     1      -0.250  13.405  18.569  0.00  0.00    +0.000 C 
ATOM     12  O   UNL     1       4.562  14.091  17.953  0.00  0.00    +0.000 OA
ATOM     13  C   UNL     1       5.878  14.624  17.937  0.00  0.00    +0.000 C 
ATOM     14  C   UNL     1       6.288  15.669  18.953  0.00  0.00    +0.000 C 
ATOM     15  C   UNL     1       5.440  16.898  18.761  0.00  0.00    +0.000 C 
ATOM     16  O   UNL     1       4.260  16.795  19.529  0.00  0.00    +0.000 OA
ENDBRANCH   1   2
BRANCH   1  18
ATOM     17  N   UNL     1       0.263  10.354  19.761  0.00  0.00    +0.000 N 
ATOM     18  C   UNL     1      -0.903  10.838  19.187  0.00  0.00    +0.000 C 
ATOM     19  O   UNL     1      -1.412  10.440  18.134  0.00  0.00    +0.000 OA
ATOM     20  H   UNL     1       0.526  10.832  20.617  0.00  0.00    +0.000 HD
BRANCH  17  24
ATOM     21  C   UNL     1       2.852   7.189  18.460  0.00  0.00    +0.000 A 
ATOM     22  C   UNL     1       2.478   8.207  17.576  0.00  0.00    +0.000 A 
ATOM     23  C   UNL     1       1.648   9.274  17.996  0.00  0.00    +0.000 A 
ATOM     24  C   UNL     1       1.127   9.326  19.289  0.00  0.00    +0.000 A 
ATOM     25  C   UNL     1       1.459   8.277  20.158  0.00  0.00    +0.000 A 
ATOM     26  C   UNL     1       2.311   7.225  19.751  0.00  0.00    +0.000 A 
BRANCH  21  30
ATOM     27  C   UNL     1       4.063   3.659  17.492  0.00  0.00    +0.000 C 
ATOM     28  N   UNL     1       3.145   4.742  17.829  0.00  0.00    +0.000 N 
ATOM     29  C   UNL     1       1.726   4.449  17.719  0.00  0.00    +0.000 C 
ATOM     30  C   UNL     1       3.698   6.010  18.062  0.00  0.00    +0.000 C 
ATOM     31  O   UNL     1       4.909   6.209  17.932  0.00  0.00    +0.000 OA
ENDBRANCH  21  30
ENDBRANCH  17  24
ENDBRANCH   1  18
TORSDOF 4
ENDMDL
