MODEL 1
REMARK VINA RESULT:      -6.4      0.000      0.000
REMARK  Name = 
REMARK  5 active torsions:
REMARK  status: ('A' for Active; 'I' for Inactive)
REMARK    1  A    between atoms: C_1  and  N_2
REMARK    2  A    between atoms: N_4  and  C_5
REMARK    3  A    between atoms: C_5  and  C_6
REMARK    4  A    between atoms: C_5  and  C_7
REMARK    5  A    between atoms: C_15  and  C_16
REMARK                            x       y       z     vdW  Elec       q    Type
REMARK                         _______ _______ _______ _____ _____    ______ ____
ROOT
ATOM      1  C   UNL     1       6.755   5.350  19.099  0.00  0.00    +0.000 C 
ATOM      2  N   UNL     1       5.409   5.854  19.292  0.00  0.00    +0.000 N 
ATOM      3  C   UNL     1       4.355   5.471  18.495  0.00  0.00    +0.000 C 
ATOM      4  N   UNL     1       3.119   5.363  18.833  0.00  0.00    +0.000 NA
ATOM      5  N   UNL     1       4.781   5.270  17.202  0.00  0.00    +0.000 N 
ATOM      6  C   UNL     1       4.467   4.039  16.484  0.00  0.00    +0.000 C 
ATOM      7  C   UNL     1       5.657   3.741  15.562  0.00  0.00    +0.000 C 
ATOM      8  C   UNL     1       5.964   4.918  14.615  0.00  0.00    +0.000 C 
ATOM      9  C   UNL     1       7.272   4.678  13.857  0.00  0.00    +0.000 C 
ATOM     10  C   UNL     1       6.035   6.254  15.373  0.00  0.00    +0.000 C 
ATOM     11  C   UNL     1       4.848   6.434  16.317  0.00  0.00    +0.000 C 
ATOM     12  H   UNL     1       5.182   5.970  20.268  0.00  0.00    +0.000 HD
ENDROOT
BRANCH   4  13
ATOM     13  C   UNL     1       2.685   5.739  20.191  0.00  0.00    +0.000 C 
ATOM     14  C   UNL     1       2.016   7.117  20.121  0.00  0.00    +0.000 C 
BRANCH  13  15
ATOM     15  C   UNL     1       1.706   4.710  20.795  0.00  0.00    +0.000 C 
ATOM     16  C   UNL     1       2.351   3.656  21.687  0.00  0.00    +0.000 C 
ATOM     17  C   UNL     1       1.361   2.522  21.586  0.00  0.00    +0.000 C 
ATOM     18  C   UNL     1       0.945   2.610  20.134  0.00  0.00    +0.000 C 
ATOM     19  O   UNL     1       0.939   4.002  19.798  0.00  0.00    +0.000 OA
ENDBRANCH  13  15
ENDBRANCH   4  13
TORSDOF 2
ENDMDL
MODEL 2
REMARK VINA RESULT:      -6.3      2.474      6.670
REMARK  Name = 
REMARK  5 active torsions:
REMARK  status: ('A' for Active; 'I' for Inactive)
REMARK    1  A    between atoms: C_1  and  N_2
REMARK    2  A    between atoms: N_4  and  C_5
REMARK    3  A    between atoms: C_5  and  C_6
REMARK    4  A    between atoms: C_5  and  C_7
REMARK    5  A    between atoms: C_15  and  C_16
REMARK                            x       y       z     vdW  Elec       q    Type
REMARK                         _______ _______ _______ _____ _____    ______ ____
ROOT
ATOM      1  C   UNL     1       3.239   6.645  18.104  0.00  0.00    +0.000 C 
ATOM      2  N   UNL     1       4.395   6.015  17.495  0.00  0.00    +0.000 N 
ATOM      3  C   UNL     1       4.404   4.692  17.120  0.00  0.00    +0.000 C 
ATOM      4  N   UNL     1       5.047   4.161  16.142  0.00  0.00    +0.000 NA
ATOM      5  N   UNL     1       3.657   3.940  18.000  0.00  0.00    +0.000 N 
ATOM      6  C   UNL     1       2.620   3.029  17.525  0.00  0.00    +0.000 C 
ATOM      7  C   UNL     1       1.507   3.028  18.582  0.00  0.00    +0.000 C 
ATOM      8  C   UNL     1       2.034   2.650  19.980  0.00  0.00    +0.000 C 
ATOM      9  C   UNL     1       0.954   2.858  21.042  0.00  0.00    +0.000 C 
ATOM     10  C   UNL     1       3.293   3.454  20.348  0.00  0.00    +0.000 C 
ATOM     11  C   UNL     1       4.316   3.457  19.214  0.00  0.00    +0.000 C 
ATOM     12  H   UNL     1       4.879   6.637  16.867  0.00  0.00    +0.000 HD
ENDROOT
BRANCH   4  13
ATOM     13  C   UNL     1       5.958   4.981  15.322  0.00  0.00    +0.000 C 
ATOM     14  C   UNL     1       7.052   5.549  16.233  0.00  0.00    +0.000 C 
BRANCH  13  15
ATOM     15  C   UNL     1       6.598   4.169  14.176  0.00  0.00    +0.000 C 
ATOM     16  C   UNL     1       7.299   5.003  13.111  0.00  0.00    +0.000 C 
ATOM     17  C   UNL     1       7.236   4.086  11.914  0.00  0.00    +0.000 C 
ATOM     18  C   UNL     1       5.868   3.462  12.080  0.00  0.00    +0.000 C 
ATOM     19  O   UNL     1       5.659   3.316  13.489  0.00  0.00    +0.000 OA
ENDBRANCH  13  15
ENDBRANCH   4  13
TORSDOF 2
ENDMDL
MODEL 3
REMARK VINA RESULT:      -6.2      2.637      6.638
REMARK  Name = 
REMARK  5 active torsions:
REMARK  status: ('A' for Active; 'I' for Inactive)
REMARK    1  A    between atoms: C_1  and  N_2
REMARK    2  A    between atoms: N_4  and  C_5
REMARK    3  A    between atoms: C_5  and  C_6
REMARK    4  A    between atoms: C_5  and  C_7
REMARK    5  A    between atoms: C_15  and  C_16
REMARK                            x       y       z     vdW  Elec       q    Type
REMARK                         _______ _______ _______ _____ _____    ______ ____
ROOT
ATOM      1  C   UNL     1       3.813   6.545  18.956  0.00  0.00    +0.000 C 
ATOM      2  N   UNL     1       4.819   5.879  18.150  0.00  0.00    +0.000 N 
ATOM      3  C   UNL     1       4.571   4.700  17.486  0.00  0.00    +0.000 C 
ATOM      4  N   UNL     1       5.085   4.305  16.376  0.00  0.00    +0.000 NA
ATOM      5  N   UNL     1       3.713   3.909  18.217  0.00  0.00    +0.000 N 
ATOM      6  C   UNL     1       2.515   3.334  17.614  0.00  0.00    +0.000 C 
ATOM      7  C   UNL     1       1.441   3.286  18.710  0.00  0.00    +0.000 C 
ATOM      8  C   UNL     1       1.914   2.505  19.952  0.00  0.00    +0.000 C 
ATOM      9  C   UNL     1       0.912   2.648  21.098  0.00  0.00    +0.000 C 
ATOM     10  C   UNL     1       3.309   2.962  20.413  0.00  0.00    +0.000 C 
ATOM     11  C   UNL     1       4.292   3.047  19.248  0.00  0.00    +0.000 C 
ATOM     12  H   UNL     1       5.400   6.533  17.650  0.00  0.00    +0.000 HD
ENDROOT
BRANCH   4  13
ATOM     13  C   UNL     1       6.118   5.118  15.707  0.00  0.00    +0.000 C 
ATOM     14  C   UNL     1       7.494   4.654  16.199  0.00  0.00    +0.000 C 
BRANCH  13  15
ATOM     15  C   UNL     1       6.044   5.001  14.170  0.00  0.00    +0.000 C 
ATOM     16  C   UNL     1       5.612   3.636  13.648  0.00  0.00    +0.000 C 
ATOM     17  C   UNL     1       6.225   3.627  12.269  0.00  0.00    +0.000 C 
ATOM     18  C   UNL     1       7.542   4.329  12.518  0.00  0.00    +0.000 C 
ATOM     19  O   UNL     1       7.289   5.325  13.514  0.00  0.00    +0.000 OA
ENDBRANCH  13  15
ENDBRANCH   4  13
TORSDOF 2
ENDMDL
MODEL 4
REMARK VINA RESULT:      -6.0      2.394      6.107
REMARK  Name = 
REMARK  5 active torsions:
REMARK  status: ('A' for Active; 'I' for Inactive)
REMARK    1  A    between atoms: C_1  and  N_2
REMARK    2  A    between atoms: N_4  and  C_5
REMARK    3  A    between atoms: C_5  and  C_6
REMARK    4  A    between atoms: C_5  and  C_7
REMARK    5  A    between atoms: C_15  and  C_16
REMARK                            x       y       z     vdW  Elec       q    Type
REMARK                         _______ _______ _______ _____ _____    ______ ____
ROOT
ATOM      1  C   UNL     1       5.379   4.357  19.595  0.00  0.00    +0.000 C 
ATOM      2  N   UNL     1       5.695   3.891  18.258  0.00  0.00    +0.000 N 
ATOM      3  C   UNL     1       4.753   3.820  17.259  0.00  0.00    +0.000 C 
ATOM      4  N   UNL     1       4.939   3.975  15.996  0.00  0.00    +0.000 NA
ATOM      5  N   UNL     1       3.526   3.477  17.781  0.00  0.00    +0.000 N 
ATOM      6  C   UNL     1       2.330   4.257  17.478  0.00  0.00    +0.000 C 
ATOM      7  C   UNL     1       1.438   4.214  18.726  0.00  0.00    +0.000 C 
ATOM      8  C   UNL     1       1.112   2.770  19.156  0.00  0.00    +0.000 C 
ATOM      9  C   UNL     1       0.401   2.754  20.510  0.00  0.00    +0.000 C 
ATOM     10  C   UNL     1       2.376   1.896  19.217  0.00  0.00    +0.000 C 
ATOM     11  C   UNL     1       3.236   2.055  17.965  0.00  0.00    +0.000 C 
ATOM     12  H   UNL     1       6.610   4.189  17.958  0.00  0.00    +0.000 HD
ENDROOT
BRANCH   4  13
ATOM     13  C   UNL     1       6.300   4.187  15.469  0.00  0.00    +0.000 C 
ATOM     14  C   UNL     1       6.274   3.956  13.953  0.00  0.00    +0.000 C 
BRANCH  13  15
ATOM     15  C   UNL     1       6.828   5.605  15.774  0.00  0.00    +0.000 C 
ATOM     16  C   UNL     1       7.690   5.714  17.026  0.00  0.00    +0.000 C 
ATOM     17  C   UNL     1       7.507   7.166  17.398  0.00  0.00    +0.000 C 
ATOM     18  C   UNL     1       6.050   7.386  17.058  0.00  0.00    +0.000 C 
ATOM     19  O   UNL     1       5.778   6.587  15.902  0.00  0.00    +0.000 OA
ENDBRANCH  13  15
ENDBRANCH   4  13
TORSDOF 2
ENDMDL
MODEL 5
REMARK VINA RESULT:      -5.9      2.406      6.007
REMARK  Name = 
REMARK  5 active torsions:
REMARK  status: ('A' for Active; 'I' for Inactive)
REMARK    1  A    between atoms: C_1  and  N_2
REMARK    2  A    between atoms: N_4  and  C_5
REMARK    3  A    between atoms: C_5  and  C_6
REMARK    4  A    between atoms: C_5  and  C_7
REMARK    5  A    between atoms: C_15  and  C_16
REMARK                            x       y       z     vdW  Elec       q    Type
REMARK                         _______ _______ _______ _____ _____    ______ ____
ROOT
ATOM      1  C   UNL     1       3.184   6.223  17.703  0.00  0.00    +0.000 C 
ATOM      2  N   UNL     1       4.452   5.606  17.363  0.00  0.00    +0.000 N 
ATOM      3  C   UNL     1       4.600   4.245  17.234  0.00  0.00    +0.000 C 
ATOM      4  N   UNL     1       5.405   3.616  16.453  0.00  0.00    +0.000 NA
ATOM      5  N   UNL     1       3.792   3.588  18.135  0.00  0.00    +0.000 N 
ATOM      6  C   UNL     1       2.893   2.521  17.708  0.00  0.00    +0.000 C 
ATOM      7  C   UNL     1       1.648   2.598  18.602  0.00  0.00    +0.000 C 
ATOM      8  C   UNL     1       2.004   2.510  20.100  0.00  0.00    +0.000 C 
ATOM      9  C   UNL     1       0.778   2.796  20.968  0.00  0.00    +0.000 C 
ATOM     10  C   UNL     1       3.145   3.474  20.470  0.00  0.00    +0.000 C 
ATOM     11  C   UNL     1       4.310   3.378  19.488  0.00  0.00    +0.000 C 
ATOM     12  H   UNL     1       4.975   6.154  16.698  0.00  0.00    +0.000 HD
ENDROOT
BRANCH   4  13
ATOM     13  C   UNL     1       6.362   4.365  15.618  0.00  0.00    +0.000 C 
ATOM     14  C   UNL     1       5.582   5.398  14.795  0.00  0.00    +0.000 C 
BRANCH  13  15
ATOM     15  C   UNL     1       7.441   5.074  16.463  0.00  0.00    +0.000 C 
ATOM     16  C   UNL     1       7.491   4.653  17.927  0.00  0.00    +0.000 C 
ATOM     17  C   UNL     1       8.108   5.869  18.574  0.00  0.00    +0.000 C 
ATOM     18  C   UNL     1       7.468   6.990  17.787  0.00  0.00    +0.000 C 
ATOM     19  O   UNL     1       7.324   6.513  16.445  0.00  0.00    +0.000 OA
ENDBRANCH  13  15
ENDBRANCH   4  13
TORSDOF 2
ENDMDL
MODEL 6
REMARK VINA RESULT:      -5.9      2.023      6.088
REMARK  Name = 
REMARK  5 active torsions:
REMARK  status: ('A' for Active; 'I' for Inactive)
REMARK    1  A    between atoms: C_1  and  N_2
REMARK    2  A    between atoms: N_4  and  C_5
REMARK    3  A    between atoms: C_5  and  C_6
REMARK    4  A    between atoms: C_5  and  C_7
REMARK    5  A    between atoms: C_15  and  C_16
REMARK                            x       y       z     vdW  Elec       q    Type
REMARK                         _______ _______ _______ _____ _____    ______ ____
ROOT
ATOM      1  C   UNL     1       2.665   4.063  16.995  0.00  0.00    +0.000 C 
ATOM      2  N   UNL     1       3.604   5.146  17.221  0.00  0.00    +0.000 N 
ATOM      3  C   UNL     1       4.473   5.160  18.287  0.00  0.00    +0.000 C 
ATOM      4  N   UNL     1       5.649   5.679  18.330  0.00  0.00    +0.000 NA
ATOM      5  N   UNL     1       3.886   4.584  19.391  0.00  0.00    +0.000 N 
ATOM      6  C   UNL     1       4.561   3.532  20.144  0.00  0.00    +0.000 C 
ATOM      7  C   UNL     1       3.471   2.584  20.665  0.00  0.00    +0.000 C 
ATOM      8  C   UNL     1       2.410   3.326  21.502  0.00  0.00    +0.000 C 
ATOM      9  C   UNL     1       1.236   2.403  21.831  0.00  0.00    +0.000 C 
ATOM     10  C   UNL     1       1.900   4.587  20.784  0.00  0.00    +0.000 C 
ATOM     11  C   UNL     1       3.049   5.433  20.239  0.00  0.00    +0.000 C 
ATOM     12  H   UNL     1       3.984   5.505  16.359  0.00  0.00    +0.000 HD
ENDROOT
BRANCH   4  13
ATOM     13  C   UNL     1       6.174   6.422  17.170  0.00  0.00    +0.000 C 
ATOM     14  C   UNL     1       7.352   7.283  17.639  0.00  0.00    +0.000 C 
BRANCH  13  15
ATOM     15  C   UNL     1       6.631   5.481  16.035  0.00  0.00    +0.000 C 
ATOM     16  C   UNL     1       5.817   5.579  14.751  0.00  0.00    +0.000 C 
ATOM     17  C   UNL     1       6.040   4.216  14.142  0.00  0.00    +0.000 C 
ATOM     18  C   UNL     1       6.034   3.330  15.368  0.00  0.00    +0.000 C 
ATOM     19  O   UNL     1       6.641   4.089  16.419  0.00  0.00    +0.000 OA
ENDBRANCH  13  15
ENDBRANCH   4  13
TORSDOF 2
ENDMDL
MODEL 7
REMARK VINA RESULT:      -5.8      1.819      3.219
REMARK  Name = 
REMARK  5 active torsions:
REMARK  status: ('A' for Active; 'I' for Inactive)
REMARK    1  A    between atoms: C_1  and  N_2
REMARK    2  A    between atoms: N_4  and  C_5
REMARK    3  A    between atoms: C_5  and  C_6
REMARK    4  A    between atoms: C_5  and  C_7
REMARK    5  A    between atoms: C_15  and  C_16
REMARK                            x       y       z     vdW  Elec       q    Type
REMARK                         _______ _______ _______ _____ _____    ______ ____
ROOT
ATOM      1  C   UNL     1       3.092   7.110  18.698  0.00  0.00    +0.000 C 
ATOM      2  N   UNL     1       2.917   5.801  18.098  0.00  0.00    +0.000 N 
ATOM      3  C   UNL     1       3.913   4.853  18.089  0.00  0.00    +0.000 C 
ATOM      4  N   UNL     1       3.776   3.575  18.126  0.00  0.00    +0.000 NA
ATOM      5  N   UNL     1       5.145   5.453  17.960  0.00  0.00    +0.000 N 
ATOM      6  C   UNL     1       6.237   5.143  18.876  0.00  0.00    +0.000 C 
ATOM      7  C   UNL     1       7.057   6.430  19.048  0.00  0.00    +0.000 C 
ATOM      8  C   UNL     1       7.554   6.985  17.698  0.00  0.00    +0.000 C 
ATOM      9  C   UNL     1       8.186   8.366  17.878  0.00  0.00    +0.000 C 
ATOM     10  C   UNL     1       6.419   7.058  16.661  0.00  0.00    +0.000 C 
ATOM     11  C   UNL     1       5.615   5.761  16.609  0.00  0.00    +0.000 C 
ATOM     12  H   UNL     1       1.987   5.438  18.242  0.00  0.00    +0.000 HD
ENDROOT
BRANCH   4  13
ATOM     13  C   UNL     1       2.430   2.973  18.107  0.00  0.00    +0.000 C 
ATOM     14  C   UNL     1       2.410   1.863  17.049  0.00  0.00    +0.000 C 
BRANCH  13  15
ATOM     15  C   UNL     1       2.032   2.395  19.482  0.00  0.00    +0.000 C 
ATOM     16  C   UNL     1       0.934   3.161  20.209  0.00  0.00    +0.000 C 
ATOM     17  C   UNL     1       1.212   2.803  21.648  0.00  0.00    +0.000 C 
ATOM     18  C   UNL     1       2.724   2.787  21.671  0.00  0.00    +0.000 C 
ATOM     19  O   UNL     1       3.143   2.287  20.397  0.00  0.00    +0.000 OA
ENDBRANCH  13  15
ENDBRANCH   4  13
TORSDOF 2
ENDMDL
MODEL 8
REMARK VINA RESULT:      -5.7      3.225      5.139
REMARK  Name = 
REMARK  5 active torsions:
REMARK  status: ('A' for Active; 'I' for Inactive)
REMARK    1  A    between atoms: C_1  and  N_2
REMARK    2  A    between atoms: N_4  and  C_5
REMARK    3  A    between atoms: C_5  and  C_6
REMARK    4  A    between atoms: C_5  and  C_7
REMARK    5  A    between atoms: C_15  and  C_16
REMARK                            x       y       z     vdW  Elec       q    Type
REMARK                         _______ _______ _______ _____ _____    ______ ____
ROOT
ATOM      1  C   UNL     1       4.215   6.972  17.608  0.00  0.00    +0.000 C 
ATOM      2  N   UNL     1       3.023   7.545  18.203  0.00  0.00    +0.000 N 
ATOM      3  C   UNL     1       2.368   6.957  19.260  0.00  0.00    +0.000 C 
ATOM      4  N   UNL     1       1.714   7.543  20.198  0.00  0.00    +0.000 NA
ATOM      5  N   UNL     1       2.435   5.585  19.161  0.00  0.00    +0.000 N 
ATOM      6  C   UNL     1       2.883   4.767  20.283  0.00  0.00    +0.000 C 
ATOM      7  C   UNL     1       3.628   3.562  19.691  0.00  0.00    +0.000 C 
ATOM      8  C   UNL     1       2.755   2.775  18.694  0.00  0.00    +0.000 C 
ATOM      9  C   UNL     1       3.582   1.712  17.969  0.00  0.00    +0.000 C 
ATOM     10  C   UNL     1       2.083   3.705  17.669  0.00  0.00    +0.000 C 
ATOM     11  C   UNL     1       1.429   4.911  18.341  0.00  0.00    +0.000 C 
ATOM     12  H   UNL     1       3.061   8.552  18.235  0.00  0.00    +0.000 HD
ENDROOT
BRANCH   4  13
ATOM     13  C   UNL     1       1.538   9.007  20.176  0.00  0.00    +0.000 C 
ATOM     14  C   UNL     1       0.499   9.354  19.103  0.00  0.00    +0.000 C 
BRANCH  13  15
ATOM     15  C   UNL     1       1.084   9.559  21.544  0.00  0.00    +0.000 C 
ATOM     16  C   UNL     1      -0.189   8.932  22.100  0.00  0.00    +0.000 C 
ATOM     17  C   UNL     1      -0.698  10.026  23.007  0.00  0.00    +0.000 C 
ATOM     18  C   UNL     1      -0.354  11.266  22.211  0.00  0.00    +0.000 C 
ATOM     19  O   UNL     1       0.881  10.988  21.542  0.00  0.00    +0.000 OA
ENDBRANCH  13  15
ENDBRANCH   4  13
TORSDOF 2
ENDMDL
MODEL 9
REMARK VINA RESULT:      -5.6      2.309      6.257
REMARK  Name = 
REMARK  5 active torsions:
REMARK  status: ('A' for Active; 'I' for Inactive)
REMARK    1  A    between atoms: C_1  and  N_2
REMARK    2  A    between atoms: N_4  and  C_5
REMARK    3  A    between atoms: C_5  and  C_6
REMARK    4  A    between atoms: C_5  and  C_7
REMARK    5  A    between atoms: C_15  and  C_16
REMARK                            x       y       z     vdW  Elec       q    Type
REMARK                         _______ _______ _______ _____ _____    ______ ____
ROOT
ATOM      1  C   UNL     1       1.514   4.670  17.474  0.00  0.00    +0.000 C 
ATOM      2  N   UNL     1       2.688   5.519  17.551  0.00  0.00    +0.000 N 
ATOM      3  C   UNL     1       3.814   5.161  18.255  0.00  0.00    +0.000 C 
ATOM      4  N   UNL     1       5.033   5.472  17.990  0.00  0.00    +0.000 NA
ATOM      5  N   UNL     1       3.469   4.446  19.379  0.00  0.00    +0.000 N 
ATOM      6  C   UNL     1       4.092   3.161  19.680  0.00  0.00    +0.000 C 
ATOM      7  C   UNL     1       3.027   2.296  20.369  0.00  0.00    +0.000 C 
ATOM      8  C   UNL     1       2.445   2.981  21.621  0.00  0.00    +0.000 C 
ATOM      9  C   UNL     1       1.250   2.196  22.164  0.00  0.00    +0.000 C 
ATOM     10  C   UNL     1       2.031   4.435  21.333  0.00  0.00    +0.000 C 
ATOM     11  C   UNL     1       3.122   5.198  20.586  0.00  0.00    +0.000 C 
ATOM     12  H   UNL     1       2.865   6.003  16.684  0.00  0.00    +0.000 HD
ENDROOT
BRANCH   4  13
ATOM     13  C   UNL     1       5.340   6.370  16.861  0.00  0.00    +0.000 C 
ATOM     14  C   UNL     1       6.665   7.083  17.156  0.00  0.00    +0.000 C 
BRANCH  13  15
ATOM     15  C   UNL     1       5.442   5.608  15.523  0.00  0.00    +0.000 C 
ATOM     16  C   UNL     1       5.453   4.089  15.647  0.00  0.00    +0.000 C 
ATOM     17  C   UNL     1       6.169   3.683  14.382  0.00  0.00    +0.000 C 
ATOM     18  C   UNL     1       7.211   4.772  14.260  0.00  0.00    +0.000 C 
ATOM     19  O   UNL     1       6.603   5.973  14.747  0.00  0.00    +0.000 OA
ENDBRANCH  13  15
ENDBRANCH   4  13
TORSDOF 2
ENDMDL
