MODEL 1
REMARK VINA RESULT:      -7.8      0.000      0.000
REMARK  Name = 
REMARK  6 active torsions:
REMARK  status: ('A' for Active; 'I' for Inactive)
REMARK    1  A    between atoms: N_1  and  N_2
REMARK    2  A    between atoms: C_3  and  C_5
REMARK    3  A    between atoms: C_5  and  N_16
REMARK    4  A    between atoms: C_6  and  C_7
REMARK    5  A    between atoms: C_10  and  N_11
REMARK    6  A    between atoms: C_17  and  C_19
REMARK                            x       y       z     vdW  Elec       q    Type
REMARK                         _______ _______ _______ _____ _____    ______ ____
ROOT
ATOM      1  C   UNL     1       4.395   4.485  17.619  0.00  0.00    +0.000 C 
ATOM      2  C   UNL     1       5.728   4.568  17.469  0.00  0.00    +0.000 C 
ENDROOT
BRANCH   2   3
ATOM      3  C   UNL     1       6.562   5.772  17.588  0.00  0.00    +0.000 A 
ATOM      4  C   UNL     1       6.267   6.909  16.822  0.00  0.00    +0.000 A 
ATOM      5  C   UNL     1       6.942   8.113  17.055  0.00  0.00    +0.000 A 
ATOM      6  C   UNL     1       7.913   8.172  18.064  0.00  0.00    +0.000 A 
ATOM      7  C   UNL     1       8.240   7.031  18.806  0.00  0.00    +0.000 A 
ATOM      8  C   UNL     1       7.562   5.833  18.562  0.00  0.00    +0.000 A 
BRANCH   6   9
ATOM      9  N   UNL     1       8.559   9.454  18.376  0.00  0.00    +0.000 N 
ATOM     10  O   UNL     1       9.355   9.483  19.326  0.00  0.00    +0.000 OA
ATOM     11  O   UNL     1       8.286  10.429  17.661  0.00  0.00    +0.000 OA
ENDBRANCH   6   9
ENDBRANCH   2   3
BRANCH   1  13
ATOM     12  N   UNL     1       4.328   2.105  18.251  0.00  0.00    +0.000 N 
ATOM     13  C   UNL     1       3.680   3.151  17.594  0.00  0.00    +0.000 C 
ATOM     14  O   UNL     1       2.569   3.050  17.071  0.00  0.00    +0.000 OA
ATOM     15  H   UNL     1       5.107   2.306  18.870  0.00  0.00    +0.000 HD
BRANCH  12  16
ATOM     16  N   UNL     1       3.699   0.846  18.356  0.00  0.00    +0.000 NA
ATOM     17  H   UNL     1       2.725   0.972  18.635  0.00  0.00    +0.000 HD
ATOM     18  H   UNL     1       4.147   0.343  19.132  0.00  0.00    +0.000 HD
ENDBRANCH  12  16
ENDBRANCH   1  13
BRANCH   1  19
ATOM     19  N   UNL     1       3.577   5.594  17.773  0.00  0.00    +0.000 N 
ATOM     20  C   UNL     1       3.192   5.999  19.053  0.00  0.00    +0.000 C 
ATOM     21  O   UNL     1       3.489   5.435  20.098  0.00  0.00    +0.000 OA
ATOM     22  H   UNL     1       3.931   6.411  17.277  0.00  0.00    +0.000 HD
BRANCH  20  23
ATOM     23  C   UNL     1       2.368   7.243  19.081  0.00  0.00    +0.000 A 
ATOM     24  C   UNL     1       1.793   7.665  20.288  0.00  0.00    +0.000 A 
ATOM     25  C   UNL     1       1.094   8.872  20.349  0.00  0.00    +0.000 A 
ATOM     26  C   UNL     1       0.967   9.656  19.204  0.00  0.00    +0.000 A 
ATOM     27 BR   UNL     1       0.062  11.314  19.309  0.00  0.00    +0.000 Br
ATOM     28  C   UNL     1       1.521   9.237  17.993  0.00  0.00    +0.000 A 
ATOM     29  C   UNL     1       2.229   8.032  17.931  0.00  0.00    +0.000 A 
ENDBRANCH  20  23
ENDBRANCH   1  19
TORSDOF 6
ENDMDL
MODEL 2
REMARK VINA RESULT:      -7.7      0.144      1.159
REMARK  Name = 
REMARK  6 active torsions:
REMARK  status: ('A' for Active; 'I' for Inactive)
REMARK    1  A    between atoms: N_1  and  N_2
REMARK    2  A    between atoms: C_3  and  C_5
REMARK    3  A    between atoms: C_5  and  N_16
REMARK    4  A    between atoms: C_6  and  C_7
REMARK    5  A    between atoms: C_10  and  N_11
REMARK    6  A    between atoms: C_17  and  C_19
REMARK                            x       y       z     vdW  Elec       q    Type
REMARK                         _______ _______ _______ _____ _____    ______ ____
ROOT
ATOM      1  C   UNL     1       4.371   4.532  17.597  0.00  0.00    +0.000 C 
ATOM      2  C   UNL     1       5.705   4.599  17.444  0.00  0.00    +0.000 C 
ENDROOT
BRANCH   2   3
ATOM      3  C   UNL     1       6.554   5.789  17.574  0.00  0.00    +0.000 A 
ATOM      4  C   UNL     1       6.279   6.936  16.814  0.00  0.00    +0.000 A 
ATOM      5  C   UNL     1       6.970   8.128  17.057  0.00  0.00    +0.000 A 
ATOM      6  C   UNL     1       7.938   8.167  18.069  0.00  0.00    +0.000 A 
ATOM      7  C   UNL     1       8.247   7.016  18.805  0.00  0.00    +0.000 A 
ATOM      8  C   UNL     1       7.553   5.829  18.551  0.00  0.00    +0.000 A 
BRANCH   6   9
ATOM      9  N   UNL     1       8.602   9.438  18.392  0.00  0.00    +0.000 N 
ATOM     10  O   UNL     1       8.381  10.408  17.654  0.00  0.00    +0.000 OA
ATOM     11  O   UNL     1       9.332   9.470  19.394  0.00  0.00    +0.000 OA
ENDBRANCH   6   9
ENDBRANCH   2   3
BRANCH   1  13
ATOM     12  N   UNL     1       4.285   2.141  18.180  0.00  0.00    +0.000 N 
ATOM     13  C   UNL     1       3.637   3.209  17.560  0.00  0.00    +0.000 C 
ATOM     14  O   UNL     1       2.513   3.134  17.061  0.00  0.00    +0.000 OA
ATOM     15  H   UNL     1       5.081   2.318  18.784  0.00  0.00    +0.000 HD
BRANCH  12  16
ATOM     16  N   UNL     1       3.642   0.888  18.272  0.00  0.00    +0.000 NA
ATOM     17  H   UNL     1       2.687   1.017  18.608  0.00  0.00    +0.000 HD
ATOM     18  H   UNL     1       4.123   0.349  19.003  0.00  0.00    +0.000 HD
ENDBRANCH  12  16
ENDBRANCH   1  13
BRANCH   1  19
ATOM     19  N   UNL     1       3.568   5.651  17.766  0.00  0.00    +0.000 N 
ATOM     20  C   UNL     1       3.261   6.096  19.053  0.00  0.00    +0.000 C 
ATOM     21  O   UNL     1       3.616   5.561  20.095  0.00  0.00    +0.000 OA
ATOM     22  H   UNL     1       3.896   6.450  17.225  0.00  0.00    +0.000 HD
BRANCH  20  23
ATOM     23  C   UNL     1       2.447   7.346  19.091  0.00  0.00    +0.000 A 
ATOM     24  C   UNL     1       2.255   8.084  17.915  0.00  0.00    +0.000 A 
ATOM     25  C   UNL     1       1.425   9.206  17.916  0.00  0.00    +0.000 A 
ATOM     26  C   UNL     1       0.789   9.594  19.094  0.00  0.00    +0.000 A 
ATOM     27 BR   UNL     1      -0.374  11.086  19.074  0.00  0.00    +0.000 Br
ATOM     28  C   UNL     1       0.986   8.877  20.275  0.00  0.00    +0.000 A 
ATOM     29  C   UNL     1       1.811   7.747  20.274  0.00  0.00    +0.000 A 
ENDBRANCH  20  23
ENDBRANCH   1  19
TORSDOF 6
ENDMDL
MODEL 3
REMARK VINA RESULT:      -7.7      2.980      3.766
REMARK  Name = 
REMARK  6 active torsions:
REMARK  status: ('A' for Active; 'I' for Inactive)
REMARK    1  A    between atoms: N_1  and  N_2
REMARK    2  A    between atoms: C_3  and  C_5
REMARK    3  A    between atoms: C_5  and  N_16
REMARK    4  A    between atoms: C_6  and  C_7
REMARK    5  A    between atoms: C_10  and  N_11
REMARK    6  A    between atoms: C_17  and  C_19
REMARK                            x       y       z     vdW  Elec       q    Type
REMARK                         _______ _______ _______ _____ _____    ______ ____
ROOT
ATOM      1  C   UNL     1       3.906   3.827  19.506  0.00  0.00    +0.000 C 
ATOM      2  C   UNL     1       4.595   3.207  18.531  0.00  0.00    +0.000 C 
ENDROOT
BRANCH   2   3
ATOM      3  C   UNL     1       5.247   3.829  17.372  0.00  0.00    +0.000 A 
ATOM      4  C   UNL     1       6.571   4.283  17.469  0.00  0.00    +0.000 A 
ATOM      5  C   UNL     1       7.257   4.713  16.327  0.00  0.00    +0.000 A 
ATOM      6  C   UNL     1       6.610   4.683  15.085  0.00  0.00    +0.000 A 
ATOM      7  C   UNL     1       5.275   4.268  14.986  0.00  0.00    +0.000 A 
ATOM      8  C   UNL     1       4.599   3.844  16.133  0.00  0.00    +0.000 A 
BRANCH   6   9
ATOM      9  N   UNL     1       7.351   5.045  13.870  0.00  0.00    +0.000 N 
ATOM     10  O   UNL     1       8.328   5.798  13.993  0.00  0.00    +0.000 OA
ATOM     11  O   UNL     1       6.969   4.562  12.794  0.00  0.00    +0.000 OA
ENDBRANCH   6   9
ENDBRANCH   2   3
BRANCH   1  13
ATOM     12  N   UNL     1       2.088   3.366  21.102  0.00  0.00    +0.000 N 
ATOM     13  C   UNL     1       3.394   3.072  20.714  0.00  0.00    +0.000 C 
ATOM     14  O   UNL     1       4.095   2.215  21.254  0.00  0.00    +0.000 OA
ATOM     15  H   UNL     1       1.483   3.889  20.476  0.00  0.00    +0.000 HD
BRANCH  12  16
ATOM     16  N   UNL     1       1.493   2.651  22.163  0.00  0.00    +0.000 NA
ATOM     17  H   UNL     1       2.189   2.472  22.888  0.00  0.00    +0.000 HD
ATOM     18  H   UNL     1       1.227   1.728  21.800  0.00  0.00    +0.000 HD
ENDBRANCH  12  16
ENDBRANCH   1  13
BRANCH   1  19
ATOM     19  N   UNL     1       3.586   5.176  19.470  0.00  0.00    +0.000 N 
ATOM     20  C   UNL     1       2.448   5.600  18.782  0.00  0.00    +0.000 C 
ATOM     21  O   UNL     1       1.684   4.877  18.154  0.00  0.00    +0.000 OA
ATOM     22  H   UNL     1       3.570   5.597  20.397  0.00  0.00    +0.000 HD
BRANCH  20  23
ATOM     23  C   UNL     1       2.182   7.066  18.879  0.00  0.00    +0.000 A 
ATOM     24  C   UNL     1       2.330   7.872  17.742  0.00  0.00    +0.000 A 
ATOM     25  C   UNL     1       2.002   9.228  17.795  0.00  0.00    +0.000 A 
ATOM     26  C   UNL     1       1.528   9.779  18.984  0.00  0.00    +0.000 A 
ATOM     27 BR   UNL     1       1.038  11.605  19.031  0.00  0.00    +0.000 Br
ATOM     28  C   UNL     1       1.393   8.989  20.127  0.00  0.00    +0.000 A 
ATOM     29  C   UNL     1       1.714   7.628  20.074  0.00  0.00    +0.000 A 
ENDBRANCH  20  23
ENDBRANCH   1  19
TORSDOF 6
ENDMDL
MODEL 4
REMARK VINA RESULT:      -7.6      3.789      6.045
REMARK  Name = 
REMARK  6 active torsions:
REMARK  status: ('A' for Active; 'I' for Inactive)
REMARK    1  A    between atoms: N_1  and  N_2
REMARK    2  A    between atoms: C_3  and  C_5
REMARK    3  A    between atoms: C_5  and  N_16
REMARK    4  A    between atoms: C_6  and  C_7
REMARK    5  A    between atoms: C_10  and  N_11
REMARK    6  A    between atoms: C_17  and  C_19
REMARK                            x       y       z     vdW  Elec       q    Type
REMARK                         _______ _______ _______ _____ _____    ______ ____
ROOT
ATOM      1  C   UNL     1       3.526   4.031  19.786  0.00  0.00    +0.000 C 
ATOM      2  C   UNL     1       2.815   4.981  20.418  0.00  0.00    +0.000 C 
ENDROOT
BRANCH   2   3
ATOM      3  C   UNL     1       2.315   6.240  19.852  0.00  0.00    +0.000 A 
ATOM      4  C   UNL     1       1.710   7.193  20.684  0.00  0.00    +0.000 A 
ATOM      5  C   UNL     1       1.392   8.463  20.189  0.00  0.00    +0.000 A 
ATOM      6  C   UNL     1       1.686   8.775  18.855  0.00  0.00    +0.000 A 
ATOM      7  C   UNL     1       2.254   7.815  18.008  0.00  0.00    +0.000 A 
ATOM      8  C   UNL     1       2.565   6.549  18.512  0.00  0.00    +0.000 A 
BRANCH   6   9
ATOM      9  N   UNL     1       1.440  10.134  18.354  0.00  0.00    +0.000 N 
ATOM     10  O   UNL     1       2.293  10.638  17.611  0.00  0.00    +0.000 OA
ATOM     11  O   UNL     1       0.385  10.691  18.690  0.00  0.00    +0.000 OA
ENDBRANCH   6   9
ENDBRANCH   2   3
BRANCH   1  13
ATOM     12  N   UNL     1       4.932   2.012  19.904  0.00  0.00    +0.000 N 
ATOM     13  C   UNL     1       3.867   2.719  20.461  0.00  0.00    +0.000 C 
ATOM     14  O   UNL     1       3.260   2.364  21.472  0.00  0.00    +0.000 OA
ATOM     15  H   UNL     1       5.545   2.469  19.236  0.00  0.00    +0.000 HD
BRANCH  12  16
ATOM     16  N   UNL     1       5.379   0.821  20.515  0.00  0.00    +0.000 NA
ATOM     17  H   UNL     1       4.587   0.196  20.668  0.00  0.00    +0.000 HD
ATOM     18  H   UNL     1       5.723   1.067  21.452  0.00  0.00    +0.000 HD
ENDBRANCH  12  16
ENDBRANCH   1  13
BRANCH   1  19
ATOM     19  N   UNL     1       4.025   4.184  18.501  0.00  0.00    +0.000 N 
ATOM     20  C   UNL     1       5.360   4.544  18.314  0.00  0.00    +0.000 C 
ATOM     21  O   UNL     1       6.166   4.780  19.205  0.00  0.00    +0.000 OA
ATOM     22  H   UNL     1       3.829   3.378  17.909  0.00  0.00    +0.000 HD
BRANCH  20  23
ATOM     23  C   UNL     1       5.784   4.609  16.884  0.00  0.00    +0.000 A 
ATOM     24  C   UNL     1       7.097   4.987  16.568  0.00  0.00    +0.000 A 
ATOM     25  C   UNL     1       7.533   4.968  15.242  0.00  0.00    +0.000 A 
ATOM     26  C   UNL     1       6.658   4.574  14.232  0.00  0.00    +0.000 A 
ATOM     27 BR   UNL     1       7.275   4.503  12.445  0.00  0.00    +0.000 Br
ATOM     28  C   UNL     1       5.344   4.212  14.533  0.00  0.00    +0.000 A 
ATOM     29  C   UNL     1       4.907   4.223  15.862  0.00  0.00    +0.000 A 
ENDBRANCH  20  23
ENDBRANCH   1  19
TORSDOF 6
ENDMDL
MODEL 5
REMARK VINA RESULT:      -7.4      1.256      1.355
REMARK  Name = 
REMARK  6 active torsions:
REMARK  status: ('A' for Active; 'I' for Inactive)
REMARK    1  A    between atoms: N_1  and  N_2
REMARK    2  A    between atoms: C_3  and  C_5
REMARK    3  A    between atoms: C_5  and  N_16
REMARK    4  A    between atoms: C_6  and  C_7
REMARK    5  A    between atoms: C_10  and  N_11
REMARK    6  A    between atoms: C_17  and  C_19
REMARK                            x       y       z     vdW  Elec       q    Type
REMARK                         _______ _______ _______ _____ _____    ______ ____
ROOT
ATOM      1  C   UNL     1       4.973   4.425  19.010  0.00  0.00    +0.000 C 
ATOM      2  C   UNL     1       6.175   4.592  18.432  0.00  0.00    +0.000 C 
ENDROOT
BRANCH   2   3
ATOM      3  C   UNL     1       6.915   5.850  18.273  0.00  0.00    +0.000 A 
ATOM      4  C   UNL     1       6.490   6.803  17.335  0.00  0.00    +0.000 A 
ATOM      5  C   UNL     1       7.080   8.072  17.300  0.00  0.00    +0.000 A 
ATOM      6  C   UNL     1       8.097   8.384  18.212  0.00  0.00    +0.000 A 
ATOM      7  C   UNL     1       8.554   7.425  19.125  0.00  0.00    +0.000 A 
ATOM      8  C   UNL     1       7.960   6.159  19.150  0.00  0.00    +0.000 A 
BRANCH   6   9
ATOM      9  N   UNL     1       8.656   9.742  18.242  0.00  0.00    +0.000 N 
ATOM     10  O   UNL     1       9.533   9.986  19.082  0.00  0.00    +0.000 OA
ATOM     11  O   UNL     1       8.231  10.560  17.413  0.00  0.00    +0.000 OA
ENDBRANCH   6   9
ENDBRANCH   2   3
BRANCH   1  13
ATOM     12  N   UNL     1       3.397   2.666  18.309  0.00  0.00    +0.000 N 
ATOM     13  C   UNL     1       4.383   3.046  19.219  0.00  0.00    +0.000 C 
ATOM     14  O   UNL     1       4.817   2.312  20.108  0.00  0.00    +0.000 OA
ATOM     15  H   UNL     1       3.262   3.205  17.460  0.00  0.00    +0.000 HD
BRANCH  12  16
ATOM     16  N   UNL     1       2.850   1.367  18.370  0.00  0.00    +0.000 NA
ATOM     17  H   UNL     1       3.563   0.682  18.116  0.00  0.00    +0.000 HD
ATOM     18  H   UNL     1       2.130   1.303  17.639  0.00  0.00    +0.000 HD
ENDBRANCH  12  16
ENDBRANCH   1  13
BRANCH   1  19
ATOM     19  N   UNL     1       4.175   5.480  19.426  0.00  0.00    +0.000 N 
ATOM     20  C   UNL     1       3.199   5.990  18.569  0.00  0.00    +0.000 C 
ATOM     21  O   UNL     1       2.983   5.607  17.427  0.00  0.00    +0.000 OA
ATOM     22  H   UNL     1       3.742   5.307  20.332  0.00  0.00    +0.000 HD
BRANCH  20  23
ATOM     23  C   UNL     1       2.367   7.078  19.164  0.00  0.00    +0.000 A 
ATOM     24  C   UNL     1       1.916   6.959  20.486  0.00  0.00    +0.000 A 
ATOM     25  C   UNL     1       1.212   8.005  21.085  0.00  0.00    +0.000 A 
ATOM     26  C   UNL     1       0.956   9.169  20.362  0.00  0.00    +0.000 A 
ATOM     27 BR   UNL     1       0.046  10.601  21.199  0.00  0.00    +0.000 Br
ATOM     28  C   UNL     1       1.386   9.291  19.040  0.00  0.00    +0.000 A 
ATOM     29  C   UNL     1       2.099   8.247  18.440  0.00  0.00    +0.000 A 
ENDBRANCH  20  23
ENDBRANCH   1  19
TORSDOF 6
ENDMDL
MODEL 6
REMARK VINA RESULT:      -7.4      1.223      1.727
REMARK  Name = 
REMARK  6 active torsions:
REMARK  status: ('A' for Active; 'I' for Inactive)
REMARK    1  A    between atoms: N_1  and  N_2
REMARK    2  A    between atoms: C_3  and  C_5
REMARK    3  A    between atoms: C_5  and  N_16
REMARK    4  A    between atoms: C_6  and  C_7
REMARK    5  A    between atoms: C_10  and  N_11
REMARK    6  A    between atoms: C_17  and  C_19
REMARK                            x       y       z     vdW  Elec       q    Type
REMARK                         _______ _______ _______ _____ _____    ______ ____
ROOT
ATOM      1  C   UNL     1       3.434   4.059  17.853  0.00  0.00    +0.000 C 
ATOM      2  C   UNL     1       4.751   3.943  17.608  0.00  0.00    +0.000 C 
ENDROOT
BRANCH   2   3
ATOM      3  C   UNL     1       5.753   5.016  17.615  0.00  0.00    +0.000 A 
ATOM      4  C   UNL     1       5.657   6.073  16.697  0.00  0.00    +0.000 A 
ATOM      5  C   UNL     1       6.500   7.184  16.809  0.00  0.00    +0.000 A 
ATOM      6  C   UNL     1       7.439   7.234  17.849  0.00  0.00    +0.000 A 
ATOM      7  C   UNL     1       7.568   6.164  18.744  0.00  0.00    +0.000 A 
ATOM      8  C   UNL     1       6.723   5.057  18.621  0.00  0.00    +0.000 A 
BRANCH   6   9
ATOM      9  N   UNL     1       8.263   8.437  18.028  0.00  0.00    +0.000 N 
ATOM     10  O   UNL     1       8.189   9.320  17.162  0.00  0.00    +0.000 OA
ATOM     11  O   UNL     1       8.972   8.506  19.042  0.00  0.00    +0.000 OA
ENDBRANCH   6   9
ENDBRANCH   2   3
BRANCH   1  13
ATOM     12  N   UNL     1       1.249   3.075  18.421  0.00  0.00    +0.000 N 
ATOM     13  C   UNL     1       2.536   2.843  17.938  0.00  0.00    +0.000 C 
ATOM     14  O   UNL     1       2.933   1.748  17.538  0.00  0.00    +0.000 OA
ATOM     15  H   UNL     1       0.904   4.026  18.497  0.00  0.00    +0.000 HD
BRANCH  12  16
ATOM     16  N   UNL     1       0.312   2.020  18.456  0.00  0.00    +0.000 NA
ATOM     17  H   UNL     1      -0.284   2.063  17.629  0.00  0.00    +0.000 HD
ATOM     18  H   UNL     1      -0.310   2.188  19.256  0.00  0.00    +0.000 HD
ENDBRANCH  12  16
ENDBRANCH   1  13
BRANCH   1  19
ATOM     19  N   UNL     1       2.796   5.280  18.011  0.00  0.00    +0.000 N 
ATOM     20  C   UNL     1       2.910   5.970  19.219  0.00  0.00    +0.000 C 
ATOM     21  O   UNL     1       3.516   5.580  20.208  0.00  0.00    +0.000 OA
ATOM     22  H   UNL     1       3.006   5.930  17.255  0.00  0.00    +0.000 HD
BRANCH  20  23
ATOM     23  C   UNL     1       2.231   7.300  19.233  0.00  0.00    +0.000 A 
ATOM     24  C   UNL     1       2.119   8.032  18.042  0.00  0.00    +0.000 A 
ATOM     25  C   UNL     1       1.412   9.235  18.021  0.00  0.00    +0.000 A 
ATOM     26  C   UNL     1       0.819   9.709  19.190  0.00  0.00    +0.000 A 
ATOM     27 BR   UNL     1      -0.180  11.314  19.140  0.00  0.00    +0.000 Br
ATOM     28  C   UNL     1       0.939   8.997  20.385  0.00  0.00    +0.000 A 
ATOM     29  C   UNL     1       1.641   7.787  20.406  0.00  0.00    +0.000 A 
ENDBRANCH  20  23
ENDBRANCH   1  19
TORSDOF 6
ENDMDL
MODEL 7
REMARK VINA RESULT:      -7.4      2.587      3.286
REMARK  Name = 
REMARK  6 active torsions:
REMARK  status: ('A' for Active; 'I' for Inactive)
REMARK    1  A    between atoms: N_1  and  N_2
REMARK    2  A    between atoms: C_3  and  C_5
REMARK    3  A    between atoms: C_5  and  N_16
REMARK    4  A    between atoms: C_6  and  C_7
REMARK    5  A    between atoms: C_10  and  N_11
REMARK    6  A    between atoms: C_17  and  C_19
REMARK                            x       y       z     vdW  Elec       q    Type
REMARK                         _______ _______ _______ _____ _____    ______ ____
ROOT
ATOM      1  C   UNL     1       2.289   3.613  19.441  0.00  0.00    +0.000 C 
ATOM      2  C   UNL     1       3.337   2.983  18.881  0.00  0.00    +0.000 C 
ENDROOT
BRANCH   2   3
ATOM      3  C   UNL     1       4.430   3.590  18.111  0.00  0.00    +0.000 A 
ATOM      4  C   UNL     1       4.346   3.668  16.713  0.00  0.00    +0.000 A 
ATOM      5  C   UNL     1       5.294   4.399  15.987  0.00  0.00    +0.000 A 
ATOM      6  C   UNL     1       6.327   5.053  16.671  0.00  0.00    +0.000 A 
ATOM      7  C   UNL     1       6.441   4.947  18.063  0.00  0.00    +0.000 A 
ATOM      8  C   UNL     1       5.489   4.212  18.777  0.00  0.00    +0.000 A 
BRANCH   6   9
ATOM      9  N   UNL     1       7.272   5.896  15.926  0.00  0.00    +0.000 N 
ATOM     10  O   UNL     1       7.682   6.928  16.476  0.00  0.00    +0.000 OA
ATOM     11  O   UNL     1       7.618   5.518  14.798  0.00  0.00    +0.000 OA
ENDBRANCH   6   9
ENDBRANCH   2   3
BRANCH   1  13
ATOM     12  N   UNL     1       1.672   2.728  21.655  0.00  0.00    +0.000 N 
ATOM     13  C   UNL     1       1.301   2.875  20.319  0.00  0.00    +0.000 C 
ATOM     14  O   UNL     1       0.222   2.499  19.860  0.00  0.00    +0.000 OA
ATOM     15  H   UNL     1       2.446   3.271  22.025  0.00  0.00    +0.000 HD
BRANCH  12  16
ATOM     16  N   UNL     1       0.778   2.131  22.569  0.00  0.00    +0.000 NA
ATOM     17  H   UNL     1       0.165   1.481  22.074  0.00  0.00    +0.000 HD
ATOM     18  H   UNL     1       0.165   2.873  22.928  0.00  0.00    +0.000 HD
ENDBRANCH  12  16
ENDBRANCH   1  13
BRANCH   1  19
ATOM     19  N   UNL     1       2.014   4.957  19.238  0.00  0.00    +0.000 N 
ATOM     20  C   UNL     1       2.160   5.861  20.291  0.00  0.00    +0.000 C 
ATOM     21  O   UNL     1       2.491   5.575  21.435  0.00  0.00    +0.000 OA
ATOM     22  H   UNL     1       2.501   5.336  18.427  0.00  0.00    +0.000 HD
BRANCH  20  23
ATOM     23  C   UNL     1       1.898   7.283  19.921  0.00  0.00    +0.000 A 
ATOM     24  C   UNL     1       2.210   7.731  18.629  0.00  0.00    +0.000 A 
ATOM     25  C   UNL     1       1.891   9.032  18.240  0.00  0.00    +0.000 A 
ATOM     26  C   UNL     1       1.261   9.889  19.142  0.00  0.00    +0.000 A 
ATOM     27 BR   UNL     1       0.787  11.634  18.589  0.00  0.00    +0.000 Br
ATOM     28  C   UNL     1       0.961   9.459  20.436  0.00  0.00    +0.000 A 
ATOM     29  C   UNL     1       1.273   8.152  20.825  0.00  0.00    +0.000 A 
ENDBRANCH  20  23
ENDBRANCH   1  19
TORSDOF 6
ENDMDL
MODEL 8
REMARK VINA RESULT:      -7.2      1.334      1.783
REMARK  Name = 
REMARK  6 active torsions:
REMARK  status: ('A' for Active; 'I' for Inactive)
REMARK    1  A    between atoms: N_1  and  N_2
REMARK    2  A    between atoms: C_3  and  C_5
REMARK    3  A    between atoms: C_5  and  N_16
REMARK    4  A    between atoms: C_6  and  C_7
REMARK    5  A    between atoms: C_10  and  N_11
REMARK    6  A    between atoms: C_17  and  C_19
REMARK                            x       y       z     vdW  Elec       q    Type
REMARK                         _______ _______ _______ _____ _____    ______ ____
ROOT
ATOM      1  C   UNL     1       4.666   4.275  19.073  0.00  0.00    +0.000 C 
ATOM      2  C   UNL     1       5.846   4.389  18.439  0.00  0.00    +0.000 C 
ENDROOT
BRANCH   2   3
ATOM      3  C   UNL     1       6.654   5.605  18.281  0.00  0.00    +0.000 A 
ATOM      4  C   UNL     1       6.281   6.581  17.346  0.00  0.00    +0.000 A 
ATOM      5  C   UNL     1       6.939   7.816  17.311  0.00  0.00    +0.000 A 
ATOM      6  C   UNL     1       7.973   8.070  18.223  0.00  0.00    +0.000 A 
ATOM      7  C   UNL     1       8.378   7.085  19.133  0.00  0.00    +0.000 A 
ATOM      8  C   UNL     1       7.716   5.854  19.156  0.00  0.00    +0.000 A 
BRANCH   6   9
ATOM      9  N   UNL     1       8.606   9.395  18.254  0.00  0.00    +0.000 N 
ATOM     10  O   UNL     1       8.300  10.201  17.364  0.00  0.00    +0.000 OA
ATOM     11  O   UNL     1       9.396   9.637  19.178  0.00  0.00    +0.000 OA
ENDBRANCH   6   9
ENDBRANCH   2   3
BRANCH   1  13
ATOM     12  N   UNL     1       2.843   2.711  18.526  0.00  0.00    +0.000 N 
ATOM     13  C   UNL     1       4.003   2.928  19.269  0.00  0.00    +0.000 C 
ATOM     14  O   UNL     1       4.520   2.081  19.998  0.00  0.00    +0.000 OA
ATOM     15  H   UNL     1       2.608   3.340  17.764  0.00  0.00    +0.000 HD
BRANCH  12  16
ATOM     16  N   UNL     1       2.202   1.455  18.577  0.00  0.00    +0.000 NA
ATOM     17  H   UNL     1       2.833   0.734  18.223  0.00  0.00    +0.000 HD
ATOM     18  H   UNL     1       1.416   1.484  17.916  0.00  0.00    +0.000 HD
ENDBRANCH  12  16
ENDBRANCH   1  13
BRANCH   1  19
ATOM     19  N   UNL     1       3.956   5.362  19.560  0.00  0.00    +0.000 N 
ATOM     20  C   UNL     1       3.054   6.029  18.730  0.00  0.00    +0.000 C 
ATOM     21  O   UNL     1       2.835   5.763  17.555  0.00  0.00    +0.000 OA
ATOM     22  H   UNL     1       3.484   5.155  20.439  0.00  0.00    +0.000 HD
BRANCH  20  23
ATOM     23  C   UNL     1       2.309   7.136  19.399  0.00  0.00    +0.000 A 
ATOM     24  C   UNL     1       2.074   8.331  18.703  0.00  0.00    +0.000 A 
ATOM     25  C   UNL     1       1.304   9.341  19.282  0.00  0.00    +0.000 A 
ATOM     26  C   UNL     1       0.771   9.160  20.557  0.00  0.00    +0.000 A 
ATOM     27 BR   UNL     1      -0.313  10.514  21.312  0.00  0.00    +0.000 Br
ATOM     28  C   UNL     1       1.012   7.981  21.265  0.00  0.00    +0.000 A 
ATOM     29  C   UNL     1       1.777   6.964  20.683  0.00  0.00    +0.000 A 
ENDBRANCH  20  23
ENDBRANCH   1  19
TORSDOF 6
ENDMDL
MODEL 9
REMARK VINA RESULT:      -7.2      1.300      1.519
REMARK  Name = 
REMARK  6 active torsions:
REMARK  status: ('A' for Active; 'I' for Inactive)
REMARK    1  A    between atoms: N_1  and  N_2
REMARK    2  A    between atoms: C_3  and  C_5
REMARK    3  A    between atoms: C_5  and  N_16
REMARK    4  A    between atoms: C_6  and  C_7
REMARK    5  A    between atoms: C_10  and  N_11
REMARK    6  A    between atoms: C_17  and  C_19
REMARK                            x       y       z     vdW  Elec       q    Type
REMARK                         _______ _______ _______ _____ _____    ______ ____
ROOT
ATOM      1  C   UNL     1       3.184   4.181  17.817  0.00  0.00    +0.000 C 
ATOM      2  C   UNL     1       4.496   4.003  17.586  0.00  0.00    +0.000 C 
ENDROOT
BRANCH   2   3
ATOM      3  C   UNL     1       5.545   5.030  17.589  0.00  0.00    +0.000 A 
ATOM      4  C   UNL     1       5.464   6.120  16.709  0.00  0.00    +0.000 A 
ATOM      5  C   UNL     1       6.360   7.190  16.825  0.00  0.00    +0.000 A 
ATOM      6  C   UNL     1       7.336   7.164  17.830  0.00  0.00    +0.000 A 
ATOM      7  C   UNL     1       7.448   6.061  18.687  0.00  0.00    +0.000 A 
ATOM      8  C   UNL     1       6.550   4.997  18.560  0.00  0.00    +0.000 A 
BRANCH   6   9
ATOM      9  N   UNL     1       8.219   8.323  18.016  0.00  0.00    +0.000 N 
ATOM     10  O   UNL     1       8.222   9.193  17.134  0.00  0.00    +0.000 OA
ATOM     11  O   UNL     1       8.897   8.373  19.053  0.00  0.00    +0.000 OA
ENDBRANCH   6   9
ENDBRANCH   2   3
BRANCH   1  13
ATOM     12  N   UNL     1       1.219   3.123  18.860  0.00  0.00    +0.000 N 
ATOM     13  C   UNL     1       2.232   3.007  17.908  0.00  0.00    +0.000 C 
ATOM     14  O   UNL     1       2.340   2.057  17.132  0.00  0.00    +0.000 OA
ATOM     15  H   UNL     1       1.033   4.024  19.289  0.00  0.00    +0.000 HD
BRANCH  12  16
ATOM     16  N   UNL     1       0.233   2.119  18.960  0.00  0.00    +0.000 NA
ATOM     17  H   UNL     1      -0.023   1.795  18.026  0.00  0.00    +0.000 HD
ATOM     18  H   UNL     1      -0.614   2.557  19.343  0.00  0.00    +0.000 HD
ENDBRANCH  12  16
ENDBRANCH   1  13
BRANCH   1  19
ATOM     19  N   UNL     1       2.599   5.431  17.955  0.00  0.00    +0.000 N 
ATOM     20  C   UNL     1       2.638   6.082  19.189  0.00  0.00    +0.000 C 
ATOM     21  O   UNL     1       3.130   5.633  20.216  0.00  0.00    +0.000 OA
ATOM     22  H   UNL     1       2.911   6.088  17.241  0.00  0.00    +0.000 HD
BRANCH  20  23
ATOM     23  C   UNL     1       2.033   7.447  19.182  0.00  0.00    +0.000 A 
ATOM     24  C   UNL     1       1.507   7.976  20.369  0.00  0.00    +0.000 A 
ATOM     25  C   UNL     1       1.018   9.283  20.400  0.00  0.00    +0.000 A 
ATOM     26  C   UNL     1       1.049  10.060  19.244  0.00  0.00    +0.000 A 
ATOM     27 BR   UNL     1       0.430  11.846  19.307  0.00  0.00    +0.000 Br
ATOM     28  C   UNL     1       1.555   9.537  18.052  0.00  0.00    +0.000 A 
ATOM     29  C   UNL     1       2.054   8.230  18.021  0.00  0.00    +0.000 A 
ENDBRANCH  20  23
ENDBRANCH   1  19
TORSDOF 6
ENDMDL
