MODEL 1
REMARK VINA RESULT:      -7.2      0.000      0.000
REMARK  Name = 
REMARK  11 active torsions:
REMARK  status: ('A' for Active; 'I' for Inactive)
REMARK    1  A    between atoms: C_1  and  C_2
REMARK    2  A    between atoms: C_2  and  N_3
REMARK    3  A    between atoms: N_3  and  C_4
REMARK    4  A    between atoms: N_3  and  C_6
REMARK    5  A    between atoms: C_4  and  C_5
REMARK    6  A    between atoms: C_6  and  C_7
REMARK    7  A    between atoms: C_9  and  N_10
REMARK    8  A    between atoms: N_10  and  C_11
REMARK    9  A    between atoms: C_24  and  O_25
REMARK   10  A    between atoms: O_25  and  C_26
REMARK   11  A    between atoms: C_30  and  O_31
REMARK                            x       y       z     vdW  Elec       q    Type
REMARK                         _______ _______ _______ _____ _____    ______ ____
ROOT
ATOM      1  C   UNL     1       0.236  11.694  18.505  0.00  0.00    +0.000 A 
ATOM      2  C   UNL     1       1.091  12.726  19.002  0.00  0.00    +0.000 A 
ATOM      3  C   UNL     1       2.449  12.833  18.617  0.00  0.00    +0.000 A 
ATOM      4  C   UNL     1       3.236  13.899  19.049  0.00  0.00    +0.000 A 
ATOM      5  C   UNL     1       2.700  14.869  19.891  0.00  0.00    +0.000 A 
ATOM      6 CL   UNL     1       3.689  16.222  20.404  0.00  0.00    +0.000 Cl
ATOM      7  C   UNL     1       1.366  14.777  20.300  0.00  0.00    +0.000 A 
ATOM      8  C   UNL     1       0.561  13.724  19.845  0.00  0.00    +0.000 A 
ATOM      9  N   UNL     1      -0.743  13.695  20.192  0.00  0.00    +0.000 NA
ATOM     10  C   UNL     1      -1.615  12.807  19.659  0.00  0.00    +0.000 A 
ATOM     11  C   UNL     1      -2.959  12.909  20.022  0.00  0.00    +0.000 A 
ATOM     12  C   UNL     1      -3.912  12.097  19.425  0.00  0.00    +0.000 A 
ATOM     13  C   UNL     1      -3.538  11.202  18.431  0.00  0.00    +0.000 A 
ATOM     14  C   UNL     1      -2.183  11.044  18.064  0.00  0.00    +0.000 A 
ATOM     15  C   UNL     1      -1.175  11.826  18.722  0.00  0.00    +0.000 A 
ENDROOT
BRANCH   1  16
ATOM     16  N   UNL     1       0.816  10.562  17.824  0.00  0.00    +0.000 N 
ATOM     17  H   UNL     1       0.820  10.499  16.802  0.00  0.00    +0.000 HD
BRANCH  16  20
ATOM     18  C   UNL     1       2.499   7.244  18.586  0.00  0.00    +0.000 A 
ATOM     19  C   UNL     1       2.081   8.399  17.887  0.00  0.00    +0.000 A 
ATOM     20  C   UNL     1       1.340   9.420  18.535  0.00  0.00    +0.000 A 
ATOM     21  C   UNL     1       1.099   9.294  19.908  0.00  0.00    +0.000 A 
ATOM     22  C   UNL     1       1.485   8.141  20.601  0.00  0.00    +0.000 A 
ATOM     23  C   UNL     1       2.154   7.101  19.939  0.00  0.00    +0.000 A 
BRANCH  23  24
ATOM     24  O   UNL     1       2.472   5.967  20.599  0.00  0.00    +0.000 OA
ATOM     25  H   UNL     1       2.204   5.092  20.282  0.00  0.00    +0.000 HD
ENDBRANCH  23  24
BRANCH  18  26
ATOM     26  C   UNL     1       3.290   6.156  17.876  0.00  0.00    +0.000 C 
BRANCH  26  27
ATOM     27  N   UNL     1       4.719   6.147  18.271  0.00  0.00    +0.000 NA
BRANCH  27  29
ATOM     28  C   UNL     1       4.296   3.661  17.980  0.00  0.00    +0.000 C 
ATOM     29  C   UNL     1       5.125   4.765  18.636  0.00  0.00    +0.000 C 
ENDBRANCH  27  29
BRANCH  27  30
ATOM     30  C   UNL     1       5.582   6.814  17.255  0.00  0.00    +0.000 C 
ATOM     31  C   UNL     1       7.086   6.544  17.405  0.00  0.00    +0.000 C 
ENDBRANCH  27  30
ENDBRANCH  26  27
ENDBRANCH  18  26
ENDBRANCH  16  20
ENDBRANCH   1  16
BRANCH  14  32
ATOM     32  O   UNL     1      -1.849  10.243  17.020  0.00  0.00    +0.000 OA
ATOM     33  C   UNL     1      -2.664   9.931  15.947  0.00  0.00    +0.000 C 
ENDBRANCH  14  32
TORSDOF 8
ENDMDL
MODEL 2
REMARK VINA RESULT:      -7.1      1.040      1.365
REMARK  Name = 
REMARK  11 active torsions:
REMARK  status: ('A' for Active; 'I' for Inactive)
REMARK    1  A    between atoms: C_1  and  C_2
REMARK    2  A    between atoms: C_2  and  N_3
REMARK    3  A    between atoms: N_3  and  C_4
REMARK    4  A    between atoms: N_3  and  C_6
REMARK    5  A    between atoms: C_4  and  C_5
REMARK    6  A    between atoms: C_6  and  C_7
REMARK    7  A    between atoms: C_9  and  N_10
REMARK    8  A    between atoms: N_10  and  C_11
REMARK    9  A    between atoms: C_24  and  O_25
REMARK   10  A    between atoms: O_25  and  C_26
REMARK   11  A    between atoms: C_30  and  O_31
REMARK                            x       y       z     vdW  Elec       q    Type
REMARK                         _______ _______ _______ _____ _____    ______ ____
ROOT
ATOM      1  C   UNL     1      -0.310  11.700  18.810  0.00  0.00    +0.000 A 
ATOM      2  C   UNL     1       0.426  12.655  19.576  0.00  0.00    +0.000 A 
ATOM      3  C   UNL     1       1.824  12.825  19.429  0.00  0.00    +0.000 A 
ATOM      4  C   UNL     1       2.504  13.823  20.126  0.00  0.00    +0.000 A 
ATOM      5  C   UNL     1       1.815  14.660  21.000  0.00  0.00    +0.000 A 
ATOM      6 CL   UNL     1       2.673  15.931  21.848  0.00  0.00    +0.000 Cl
ATOM      7  C   UNL     1       0.438  14.501  21.176  0.00  0.00    +0.000 A 
ATOM      8  C   UNL     1      -0.257  13.519  20.456  0.00  0.00    +0.000 A 
ATOM      9  N   UNL     1      -1.597  13.433  20.584  0.00  0.00    +0.000 NA
ATOM     10  C   UNL     1      -2.350  12.625  19.801  0.00  0.00    +0.000 A 
ATOM     11  C   UNL     1      -3.736  12.667  19.957  0.00  0.00    +0.000 A 
ATOM     12  C   UNL     1      -4.561  11.942  19.109  0.00  0.00    +0.000 A 
ATOM     13  C   UNL     1      -4.011  11.201  18.071  0.00  0.00    +0.000 A 
ATOM     14  C   UNL     1      -2.612  11.106  17.905  0.00  0.00    +0.000 A 
ATOM     15  C   UNL     1      -1.741  11.791  18.817  0.00  0.00    +0.000 A 
ENDROOT
BRANCH   1  16
ATOM     16  N   UNL     1       0.401  10.681  18.076  0.00  0.00    +0.000 N 
ATOM     17  H   UNL     1       0.419  10.675  17.053  0.00  0.00    +0.000 HD
BRANCH  16  20
ATOM     18  C   UNL     1       2.426   7.525  18.678  0.00  0.00    +0.000 A 
ATOM     19  C   UNL     1       1.883   8.660  18.034  0.00  0.00    +0.000 A 
ATOM     20  C   UNL     1       1.048   9.570  18.732  0.00  0.00    +0.000 A 
ATOM     21  C   UNL     1       0.838   9.361  20.100  0.00  0.00    +0.000 A 
ATOM     22  C   UNL     1       1.349   8.225  20.739  0.00  0.00    +0.000 A 
ATOM     23  C   UNL     1       2.114   7.289  20.027  0.00  0.00    +0.000 A 
BRANCH  23  24
ATOM     24  O   UNL     1       2.554   6.167  20.634  0.00  0.00    +0.000 OA
ATOM     25  H   UNL     1       2.036   5.708  21.311  0.00  0.00    +0.000 HD
ENDBRANCH  23  24
BRANCH  18  26
ATOM     26  C   UNL     1       3.316   6.556  17.915  0.00  0.00    +0.000 C 
BRANCH  26  27
ATOM     27  N   UNL     1       3.139   5.154  18.362  0.00  0.00    +0.000 NA
BRANCH  27  29
ATOM     28  C   UNL     1       1.210   3.510  18.496  0.00  0.00    +0.000 C 
ATOM     29  C   UNL     1       1.964   4.558  17.677  0.00  0.00    +0.000 C 
ENDBRANCH  27  29
BRANCH  27  30
ATOM     30  C   UNL     1       4.402   4.371  18.252  0.00  0.00    +0.000 C 
ATOM     31  C   UNL     1       5.563   4.889  19.114  0.00  0.00    +0.000 C 
ENDBRANCH  27  30
ENDBRANCH  26  27
ENDBRANCH  18  26
ENDBRANCH  16  20
ENDBRANCH   1  16
BRANCH  14  32
ATOM     32  O   UNL     1      -2.096  10.465  16.825  0.00  0.00    +0.000 OA
ATOM     33  C   UNL     1      -2.668  10.414  15.565  0.00  0.00    +0.000 C 
ENDBRANCH  14  32
TORSDOF 8
ENDMDL
MODEL 3
REMARK VINA RESULT:      -7.1      0.858      1.040
REMARK  Name = 
REMARK  11 active torsions:
REMARK  status: ('A' for Active; 'I' for Inactive)
REMARK    1  A    between atoms: C_1  and  C_2
REMARK    2  A    between atoms: C_2  and  N_3
REMARK    3  A    between atoms: N_3  and  C_4
REMARK    4  A    between atoms: N_3  and  C_6
REMARK    5  A    between atoms: C_4  and  C_5
REMARK    6  A    between atoms: C_6  and  C_7
REMARK    7  A    between atoms: C_9  and  N_10
REMARK    8  A    between atoms: N_10  and  C_11
REMARK    9  A    between atoms: C_24  and  O_25
REMARK   10  A    between atoms: O_25  and  C_26
REMARK   11  A    between atoms: C_30  and  O_31
REMARK                            x       y       z     vdW  Elec       q    Type
REMARK                         _______ _______ _______ _____ _____    ______ ____
ROOT
ATOM      1  C   UNL     1       0.302  12.053  18.649  0.00  0.00    +0.000 A 
ATOM      2  C   UNL     1       1.328  13.024  18.862  0.00  0.00    +0.000 A 
ATOM      3  C   UNL     1       2.581  12.957  18.205  0.00  0.00    +0.000 A 
ATOM      4  C   UNL     1       3.531  13.964  18.365  0.00  0.00    +0.000 A 
ATOM      5  C   UNL     1       3.269  15.047  19.199  0.00  0.00    +0.000 A 
ATOM      6 CL   UNL     1       4.458  16.323  19.370  0.00  0.00    +0.000 Cl
ATOM      7  C   UNL     1       2.047  15.128  19.873  0.00  0.00    +0.000 A 
ATOM      8  C   UNL     1       1.076  14.134  19.693  0.00  0.00    +0.000 A 
ATOM      9  N   UNL     1      -0.124  14.270  20.295  0.00  0.00    +0.000 NA
ATOM     10  C   UNL     1      -1.163  13.441  20.036  0.00  0.00    +0.000 A 
ATOM     11  C   UNL     1      -2.388  13.713  20.649  0.00  0.00    +0.000 A 
ATOM     12  C   UNL     1      -3.512  12.962  20.336  0.00  0.00    +0.000 A 
ATOM     13  C   UNL     1      -3.432  11.959  19.379  0.00  0.00    +0.000 A 
ATOM     14  C   UNL     1      -2.203  11.630  18.766  0.00  0.00    +0.000 A 
ATOM     15  C   UNL     1      -1.016  12.350  19.130  0.00  0.00    +0.000 A 
ENDROOT
BRANCH   1  16
ATOM     16  N   UNL     1       0.626  10.817  17.978  0.00  0.00    +0.000 N 
ATOM     17  H   UNL     1       0.433  10.685  16.982  0.00  0.00    +0.000 HD
BRANCH  16  20
ATOM     18  C   UNL     1       2.271   7.475  18.719  0.00  0.00    +0.000 A 
ATOM     19  C   UNL     1       1.851   8.630  18.022  0.00  0.00    +0.000 A 
ATOM     20  C   UNL     1       1.152   9.673  18.684  0.00  0.00    +0.000 A 
ATOM     21  C   UNL     1       0.958   9.567  20.065  0.00  0.00    +0.000 A 
ATOM     22  C   UNL     1       1.346   8.414  20.758  0.00  0.00    +0.000 A 
ATOM     23  C   UNL     1       1.971   7.354  20.085  0.00  0.00    +0.000 A 
BRANCH  23  24
ATOM     24  O   UNL     1       2.290   6.221  20.747  0.00  0.00    +0.000 OA
ATOM     25  H   UNL     1       2.517   5.400  20.286  0.00  0.00    +0.000 HD
ENDBRANCH  23  24
BRANCH  18  26
ATOM     26  C   UNL     1       3.015   6.364  17.994  0.00  0.00    +0.000 C 
BRANCH  26  27
ATOM     27  N   UNL     1       4.486   6.481  18.141  0.00  0.00    +0.000 NA
BRANCH  27  29
ATOM     28  C   UNL     1       6.469   5.378  19.275  0.00  0.00    +0.000 C 
ATOM     29  C   UNL     1       5.015   5.269  18.818  0.00  0.00    +0.000 C 
ENDBRANCH  27  29
BRANCH  27  30
ATOM     30  C   UNL     1       5.148   6.828  16.851  0.00  0.00    +0.000 C 
ATOM     31  C   UNL     1       5.253   5.672  15.845  0.00  0.00    +0.000 C 
ENDBRANCH  27  30
ENDBRANCH  26  27
ENDBRANCH  18  26
ENDBRANCH  16  20
ENDBRANCH   1  16
BRANCH  14  32
ATOM     32  O   UNL     1      -2.166  10.721  17.759  0.00  0.00    +0.000 OA
ATOM     33  C   UNL     1      -3.124   9.755  17.504  0.00  0.00    +0.000 C 
ENDBRANCH  14  32
TORSDOF 8
ENDMDL
MODEL 4
REMARK VINA RESULT:      -7.0      3.271      7.912
REMARK  Name = 
REMARK  11 active torsions:
REMARK  status: ('A' for Active; 'I' for Inactive)
REMARK    1  A    between atoms: C_1  and  C_2
REMARK    2  A    between atoms: C_2  and  N_3
REMARK    3  A    between atoms: N_3  and  C_4
REMARK    4  A    between atoms: N_3  and  C_6
REMARK    5  A    between atoms: C_4  and  C_5
REMARK    6  A    between atoms: C_6  and  C_7
REMARK    7  A    between atoms: C_9  and  N_10
REMARK    8  A    between atoms: N_10  and  C_11
REMARK    9  A    between atoms: C_24  and  O_25
REMARK   10  A    between atoms: O_25  and  C_26
REMARK   11  A    between atoms: C_30  and  O_31
REMARK                            x       y       z     vdW  Elec       q    Type
REMARK                         _______ _______ _______ _____ _____    ______ ____
ROOT
ATOM      1  C   UNL     1       0.369  10.260  19.452  0.00  0.00    +0.000 A 
ATOM      2  C   UNL     1       1.207   9.177  19.044  0.00  0.00    +0.000 A 
ATOM      3  C   UNL     1       1.810   9.130  17.763  0.00  0.00    +0.000 A 
ATOM      4  C   UNL     1       2.693   8.107  17.422  0.00  0.00    +0.000 A 
ATOM      5  C   UNL     1       2.978   7.095  18.334  0.00  0.00    +0.000 A 
ATOM      6 CL   UNL     1       4.112   5.830  17.906  0.00  0.00    +0.000 Cl
ATOM      7  C   UNL     1       2.382   7.109  19.599  0.00  0.00    +0.000 A 
ATOM      8  C   UNL     1       1.517   8.151  19.959  0.00  0.00    +0.000 A 
ATOM      9  N   UNL     1       1.012   8.184  21.210  0.00  0.00    +0.000 NA
ATOM     10  C   UNL     1       0.308   9.241  21.679  0.00  0.00    +0.000 A 
ATOM     11  C   UNL     1      -0.104   9.215  23.013  0.00  0.00    +0.000 A 
ATOM     12  C   UNL     1      -0.734  10.315  23.576  0.00  0.00    +0.000 A 
ATOM     13  C   UNL     1      -0.922  11.468  22.823  0.00  0.00    +0.000 A 
ATOM     14  C   UNL     1      -0.552  11.519  21.461  0.00  0.00    +0.000 A 
ATOM     15  C   UNL     1       0.035  10.364  20.843  0.00  0.00    +0.000 A 
ENDROOT
BRANCH   1  16
ATOM     16  N   UNL     1      -0.120  11.189  18.463  0.00  0.00    +0.000 N 
ATOM     17  H   UNL     1       0.471  11.944  18.104  0.00  0.00    +0.000 HD
BRANCH  16  20
ATOM     18  C   UNL     1      -3.863  11.778  18.211  0.00  0.00    +0.000 A 
ATOM     19  C   UNL     1      -2.520  11.893  18.634  0.00  0.00    +0.000 A 
ATOM     20  C   UNL     1      -1.484  11.166  17.992  0.00  0.00    +0.000 A 
ATOM     21  C   UNL     1      -1.813  10.391  16.875  0.00  0.00    +0.000 A 
ATOM     22  C   UNL     1      -3.145  10.249  16.467  0.00  0.00    +0.000 A 
ATOM     23  C   UNL     1      -4.175  10.912  17.151  0.00  0.00    +0.000 A 
BRANCH  23  24
ATOM     24  O   UNL     1      -5.462  10.725  16.790  0.00  0.00    +0.000 OA
ATOM     25  H   UNL     1      -6.051  11.464  16.576  0.00  0.00    +0.000 HD
ENDBRANCH  23  24
BRANCH  18  26
ATOM     26  C   UNL     1      -4.963  12.561  18.912  0.00  0.00    +0.000 C 
BRANCH  26  27
ATOM     27  N   UNL     1      -5.601  11.786  20.003  0.00  0.00    +0.000 NA
BRANCH  27  29
ATOM     28  C   UNL     1      -4.148  12.932  21.740  0.00  0.00    +0.000 C 
ATOM     29  C   UNL     1      -5.555  12.570  21.263  0.00  0.00    +0.000 C 
ENDBRANCH  27  29
BRANCH  27  30
ATOM     30  C   UNL     1      -6.951  11.286  19.615  0.00  0.00    +0.000 C 
ATOM     31  C   UNL     1      -7.776  10.689  20.765  0.00  0.00    +0.000 C 
ENDBRANCH  27  30
ENDBRANCH  26  27
ENDBRANCH  18  26
ENDBRANCH  16  20
ENDBRANCH   1  16
BRANCH  14  32
ATOM     32  O   UNL     1      -0.647  12.685  20.773  0.00  0.00    +0.000 OA
ATOM     33  C   UNL     1       0.125  13.814  20.984  0.00  0.00    +0.000 C 
ENDBRANCH  14  32
TORSDOF 8
ENDMDL
MODEL 5
REMARK VINA RESULT:      -7.0      1.052      1.519
REMARK  Name = 
REMARK  11 active torsions:
REMARK  status: ('A' for Active; 'I' for Inactive)
REMARK    1  A    between atoms: C_1  and  C_2
REMARK    2  A    between atoms: C_2  and  N_3
REMARK    3  A    between atoms: N_3  and  C_4
REMARK    4  A    between atoms: N_3  and  C_6
REMARK    5  A    between atoms: C_4  and  C_5
REMARK    6  A    between atoms: C_6  and  C_7
REMARK    7  A    between atoms: C_9  and  N_10
REMARK    8  A    between atoms: N_10  and  C_11
REMARK    9  A    between atoms: C_24  and  O_25
REMARK   10  A    between atoms: O_25  and  C_26
REMARK   11  A    between atoms: C_30  and  O_31
REMARK                            x       y       z     vdW  Elec       q    Type
REMARK                         _______ _______ _______ _____ _____    ______ ____
ROOT
ATOM      1  C   UNL     1       0.405  11.811  18.530  0.00  0.00    +0.000 A 
ATOM      2  C   UNL     1       1.405  12.797  18.793  0.00  0.00    +0.000 A 
ATOM      3  C   UNL     1       2.692  12.743  18.207  0.00  0.00    +0.000 A 
ATOM      4  C   UNL     1       3.619  13.764  18.412  0.00  0.00    +0.000 A 
ATOM      5  C   UNL     1       3.297  14.849  19.224  0.00  0.00    +0.000 A 
ATOM      6 CL   UNL     1       4.458  16.141  19.452  0.00  0.00    +0.000 Cl
ATOM      7  C   UNL     1       2.039  14.917  19.829  0.00  0.00    +0.000 A 
ATOM      8  C   UNL     1       1.092  13.909  19.602  0.00  0.00    +0.000 A 
ATOM      9  N   UNL     1      -0.141  14.032  20.135  0.00  0.00    +0.000 NA
ATOM     10  C   UNL     1      -1.153  13.188  19.825  0.00  0.00    +0.000 A 
ATOM     11  C   UNL     1      -2.413  13.446  20.367  0.00  0.00    +0.000 A 
ATOM     12  C   UNL     1      -3.508  12.679  19.998  0.00  0.00    +0.000 A 
ATOM     13  C   UNL     1      -3.363  11.671  19.053  0.00  0.00    +0.000 A 
ATOM     14  C   UNL     1      -2.098  11.356  18.511  0.00  0.00    +0.000 A 
ATOM     15  C   UNL     1      -0.942  12.093  18.935  0.00  0.00    +0.000 A 
ENDROOT
BRANCH   1  16
ATOM     16  N   UNL     1       0.781  10.576  17.886  0.00  0.00    +0.000 N 
ATOM     17  H   UNL     1       0.620  10.425  16.886  0.00  0.00    +0.000 HD
BRANCH  16  20
ATOM     18  C   UNL     1       2.560   7.328  18.728  0.00  0.00    +0.000 A 
ATOM     19  C   UNL     1       2.126   8.464  18.008  0.00  0.00    +0.000 A 
ATOM     20  C   UNL     1       1.319   9.457  18.622  0.00  0.00    +0.000 A 
ATOM     21  C   UNL     1       1.027   9.324  19.984  0.00  0.00    +0.000 A 
ATOM     22  C   UNL     1       1.429   8.188  20.696  0.00  0.00    +0.000 A 
ATOM     23  C   UNL     1       2.165   7.174  20.066  0.00  0.00    +0.000 A 
BRANCH  23  24
ATOM     24  O   UNL     1       2.499   6.054  20.743  0.00  0.00    +0.000 OA
ATOM     25  H   UNL     1       1.843   5.522  21.217  0.00  0.00    +0.000 HD
ENDBRANCH  23  24
BRANCH  18  26
ATOM     26  C   UNL     1       3.421   6.270  18.054  0.00  0.00    +0.000 C 
BRANCH  26  27
ATOM     27  N   UNL     1       3.034   4.894  18.445  0.00  0.00    +0.000 NA
BRANCH  27  29
ATOM     28  C   UNL     1       1.030   3.340  18.354  0.00  0.00    +0.000 C 
ATOM     29  C   UNL     1       1.797   4.502  17.723  0.00  0.00    +0.000 C 
ENDBRANCH  27  29
BRANCH  27  30
ATOM     30  C   UNL     1       4.172   3.939  18.320  0.00  0.00    +0.000 C 
ATOM     31  C   UNL     1       4.459   3.105  19.577  0.00  0.00    +0.000 C 
ENDBRANCH  27  30
ENDBRANCH  26  27
ENDBRANCH  18  26
ENDBRANCH  16  20
ENDBRANCH   1  16
BRANCH  14  32
ATOM     32  O   UNL     1      -1.993  10.441  17.513  0.00  0.00    +0.000 OA
ATOM     33  C   UNL     1      -3.050   9.834  16.858  0.00  0.00    +0.000 C 
ENDBRANCH  14  32
TORSDOF 8
ENDMDL
MODEL 6
REMARK VINA RESULT:      -7.0      3.970      6.957
REMARK  Name = 
REMARK  11 active torsions:
REMARK  status: ('A' for Active; 'I' for Inactive)
REMARK    1  A    between atoms: C_1  and  C_2
REMARK    2  A    between atoms: C_2  and  N_3
REMARK    3  A    between atoms: N_3  and  C_4
REMARK    4  A    between atoms: N_3  and  C_6
REMARK    5  A    between atoms: C_4  and  C_5
REMARK    6  A    between atoms: C_6  and  C_7
REMARK    7  A    between atoms: C_9  and  N_10
REMARK    8  A    between atoms: N_10  and  C_11
REMARK    9  A    between atoms: C_24  and  O_25
REMARK   10  A    between atoms: O_25  and  C_26
REMARK   11  A    between atoms: C_30  and  O_31
REMARK                            x       y       z     vdW  Elec       q    Type
REMARK                         _______ _______ _______ _____ _____    ______ ____
ROOT
ATOM      1  C   UNL     1       2.538   6.110  18.556  0.00  0.00    +0.000 A 
ATOM      2  C   UNL     1       2.076   7.360  19.072  0.00  0.00    +0.000 A 
ATOM      3  C   UNL     1       2.123   8.555  18.313  0.00  0.00    +0.000 A 
ATOM      4  C   UNL     1       1.586   9.742  18.808  0.00  0.00    +0.000 A 
ATOM      5  C   UNL     1       1.012   9.776  20.076  0.00  0.00    +0.000 A 
ATOM      6 CL   UNL     1       0.313  11.266  20.677  0.00  0.00    +0.000 Cl
ATOM      7  C   UNL     1       0.969   8.614  20.852  0.00  0.00    +0.000 A 
ATOM      8  C   UNL     1       1.479   7.410  20.348  0.00  0.00    +0.000 A 
ATOM      9  N   UNL     1       1.360   6.285  21.084  0.00  0.00    +0.000 NA
ATOM     10  C   UNL     1       1.678   5.063  20.596  0.00  0.00    +0.000 A 
ATOM     11  C   UNL     1       1.443   3.952  21.407  0.00  0.00    +0.000 A 
ATOM     12  C   UNL     1       1.648   2.669  20.920  0.00  0.00    +0.000 A 
ATOM     13  C   UNL     1       2.051   2.483  19.603  0.00  0.00    +0.000 A 
ATOM     14  C   UNL     1       2.334   3.583  18.764  0.00  0.00    +0.000 A 
ATOM     15  C   UNL     1       2.196   4.918  19.275  0.00  0.00    +0.000 A 
ENDROOT
BRANCH   1  16
ATOM     16  N   UNL     1       3.334   6.092  17.353  0.00  0.00    +0.000 N 
ATOM     17  H   UNL     1       2.927   6.317  16.441  0.00  0.00    +0.000 HD
BRANCH  16  20
ATOM     18  C   UNL     1       6.764   4.970  16.170  0.00  0.00    +0.000 A 
ATOM     19  C   UNL     1       5.444   5.474  16.149  0.00  0.00    +0.000 A 
ATOM     20  C   UNL     1       4.715   5.673  17.350  0.00  0.00    +0.000 A 
ATOM     21  C   UNL     1       5.365   5.435  18.566  0.00  0.00    +0.000 A 
ATOM     22  C   UNL     1       6.663   4.910  18.595  0.00  0.00    +0.000 A 
ATOM     23  C   UNL     1       7.352   4.645  17.403  0.00  0.00    +0.000 A 
BRANCH  23  24
ATOM     24  O   UNL     1       8.580   4.085  17.437  0.00  0.00    +0.000 OA
ATOM     25  H   UNL     1       8.845   3.463  18.130  0.00  0.00    +0.000 HD
ENDBRANCH  23  24
BRANCH  18  26
ATOM     26  C   UNL     1       7.531   4.758  14.874  0.00  0.00    +0.000 C 
BRANCH  26  27
ATOM     27  N   UNL     1       6.644   4.757  13.687  0.00  0.00    +0.000 NA
BRANCH  27  29
ATOM     28  C   UNL     1       8.728   5.920  12.823  0.00  0.00    +0.000 C 
ATOM     29  C   UNL     1       7.399   5.237  12.501  0.00  0.00    +0.000 C 
ENDBRANCH  27  29
BRANCH  27  30
ATOM     30  C   UNL     1       5.950   3.449  13.510  0.00  0.00    +0.000 C 
ATOM     31  C   UNL     1       5.407   3.189  12.097  0.00  0.00    +0.000 C 
ENDBRANCH  27  30
ENDBRANCH  26  27
ENDBRANCH  18  26
ENDBRANCH  16  20
ENDBRANCH   1  16
BRANCH  14  32
ATOM     32  O   UNL     1       2.623   3.384  17.453  0.00  0.00    +0.000 OA
ATOM     33  C   UNL     1       3.194   2.244  16.915  0.00  0.00    +0.000 C 
ENDBRANCH  14  32
TORSDOF 8
ENDMDL
MODEL 7
REMARK VINA RESULT:      -6.9      3.231      8.505
REMARK  Name = 
REMARK  11 active torsions:
REMARK  status: ('A' for Active; 'I' for Inactive)
REMARK    1  A    between atoms: C_1  and  C_2
REMARK    2  A    between atoms: C_2  and  N_3
REMARK    3  A    between atoms: N_3  and  C_4
REMARK    4  A    between atoms: N_3  and  C_6
REMARK    5  A    between atoms: C_4  and  C_5
REMARK    6  A    between atoms: C_6  and  C_7
REMARK    7  A    between atoms: C_9  and  N_10
REMARK    8  A    between atoms: N_10  and  C_11
REMARK    9  A    between atoms: C_24  and  O_25
REMARK   10  A    between atoms: O_25  and  C_26
REMARK   11  A    between atoms: C_30  and  O_31
REMARK                            x       y       z     vdW  Elec       q    Type
REMARK                         _______ _______ _______ _____ _____    ______ ____
ROOT
ATOM      1  C   UNL     1       3.366   5.413  18.652  0.00  0.00    +0.000 A 
ATOM      2  C   UNL     1       4.356   5.403  17.622  0.00  0.00    +0.000 A 
ATOM      3  C   UNL     1       5.418   6.339  17.585  0.00  0.00    +0.000 A 
ATOM      4  C   UNL     1       6.419   6.253  16.619  0.00  0.00    +0.000 A 
ATOM      5  C   UNL     1       6.377   5.250  15.655  0.00  0.00    +0.000 A 
ATOM      6 CL   UNL     1       7.656   5.132  14.463  0.00  0.00    +0.000 Cl
ATOM      7  C   UNL     1       5.330   4.323  15.659  0.00  0.00    +0.000 A 
ATOM      8  C   UNL     1       4.336   4.386  16.645  0.00  0.00    +0.000 A 
ATOM      9  N   UNL     1       3.377   3.438  16.675  0.00  0.00    +0.000 NA
ATOM     10  C   UNL     1       2.487   3.339  17.690  0.00  0.00    +0.000 A 
ATOM     11  C   UNL     1       1.584   2.275  17.670  0.00  0.00    +0.000 A 
ATOM     12  C   UNL     1       0.723   2.062  18.736  0.00  0.00    +0.000 A 
ATOM     13  C   UNL     1       0.784   2.887  19.852  0.00  0.00    +0.000 A 
ATOM     14  C   UNL     1       1.658   3.996  19.894  0.00  0.00    +0.000 A 
ATOM     15  C   UNL     1       2.505   4.272  18.768  0.00  0.00    +0.000 A 
ENDROOT
BRANCH   1  16
ATOM     16  N   UNL     1       3.257   6.562  19.517  0.00  0.00    +0.000 N 
ATOM     17  H   UNL     1       3.746   6.601  20.416  0.00  0.00    +0.000 HD
BRANCH  16  20
ATOM     18  C   UNL     1       0.693   9.342  19.867  0.00  0.00    +0.000 A 
ATOM     19  C   UNL     1       1.605   8.317  20.207  0.00  0.00    +0.000 A 
ATOM     20  C   UNL     1       2.390   7.676  19.214  0.00  0.00    +0.000 A 
ATOM     21  C   UNL     1       2.299   8.138  17.896  0.00  0.00    +0.000 A 
ATOM     22  C   UNL     1       1.378   9.133  17.547  0.00  0.00    +0.000 A 
ATOM     23  C   UNL     1       0.551   9.713  18.521  0.00  0.00    +0.000 A 
BRANCH  23  24
ATOM     24  O   UNL     1      -0.376  10.629  18.169  0.00  0.00    +0.000 OA
ATOM     25  H   UNL     1      -0.152  11.560  18.020  0.00  0.00    +0.000 HD
ENDBRANCH  23  24
BRANCH  18  26
ATOM     26  C   UNL     1      -0.145  10.017  20.943  0.00  0.00    +0.000 C 
BRANCH  26  27
ATOM     27  N   UNL     1      -0.070  11.495  20.872  0.00  0.00    +0.000 NA
BRANCH  27  29
ATOM     28  C   UNL     1      -1.332  11.135  23.044  0.00  0.00    +0.000 C 
ATOM     29  C   UNL     1      -0.949  12.088  21.912  0.00  0.00    +0.000 C 
ENDBRANCH  27  29
BRANCH  27  30
ATOM     30  C   UNL     1       1.339  11.982  20.880  0.00  0.00    +0.000 C 
ATOM     31  C   UNL     1       1.656  13.064  19.836  0.00  0.00    +0.000 C 
ENDBRANCH  27  30
ENDBRANCH  26  27
ENDBRANCH  18  26
ENDBRANCH  16  20
ENDBRANCH   1  16
BRANCH  14  32
ATOM     32  O   UNL     1       1.778   4.727  21.032  0.00  0.00    +0.000 OA
ATOM     33  C   UNL     1       2.442   4.332  22.180  0.00  0.00    +0.000 C 
ENDBRANCH  14  32
TORSDOF 8
ENDMDL
MODEL 8
REMARK VINA RESULT:      -6.9      3.338      8.609
REMARK  Name = 
REMARK  11 active torsions:
REMARK  status: ('A' for Active; 'I' for Inactive)
REMARK    1  A    between atoms: C_1  and  C_2
REMARK    2  A    between atoms: C_2  and  N_3
REMARK    3  A    between atoms: N_3  and  C_4
REMARK    4  A    between atoms: N_3  and  C_6
REMARK    5  A    between atoms: C_4  and  C_5
REMARK    6  A    between atoms: C_6  and  C_7
REMARK    7  A    between atoms: C_9  and  N_10
REMARK    8  A    between atoms: N_10  and  C_11
REMARK    9  A    between atoms: C_24  and  O_25
REMARK   10  A    between atoms: O_25  and  C_26
REMARK   11  A    between atoms: C_30  and  O_31
REMARK                            x       y       z     vdW  Elec       q    Type
REMARK                         _______ _______ _______ _____ _____    ______ ____
ROOT
ATOM      1  C   UNL     1       3.403   5.390  18.663  0.00  0.00    +0.000 A 
ATOM      2  C   UNL     1       4.389   5.381  17.629  0.00  0.00    +0.000 A 
ATOM      3  C   UNL     1       5.448   6.319  17.586  0.00  0.00    +0.000 A 
ATOM      4  C   UNL     1       6.444   6.235  16.616  0.00  0.00    +0.000 A 
ATOM      5  C   UNL     1       6.400   5.231  15.651  0.00  0.00    +0.000 A 
ATOM      6 CL   UNL     1       7.673   5.115  14.454  0.00  0.00    +0.000 Cl
ATOM      7  C   UNL     1       5.355   4.303  15.661  0.00  0.00    +0.000 A 
ATOM      8  C   UNL     1       4.366   4.364  16.652  0.00  0.00    +0.000 A 
ATOM      9  N   UNL     1       3.409   3.414  16.687  0.00  0.00    +0.000 NA
ATOM     10  C   UNL     1       2.524   3.313  17.707  0.00  0.00    +0.000 A 
ATOM     11  C   UNL     1       1.623   2.247  17.691  0.00  0.00    +0.000 A 
ATOM     12  C   UNL     1       0.768   2.033  18.762  0.00  0.00    +0.000 A 
ATOM     13  C   UNL     1       0.832   2.859  19.878  0.00  0.00    +0.000 A 
ATOM     14  C   UNL     1       1.704   3.969  19.914  0.00  0.00    +0.000 A 
ATOM     15  C   UNL     1       2.545   4.247  18.785  0.00  0.00    +0.000 A 
ENDROOT
BRANCH   1  16
ATOM     16  N   UNL     1       3.296   6.538  19.529  0.00  0.00    +0.000 N 
ATOM     17  H   UNL     1       3.745   6.556  20.449  0.00  0.00    +0.000 HD
BRANCH  16  20
ATOM     18  C   UNL     1       0.633   9.242  19.667  0.00  0.00    +0.000 A 
ATOM     19  C   UNL     1       1.478   8.180  20.060  0.00  0.00    +0.000 A 
ATOM     20  C   UNL     1       2.485   7.684  19.193  0.00  0.00    +0.000 A 
ATOM     21  C   UNL     1       2.676   8.326  17.965  0.00  0.00    +0.000 A 
ATOM     22  C   UNL     1       1.826   9.360  17.555  0.00  0.00    +0.000 A 
ATOM     23  C   UNL     1       0.784   9.798  18.387  0.00  0.00    +0.000 A 
BRANCH  23  24
ATOM     24  O   UNL     1      -0.069  10.755  17.963  0.00  0.00    +0.000 OA
ATOM     25  H   UNL     1      -0.770  11.109  18.528  0.00  0.00    +0.000 HD
ENDBRANCH  23  24
BRANCH  18  26
ATOM     26  C   UNL     1      -0.445   9.760  20.607  0.00  0.00    +0.000 C 
BRANCH  26  27
ATOM     27  N   UNL     1       0.099  10.665  21.646  0.00  0.00    +0.000 NA
BRANCH  27  29
ATOM     28  C   UNL     1       1.480  12.578  20.712  0.00  0.00    +0.000 C 
ATOM     29  C   UNL     1       0.106  12.060  21.137  0.00  0.00    +0.000 C 
ENDBRANCH  27  29
BRANCH  27  30
ATOM     30  C   UNL     1      -0.577  10.473  22.961  0.00  0.00    +0.000 C 
ATOM     31  C   UNL     1      -1.720  11.457  23.252  0.00  0.00    +0.000 C 
ENDBRANCH  27  30
ENDBRANCH  26  27
ENDBRANCH  18  26
ENDBRANCH  16  20
ENDBRANCH   1  16
BRANCH  14  32
ATOM     32  O   UNL     1       1.829   4.700  21.051  0.00  0.00    +0.000 OA
ATOM     33  C   UNL     1       2.471   4.294  22.208  0.00  0.00    +0.000 C 
ENDBRANCH  14  32
TORSDOF 8
ENDMDL
MODEL 9
REMARK VINA RESULT:      -6.7      0.875      1.542
REMARK  Name = 
REMARK  11 active torsions:
REMARK  status: ('A' for Active; 'I' for Inactive)
REMARK    1  A    between atoms: C_1  and  C_2
REMARK    2  A    between atoms: C_2  and  N_3
REMARK    3  A    between atoms: N_3  and  C_4
REMARK    4  A    between atoms: N_3  and  C_6
REMARK    5  A    between atoms: C_4  and  C_5
REMARK    6  A    between atoms: C_6  and  C_7
REMARK    7  A    between atoms: C_9  and  N_10
REMARK    8  A    between atoms: N_10  and  C_11
REMARK    9  A    between atoms: C_24  and  O_25
REMARK   10  A    between atoms: O_25  and  C_26
REMARK   11  A    between atoms: C_30  and  O_31
REMARK                            x       y       z     vdW  Elec       q    Type
REMARK                         _______ _______ _______ _____ _____    ______ ____
ROOT
ATOM      1  C   UNL     1       0.097  11.575  18.595  0.00  0.00    +0.000 A 
ATOM      2  C   UNL     1       0.922  12.650  19.048  0.00  0.00    +0.000 A 
ATOM      3  C   UNL     1       2.300  12.730  18.732  0.00  0.00    +0.000 A 
ATOM      4  C   UNL     1       3.061  13.833  19.112  0.00  0.00    +0.000 A 
ATOM      5  C   UNL     1       2.478  14.871  19.834  0.00  0.00    +0.000 A 
ATOM      6 CL   UNL     1       3.437  16.268  20.282  0.00  0.00    +0.000 Cl
ATOM      7  C   UNL     1       1.124  14.809  20.174  0.00  0.00    +0.000 A 
ATOM      8  C   UNL     1       0.345  13.716  19.768  0.00  0.00    +0.000 A 
ATOM      9  N   UNL     1      -0.976  13.712  20.042  0.00  0.00    +0.000 NA
ATOM     10  C   UNL     1      -1.817  12.776  19.541  0.00  0.00    +0.000 A 
ATOM     11  C   UNL     1      -3.179  12.903  19.816  0.00  0.00    +0.000 A 
ATOM     12  C   UNL     1      -4.097  12.038  19.240  0.00  0.00    +0.000 A 
ATOM     13  C   UNL     1      -3.667  11.060  18.351  0.00  0.00    +0.000 A 
ATOM     14  C   UNL     1      -2.294  10.877  18.077  0.00  0.00    +0.000 A 
ATOM     15  C   UNL     1      -1.324  11.719  18.720  0.00  0.00    +0.000 A 
ENDROOT
BRANCH   1  16
ATOM     16  N   UNL     1       0.714  10.390  18.050  0.00  0.00    +0.000 N 
ATOM     17  H   UNL     1       0.787  10.244  17.040  0.00  0.00    +0.000 HD
BRANCH  16  20
ATOM     18  C   UNL     1       2.482   7.244  19.232  0.00  0.00    +0.000 A 
ATOM     19  C   UNL     1       2.116   8.346  18.428  0.00  0.00    +0.000 A 
ATOM     20  C   UNL     1       1.181   9.310  18.886  0.00  0.00    +0.000 A 
ATOM     21  C   UNL     1       0.689   9.187  20.190  0.00  0.00    +0.000 A 
ATOM     22  C   UNL     1       1.025   8.083  20.983  0.00  0.00    +0.000 A 
ATOM     23  C   UNL     1       1.893   7.094  20.498  0.00  0.00    +0.000 A 
BRANCH  23  24
ATOM     24  O   UNL     1       2.167   6.003  21.244  0.00  0.00    +0.000 OA
ATOM     25  H   UNL     1       2.398   5.150  20.847  0.00  0.00    +0.000 HD
ENDBRANCH  23  24
BRANCH  18  26
ATOM     26  C   UNL     1       3.483   6.217  18.725  0.00  0.00    +0.000 C 
BRANCH  26  27
ATOM     27  N   UNL     1       2.916   5.353  17.662  0.00  0.00    +0.000 NA
BRANCH  27  29
ATOM     28  C   UNL     1       5.329   4.571  17.726  0.00  0.00    +0.000 C 
ATOM     29  C   UNL     1       4.016   4.656  16.948  0.00  0.00    +0.000 C 
ENDBRANCH  27  29
BRANCH  27  30
ATOM     30  C   UNL     1       1.835   4.468  18.181  0.00  0.00    +0.000 C 
ATOM     31  C   UNL     1       1.996   2.979  17.839  0.00  0.00    +0.000 C 
ENDBRANCH  27  30
ENDBRANCH  26  27
ENDBRANCH  18  26
ENDBRANCH  16  20
ENDBRANCH   1  16
BRANCH  14  32
ATOM     32  O   UNL     1      -1.901   9.990  17.128  0.00  0.00    +0.000 OA
ATOM     33  C   UNL     1      -2.488   9.820  15.886  0.00  0.00    +0.000 C 
ENDBRANCH  14  32
TORSDOF 8
ENDMDL
