MODEL 1
REMARK VINA RESULT:      -8.1      0.000      0.000
REMARK  Name = 
REMARK  11 active torsions:
REMARK  status: ('A' for Active; 'I' for Inactive)
REMARK    1  A    between atoms: C_1  and  O_2
REMARK    2  A    between atoms: O_2  and  C_3
REMARK    3  A    between atoms: C_5  and  C_6
REMARK    4  A    between atoms: N_8  and  C_9
REMARK    5  A    between atoms: CA_10  and  C_11
REMARK    6  A    between atoms: C_11  and  OXT_13
REMARK    7  A    between atoms: C_18  and  C_19
REMARK    8  A    between atoms: C_23  and  O_24
REMARK    9  A    between atoms: O_24  and  C_25
REMARK   10  A    between atoms: C_26  and  O_27
REMARK   11  A    between atoms: O_27  and  C_28
REMARK                            x       y       z     vdW  Elec       q    Type
REMARK                         _______ _______ _______ _____ _____    ______ ____
ROOT
ATOM      1  C   UNL     1       2.695   7.789  18.351  0.00  0.00    +0.000 C 
ATOM      2  O   UNL     1       3.239   8.155  17.295  0.00  0.00    +0.000 OA
ATOM      3  N   UNL     1       3.057   6.564  19.020  0.00  0.00    +0.000 N 
ATOM      4  H   UNL     1       2.437   6.114  19.683  0.00  0.00    +0.000 HD
ENDROOT
BRANCH   3   5
ATOM      5  C   UNL     1       4.211   5.855  18.588  0.00  0.00    +0.000 A 
ATOM      6  CA  UNL     1       4.664   4.803  19.390  0.00  0.00    +0.000 A 
ATOM      7  N   UNL     1       6.016   5.084  19.334  0.00  0.00    +0.000 N 
ATOM      8  C   UNL     1       6.243   5.097  17.965  0.00  0.00    +0.000 A 
ATOM      9  C   UNL     1       7.402   4.746  17.277  0.00  0.00    +0.000 A 
ATOM     10  C   UNL     1       7.257   4.474  15.928  0.00  0.00    +0.000 A 
ATOM     11  C   UNL     1       6.011   4.628  15.298  0.00  0.00    +0.000 A 
ATOM     12  C   UNL     1       5.896   3.992  13.925  0.00  0.00    +0.000 C 
ATOM     13  C   UNL     1       4.905   5.238  15.992  0.00  0.00    +0.000 A 
ATOM     14  C   UNL     1       4.998   5.438  17.400  0.00  0.00    +0.000 A 
ATOM     15  H   UNL     1       6.457   5.775  19.930  0.00  0.00    +0.000 HD
BRANCH   6  16
ATOM     16  C   UNL     1       4.007   3.499  19.376  0.00  0.00    +0.000 C 
ATOM     17  O   UNL     1       2.831   3.303  19.106  0.00  0.00    +0.000 OA
BRANCH  16  18
ATOM     18  OXT UNL     1       4.868   2.468  19.568  0.00  0.00    +0.000 OA
ATOM     19  HXT UNL     1       5.798   2.749  19.584  0.00  0.00    +0.000 HD
ENDBRANCH  16  18
ENDBRANCH   6  16
ENDBRANCH   3   5
BRANCH   1  22
ATOM     20  C   UNL     1      -0.389  10.212  18.434  0.00  0.00    +0.000 A 
ATOM     21  C   UNL     1       0.617   9.297  17.985  0.00  0.00    +0.000 A 
ATOM     22  C   UNL     1       1.581   8.715  18.864  0.00  0.00    +0.000 A 
ATOM     23  C   UNL     1       1.513   9.099  20.193  0.00  0.00    +0.000 A 
ATOM     24  C   UNL     1       0.523   9.992  20.656  0.00  0.00    +0.000 A 
ATOM     25  C   UNL     1      -0.444  10.570  19.794  0.00  0.00    +0.000 A 
BRANCH  20  27
ATOM     26  C   UNL     1      -2.310  10.064  16.988  0.00  0.00    +0.000 C 
ATOM     27  O   UNL     1      -1.283  10.835  17.600  0.00  0.00    +0.000 OA
ENDBRANCH  20  27
BRANCH  24  28
ATOM     28  O   UNL     1       0.687  10.271  21.999  0.00  0.00    +0.000 OA
ATOM     29  C   UNL     1       0.081   9.398  22.942  0.00  0.00    +0.000 C 
ENDBRANCH  24  28
BRANCH  25  30
ATOM     30  O   UNL     1      -1.328  11.401  20.412  0.00  0.00    +0.000 OA
ATOM     31  C   UNL     1      -1.265  12.816  20.509  0.00  0.00    +0.000 C 
ENDBRANCH  25  30
ENDBRANCH   1  22
TORSDOF 7
ENDMDL
MODEL 2
REMARK VINA RESULT:      -8.1      0.660      2.363
REMARK  Name = 
REMARK  11 active torsions:
REMARK  status: ('A' for Active; 'I' for Inactive)
REMARK    1  A    between atoms: C_1  and  O_2
REMARK    2  A    between atoms: O_2  and  C_3
REMARK    3  A    between atoms: C_5  and  C_6
REMARK    4  A    between atoms: N_8  and  C_9
REMARK    5  A    between atoms: CA_10  and  C_11
REMARK    6  A    between atoms: C_11  and  OXT_13
REMARK    7  A    between atoms: C_18  and  C_19
REMARK    8  A    between atoms: C_23  and  O_24
REMARK    9  A    between atoms: O_24  and  C_25
REMARK   10  A    between atoms: C_26  and  O_27
REMARK   11  A    between atoms: O_27  and  C_28
REMARK                            x       y       z     vdW  Elec       q    Type
REMARK                         _______ _______ _______ _____ _____    ______ ____
ROOT
ATOM      1  C   UNL     1       2.745   7.545  18.646  0.00  0.00    +0.000 C 
ATOM      2  O   UNL     1       3.196   7.929  17.553  0.00  0.00    +0.000 OA
ATOM      3  N   UNL     1       3.176   6.319  19.270  0.00  0.00    +0.000 N 
ATOM      4  H   UNL     1       2.618   5.853  19.976  0.00  0.00    +0.000 HD
ENDROOT
BRANCH   3   5
ATOM      5  C   UNL     1       4.301   5.631  18.738  0.00  0.00    +0.000 A 
ATOM      6  CA  UNL     1       4.784   4.530  19.452  0.00  0.00    +0.000 A 
ATOM      7  N   UNL     1       6.135   4.807  19.345  0.00  0.00    +0.000 N 
ATOM      8  C   UNL     1       6.293   4.901  17.969  0.00  0.00    +0.000 A 
ATOM      9  C   UNL     1       7.413   4.586  17.204  0.00  0.00    +0.000 A 
ATOM     10  C   UNL     1       7.198   4.396  15.850  0.00  0.00    +0.000 A 
ATOM     11  C   UNL     1       5.924   4.595  15.294  0.00  0.00    +0.000 A 
ATOM     12  C   UNL     1       5.735   4.043  13.893  0.00  0.00    +0.000 C 
ATOM     13  C   UNL     1       4.859   5.167  16.078  0.00  0.00    +0.000 A 
ATOM     14  C   UNL     1       5.024   5.283  17.489  0.00  0.00    +0.000 A 
ATOM     15  H   UNL     1       6.611   5.458  19.958  0.00  0.00    +0.000 HD
BRANCH   6  16
ATOM     16  C   UNL     1       4.117   3.233  19.393  0.00  0.00    +0.000 C 
ATOM     17  O   UNL     1       2.963   3.048  19.035  0.00  0.00    +0.000 OA
BRANCH  16  18
ATOM     18  OXT UNL     1       4.950   2.194  19.654  0.00  0.00    +0.000 OA
ATOM     19  HXT UNL     1       5.145   2.093  20.601  0.00  0.00    +0.000 HD
ENDBRANCH  16  18
ENDBRANCH   6  16
ENDBRANCH   3   5
BRANCH   1  22
ATOM     20  C   UNL     1       0.133   9.054  21.154  0.00  0.00    +0.000 A 
ATOM     21  C   UNL     1       1.186   8.263  20.591  0.00  0.00    +0.000 A 
ATOM     22  C   UNL     1       1.663   8.449  19.257  0.00  0.00    +0.000 A 
ATOM     23  C   UNL     1       1.034   9.432  18.510  0.00  0.00    +0.000 A 
ATOM     24  C   UNL     1       0.001  10.227  19.052  0.00  0.00    +0.000 A 
ATOM     25  C   UNL     1      -0.474  10.057  20.378  0.00  0.00    +0.000 A 
BRANCH  20  27
ATOM     26  C   UNL     1       0.185   9.542  23.513  0.00  0.00    +0.000 C 
ATOM     27  O   UNL     1      -0.385   8.851  22.409  0.00  0.00    +0.000 OA
ENDBRANCH  20  27
BRANCH  24  28
ATOM     28  O   UNL     1      -0.510  11.097  18.109  0.00  0.00    +0.000 OA
ATOM     29  C   UNL     1      -1.668  10.698  17.388  0.00  0.00    +0.000 C 
ENDBRANCH  24  28
BRANCH  25  30
ATOM     30  O   UNL     1      -1.467  10.917  20.737  0.00  0.00    +0.000 OA
ATOM     31  C   UNL     1      -1.332  12.198  21.332  0.00  0.00    +0.000 C 
ENDBRANCH  25  30
ENDBRANCH   1  22
TORSDOF 7
ENDMDL
MODEL 3
REMARK VINA RESULT:      -8.0      0.928      1.104
REMARK  Name = 
REMARK  11 active torsions:
REMARK  status: ('A' for Active; 'I' for Inactive)
REMARK    1  A    between atoms: C_1  and  O_2
REMARK    2  A    between atoms: O_2  and  C_3
REMARK    3  A    between atoms: C_5  and  C_6
REMARK    4  A    between atoms: N_8  and  C_9
REMARK    5  A    between atoms: CA_10  and  C_11
REMARK    6  A    between atoms: C_11  and  OXT_13
REMARK    7  A    between atoms: C_18  and  C_19
REMARK    8  A    between atoms: C_23  and  O_24
REMARK    9  A    between atoms: O_24  and  C_25
REMARK   10  A    between atoms: C_26  and  O_27
REMARK   11  A    between atoms: O_27  and  C_28
REMARK                            x       y       z     vdW  Elec       q    Type
REMARK                         _______ _______ _______ _____ _____    ______ ____
ROOT
ATOM      1  C   UNL     1       2.734   7.719  18.556  0.00  0.00    +0.000 C 
ATOM      2  O   UNL     1       3.244   8.093  17.485  0.00  0.00    +0.000 OA
ATOM      3  N   UNL     1       3.112   6.483  19.197  0.00  0.00    +0.000 N 
ATOM      4  H   UNL     1       2.513   6.029  19.876  0.00  0.00    +0.000 HD
ENDROOT
BRANCH   3   5
ATOM      5  C   UNL     1       4.247   5.774  18.717  0.00  0.00    +0.000 A 
ATOM      6  CA  UNL     1       4.705   4.694  19.477  0.00  0.00    +0.000 A 
ATOM      7  N   UNL     1       6.060   4.961  19.397  0.00  0.00    +0.000 N 
ATOM      8  C   UNL     1       6.254   5.010  18.024  0.00  0.00    +0.000 A 
ATOM      9  C   UNL     1       7.392   4.666  17.298  0.00  0.00    +0.000 A 
ATOM     10  C   UNL     1       7.210   4.434  15.946  0.00  0.00    +0.000 A 
ATOM     11  C   UNL     1       5.952   4.620  15.351  0.00  0.00    +0.000 A 
ATOM     12  C   UNL     1       5.796   4.025  13.964  0.00  0.00    +0.000 C 
ATOM     13  C   UNL     1       4.871   5.223  16.089  0.00  0.00    +0.000 A 
ATOM     14  C   UNL     1       5.000   5.382  17.498  0.00  0.00    +0.000 A 
ATOM     15  H   UNL     1       6.523   5.629  20.001  0.00  0.00    +0.000 HD
BRANCH   6  16
ATOM     16  C   UNL     1       4.033   3.398  19.443  0.00  0.00    +0.000 C 
ATOM     17  O   UNL     1       2.866   3.217  19.126  0.00  0.00    +0.000 OA
BRANCH  16  18
ATOM     18  OXT UNL     1       4.871   2.357  19.674  0.00  0.00    +0.000 OA
ATOM     19  HXT UNL     1       5.584   2.291  19.016  0.00  0.00    +0.000 HD
ENDBRANCH  16  18
ENDBRANCH   6  16
ENDBRANCH   3   5
BRANCH   1  22
ATOM     20  C   UNL     1       0.292  10.756  18.996  0.00  0.00    +0.000 A 
ATOM     21  C   UNL     1       1.260   9.850  18.455  0.00  0.00    +0.000 A 
ATOM     22  C   UNL     1       1.644   8.643  19.117  0.00  0.00    +0.000 A 
ATOM     23  C   UNL     1       1.043   8.395  20.341  0.00  0.00    +0.000 A 
ATOM     24  C   UNL     1       0.080   9.272  20.884  0.00  0.00    +0.000 A 
ATOM     25  C   UNL     1      -0.315  10.468  20.232  0.00  0.00    +0.000 A 
BRANCH  20  27
ATOM     26  C   UNL     1       0.823  13.067  18.568  0.00  0.00    +0.000 C 
ATOM     27  O   UNL     1      -0.045  11.951  18.412  0.00  0.00    +0.000 OA
ENDBRANCH  20  27
BRANCH  24  28
ATOM     28  O   UNL     1      -0.336   8.850  22.132  0.00  0.00    +0.000 OA
ATOM     29  C   UNL     1       0.325   9.381  23.273  0.00  0.00    +0.000 C 
ENDBRANCH  24  28
BRANCH  25  30
ATOM     30  O   UNL     1      -1.261  11.188  20.895  0.00  0.00    +0.000 OA
ATOM     31  C   UNL     1      -1.066  12.332  21.712  0.00  0.00    +0.000 C 
ENDBRANCH  25  30
ENDBRANCH   1  22
TORSDOF 7
ENDMDL
MODEL 4
REMARK VINA RESULT:      -7.8      2.337      8.282
REMARK  Name = 
REMARK  11 active torsions:
REMARK  status: ('A' for Active; 'I' for Inactive)
REMARK    1  A    between atoms: C_1  and  O_2
REMARK    2  A    between atoms: O_2  and  C_3
REMARK    3  A    between atoms: C_5  and  C_6
REMARK    4  A    between atoms: N_8  and  C_9
REMARK    5  A    between atoms: CA_10  and  C_11
REMARK    6  A    between atoms: C_11  and  OXT_13
REMARK    7  A    between atoms: C_18  and  C_19
REMARK    8  A    between atoms: C_23  and  O_24
REMARK    9  A    between atoms: O_24  and  C_25
REMARK   10  A    between atoms: C_26  and  O_27
REMARK   11  A    between atoms: O_27  and  C_28
REMARK                            x       y       z     vdW  Elec       q    Type
REMARK                         _______ _______ _______ _____ _____    ______ ____
ROOT
ATOM      1  C   UNL     1       1.820   8.050  18.714  0.00  0.00    +0.000 C 
ATOM      2  O   UNL     1       1.645   8.340  17.517  0.00  0.00    +0.000 OA
ATOM      3  N   UNL     1       1.292   8.857  19.786  0.00  0.00    +0.000 N 
ATOM      4  H   UNL     1       1.671   8.812  20.725  0.00  0.00    +0.000 HD
ENDROOT
BRANCH   3   5
ATOM      5  C   UNL     1       0.365   9.891  19.482  0.00  0.00    +0.000 A 
ATOM      6  CA  UNL     1       0.777  11.211  19.683  0.00  0.00    +0.000 A 
ATOM      7  N   UNL     1      -0.379  11.688  20.272  0.00  0.00    +0.000 N 
ATOM      8  C   UNL     1      -1.332  11.368  19.316  0.00  0.00    +0.000 A 
ATOM      9  C   UNL     1      -2.513  12.042  19.012  0.00  0.00    +0.000 A 
ATOM     10  C   UNL     1      -3.084  11.756  17.784  0.00  0.00    +0.000 A 
ATOM     11  C   UNL     1      -2.525  10.778  16.946  0.00  0.00    +0.000 A 
ATOM     12  C   UNL     1      -3.028  10.786  15.514  0.00  0.00    +0.000 C 
ATOM     13  C   UNL     1      -1.458   9.929  17.414  0.00  0.00    +0.000 A 
ATOM     14  C   UNL     1      -0.792  10.262  18.629  0.00  0.00    +0.000 A 
ATOM     15  H   UNL     1      -0.584  11.564  21.256  0.00  0.00    +0.000 HD
BRANCH   6  16
ATOM     16  C   UNL     1       1.657  11.887  18.734  0.00  0.00    +0.000 C 
ATOM     17  O   UNL     1       1.962  13.071  18.774  0.00  0.00    +0.000 OA
BRANCH  16  18
ATOM     18  OXT UNL     1       2.234  11.040  17.845  0.00  0.00    +0.000 OA
ATOM     19  HXT UNL     1       1.675  10.272  17.637  0.00  0.00    +0.000 HD
ENDBRANCH  16  18
ENDBRANCH   6  16
ENDBRANCH   3   5
BRANCH   1  22
ATOM     20  C   UNL     1       4.544   5.259  18.294  0.00  0.00    +0.000 A 
ATOM     21  C   UNL     1       3.775   6.453  18.116  0.00  0.00    +0.000 A 
ATOM     22  C   UNL     1       2.677   6.800  18.963  0.00  0.00    +0.000 A 
ATOM     23  C   UNL     1       2.369   5.899  19.970  0.00  0.00    +0.000 A 
ATOM     24  C   UNL     1       3.122   4.722  20.166  0.00  0.00    +0.000 A 
ATOM     25  C   UNL     1       4.219   4.373  19.337  0.00  0.00    +0.000 A 
BRANCH  20  27
ATOM     26  C   UNL     1       5.242   4.156  16.269  0.00  0.00    +0.000 C 
ATOM     27  O   UNL     1       5.559   4.872  17.456  0.00  0.00    +0.000 OA
ENDBRANCH  20  27
BRANCH  24  28
ATOM     28  O   UNL     1       2.597   3.955  21.188  0.00  0.00    +0.000 OA
ATOM     29  C   UNL     1       1.337   3.333  20.979  0.00  0.00    +0.000 C 
ENDBRANCH  24  28
BRANCH  25  30
ATOM     30  O   UNL     1       4.836   3.207  19.677  0.00  0.00    +0.000 OA
ATOM     31  C   UNL     1       4.400   1.884  19.405  0.00  0.00    +0.000 C 
ENDBRANCH  25  30
ENDBRANCH   1  22
TORSDOF 7
ENDMDL
MODEL 5
REMARK VINA RESULT:      -7.6      2.299      8.251
REMARK  Name = 
REMARK  11 active torsions:
REMARK  status: ('A' for Active; 'I' for Inactive)
REMARK    1  A    between atoms: C_1  and  O_2
REMARK    2  A    between atoms: O_2  and  C_3
REMARK    3  A    between atoms: C_5  and  C_6
REMARK    4  A    between atoms: N_8  and  C_9
REMARK    5  A    between atoms: CA_10  and  C_11
REMARK    6  A    between atoms: C_11  and  OXT_13
REMARK    7  A    between atoms: C_18  and  C_19
REMARK    8  A    between atoms: C_23  and  O_24
REMARK    9  A    between atoms: O_24  and  C_25
REMARK   10  A    between atoms: C_26  and  O_27
REMARK   11  A    between atoms: O_27  and  C_28
REMARK                            x       y       z     vdW  Elec       q    Type
REMARK                         _______ _______ _______ _____ _____    ______ ____
ROOT
ATOM      1  C   UNL     1       2.143   7.976  18.695  0.00  0.00    +0.000 C 
ATOM      2  O   UNL     1       2.196   8.539  17.588  0.00  0.00    +0.000 OA
ATOM      3  N   UNL     1       1.570   8.612  19.856  0.00  0.00    +0.000 N 
ATOM      4  H   UNL     1       1.789   8.305  20.796  0.00  0.00    +0.000 HD
ENDROOT
BRANCH   3   5
ATOM      5  C   UNL     1       0.851   9.828  19.693  0.00  0.00    +0.000 A 
ATOM      6  CA  UNL     1      -0.218  10.070  20.561  0.00  0.00    +0.000 A 
ATOM      7  N   UNL     1      -1.119  10.553  19.630  0.00  0.00    +0.000 N 
ATOM      8  C   UNL     1      -0.401  11.596  19.062  0.00  0.00    +0.000 A 
ATOM      9  C   UNL     1      -0.885  12.788  18.529  0.00  0.00    +0.000 A 
ATOM     10  C   UNL     1       0.035  13.813  18.384  0.00  0.00    +0.000 A 
ATOM     11  C   UNL     1       1.389  13.606  18.692  0.00  0.00    +0.000 A 
ATOM     12  C   UNL     1       2.226  14.867  18.813  0.00  0.00    +0.000 C 
ATOM     13  C   UNL     1       1.883  12.287  18.993  0.00  0.00    +0.000 A 
ATOM     14  C   UNL     1       0.950  11.239  19.241  0.00  0.00    +0.000 A 
ATOM     15  H   UNL     1      -1.683   9.946  19.047  0.00  0.00    +0.000 HD
BRANCH   6  16
ATOM     16  C   UNL     1       0.001  10.524  21.931  0.00  0.00    +0.000 C 
ATOM     17  O   UNL     1      -0.759  11.240  22.568  0.00  0.00    +0.000 OA
BRANCH  16  18
ATOM     18  OXT UNL     1       1.094   9.965  22.509  0.00  0.00    +0.000 OA
ATOM     19  HXT UNL     1       1.023   9.909  23.477  0.00  0.00    +0.000 HD
ENDBRANCH  16  18
ENDBRANCH   6  16
ENDBRANCH   3   5
BRANCH   1  22
ATOM     20  C   UNL     1       4.111   4.740  17.675  0.00  0.00    +0.000 A 
ATOM     21  C   UNL     1       3.570   6.066  17.675  0.00  0.00    +0.000 A 
ATOM     22  C   UNL     1       2.772   6.575  18.745  0.00  0.00    +0.000 A 
ATOM     23  C   UNL     1       2.520   5.705  19.793  0.00  0.00    +0.000 A 
ATOM     24  C   UNL     1       3.052   4.398  19.814  0.00  0.00    +0.000 A 
ATOM     25  C   UNL     1       3.853   3.885  18.762  0.00  0.00    +0.000 A 
BRANCH  20  27
ATOM     26  C   UNL     1       6.216   4.485  16.531  0.00  0.00    +0.000 C 
ATOM     27  O   UNL     1       4.825   4.206  16.631  0.00  0.00    +0.000 OA
ENDBRANCH  20  27
BRANCH  24  28
ATOM     28  O   UNL     1       2.622   3.699  20.925  0.00  0.00    +0.000 OA
ATOM     29  C   UNL     1       1.269   3.265  20.961  0.00  0.00    +0.000 C 
ENDBRANCH  24  28
BRANCH  25  30
ATOM     30  O   UNL     1       4.288   2.609  18.953  0.00  0.00    +0.000 OA
ATOM     31  C   UNL     1       3.658   1.406  18.541  0.00  0.00    +0.000 C 
ENDBRANCH  25  30
ENDBRANCH   1  22
TORSDOF 7
ENDMDL
MODEL 6
REMARK VINA RESULT:      -7.6      2.396      8.274
REMARK  Name = 
REMARK  11 active torsions:
REMARK  status: ('A' for Active; 'I' for Inactive)
REMARK    1  A    between atoms: C_1  and  O_2
REMARK    2  A    between atoms: O_2  and  C_3
REMARK    3  A    between atoms: C_5  and  C_6
REMARK    4  A    between atoms: N_8  and  C_9
REMARK    5  A    between atoms: CA_10  and  C_11
REMARK    6  A    between atoms: C_11  and  OXT_13
REMARK    7  A    between atoms: C_18  and  C_19
REMARK    8  A    between atoms: C_23  and  O_24
REMARK    9  A    between atoms: O_24  and  C_25
REMARK   10  A    between atoms: C_26  and  O_27
REMARK   11  A    between atoms: O_27  and  C_28
REMARK                            x       y       z     vdW  Elec       q    Type
REMARK                         _______ _______ _______ _____ _____    ______ ____
ROOT
ATOM      1  C   UNL     1       2.190   7.939  18.295  0.00  0.00    +0.000 C 
ATOM      2  O   UNL     1       2.399   8.670  17.311  0.00  0.00    +0.000 OA
ATOM      3  N   UNL     1       1.548   8.425  19.492  0.00  0.00    +0.000 N 
ATOM      4  H   UNL     1       1.646   7.949  20.381  0.00  0.00    +0.000 HD
ENDROOT
BRANCH   3   5
ATOM      5  C   UNL     1       0.941   9.711  19.477  0.00  0.00    +0.000 A 
ATOM      6  CA  UNL     1       0.042  10.014  20.504  0.00  0.00    +0.000 A 
ATOM      7  N   UNL     1      -0.932  10.624  19.736  0.00  0.00    +0.000 N 
ATOM      8  C   UNL     1      -0.204  11.617  19.097  0.00  0.00    +0.000 A 
ATOM      9  C   UNL     1      -0.637  12.874  18.680  0.00  0.00    +0.000 A 
ATOM     10  C   UNL     1       0.351  13.811  18.429  0.00  0.00    +0.000 A 
ATOM     11  C   UNL     1       1.707  13.461  18.521  0.00  0.00    +0.000 A 
ATOM     12  C   UNL     1       2.677  14.628  18.553  0.00  0.00    +0.000 C 
ATOM     13  C   UNL     1       2.103  12.088  18.704  0.00  0.00    +0.000 A 
ATOM     14  C   UNL     1       1.116  11.125  19.058  0.00  0.00    +0.000 A 
ATOM     15  H   UNL     1      -1.635  10.101  19.227  0.00  0.00    +0.000 HD
BRANCH   6  16
ATOM     16  C   UNL     1       0.507  10.383  21.839  0.00  0.00    +0.000 C 
ATOM     17  O   UNL     1      -0.023  11.211  22.567  0.00  0.00    +0.000 OA
BRANCH  16  18
ATOM     18  OXT UNL     1       1.536   9.615  22.275  0.00  0.00    +0.000 OA
ATOM     19  HXT UNL     1       2.147  10.095  22.859  0.00  0.00    +0.000 HD
ENDBRANCH  16  18
ENDBRANCH   6  16
ENDBRANCH   3   5
BRANCH   1  22
ATOM     20  C   UNL     1       4.591   4.874  17.824  0.00  0.00    +0.000 A 
ATOM     21  C   UNL     1       4.097   6.204  18.016  0.00  0.00    +0.000 A 
ATOM     22  C   UNL     1       2.706   6.499  18.159  0.00  0.00    +0.000 A 
ATOM     23  C   UNL     1       1.838   5.422  18.079  0.00  0.00    +0.000 A 
ATOM     24  C   UNL     1       2.307   4.104  17.899  0.00  0.00    +0.000 A 
ATOM     25  C   UNL     1       3.686   3.799  17.765  0.00  0.00    +0.000 A 
BRANCH  20  27
ATOM     26  C   UNL     1       6.458   4.700  16.311  0.00  0.00    +0.000 C 
ATOM     27  O   UNL     1       5.914   4.573  17.619  0.00  0.00    +0.000 OA
ENDBRANCH  20  27
BRANCH  24  28
ATOM     28  O   UNL     1       1.261   3.209  17.792  0.00  0.00    +0.000 OA
ATOM     29  C   UNL     1       0.667   2.727  18.991  0.00  0.00    +0.000 C 
ENDBRANCH  24  28
BRANCH  25  30
ATOM     30  O   UNL     1       3.959   2.474  17.608  0.00  0.00    +0.000 OA
ATOM     31  C   UNL     1       3.964   1.465  18.606  0.00  0.00    +0.000 C 
ENDBRANCH  25  30
ENDBRANCH   1  22
TORSDOF 7
ENDMDL
MODEL 7
REMARK VINA RESULT:      -7.5      2.119      8.419
REMARK  Name = 
REMARK  11 active torsions:
REMARK  status: ('A' for Active; 'I' for Inactive)
REMARK    1  A    between atoms: C_1  and  O_2
REMARK    2  A    between atoms: O_2  and  C_3
REMARK    3  A    between atoms: C_5  and  C_6
REMARK    4  A    between atoms: N_8  and  C_9
REMARK    5  A    between atoms: CA_10  and  C_11
REMARK    6  A    between atoms: C_11  and  OXT_13
REMARK    7  A    between atoms: C_18  and  C_19
REMARK    8  A    between atoms: C_23  and  O_24
REMARK    9  A    between atoms: O_24  and  C_25
REMARK   10  A    between atoms: C_26  and  O_27
REMARK   11  A    between atoms: O_27  and  C_28
REMARK                            x       y       z     vdW  Elec       q    Type
REMARK                         _______ _______ _______ _____ _____    ______ ____
ROOT
ATOM      1  C   UNL     1       2.313   8.247  18.307  0.00  0.00    +0.000 C 
ATOM      2  O   UNL     1       2.041   9.112  17.457  0.00  0.00    +0.000 OA
ATOM      3  N   UNL     1       1.892   8.360  19.682  0.00  0.00    +0.000 N 
ATOM      4  H   UNL     1       2.349   7.843  20.425  0.00  0.00    +0.000 HD
ENDROOT
BRANCH   3   5
ATOM      5  C   UNL     1       0.959   9.372  20.039  0.00  0.00    +0.000 A 
ATOM      6  CA  UNL     1       0.240   9.201  21.225  0.00  0.00    +0.000 A 
ATOM      7  N   UNL     1      -1.001   9.592  20.757  0.00  0.00    +0.000 N 
ATOM      8  C   UNL     1      -0.726  10.856  20.256  0.00  0.00    +0.000 A 
ATOM      9  C   UNL     1      -1.568  11.963  20.194  0.00  0.00    +0.000 A 
ATOM     10  C   UNL     1      -0.955  13.192  20.017  0.00  0.00    +0.000 A 
ATOM     11  C   UNL     1       0.435  13.277  19.835  0.00  0.00    +0.000 A 
ATOM     12  C   UNL     1       1.024  14.667  19.985  0.00  0.00    +0.000 C 
ATOM     13  C   UNL     1       1.228  12.088  19.651  0.00  0.00    +0.000 A 
ATOM     14  C   UNL     1       0.643  10.818  19.922  0.00  0.00    +0.000 A 
ATOM     15  H   UNL     1      -1.618   8.967  20.251  0.00  0.00    +0.000 HD
BRANCH   6  16
ATOM     16  C   UNL     1       0.843   9.468  22.528  0.00  0.00    +0.000 C 
ATOM     17  O   UNL     1       0.236   9.831  23.526  0.00  0.00    +0.000 OA
BRANCH  16  18
ATOM     18  OXT UNL     1       2.160   9.148  22.580  0.00  0.00    +0.000 OA
ATOM     19  HXT UNL     1       2.738   9.870  22.280  0.00  0.00    +0.000 HD
ENDBRANCH  16  18
ENDBRANCH   6  16
ENDBRANCH   3   5
BRANCH   1  22
ATOM     20  C   UNL     1       3.552   4.612  17.506  0.00  0.00    +0.000 A 
ATOM     21  C   UNL     1       2.741   5.719  17.918  0.00  0.00    +0.000 A 
ATOM     22  C   UNL     1       3.168   7.077  17.796  0.00  0.00    +0.000 A 
ATOM     23  C   UNL     1       4.435   7.279  17.274  0.00  0.00    +0.000 A 
ATOM     24  C   UNL     1       5.244   6.202  16.854  0.00  0.00    +0.000 A 
ATOM     25  C   UNL     1       4.827   4.850  16.962  0.00  0.00    +0.000 A 
BRANCH  20  27
ATOM     26  C   UNL     1       3.463   2.658  18.913  0.00  0.00    +0.000 C 
ATOM     27  O   UNL     1       3.192   3.299  17.672  0.00  0.00    +0.000 OA
ENDBRANCH  20  27
BRANCH  24  28
ATOM     28  O   UNL     1       6.480   6.641  16.423  0.00  0.00    +0.000 OA
ATOM     29  C   UNL     1       7.433   7.026  17.404  0.00  0.00    +0.000 C 
ENDBRANCH  24  28
BRANCH  25  30
ATOM     30  O   UNL     1       5.730   3.942  16.500  0.00  0.00    +0.000 OA
ATOM     31  C   UNL     1       6.073   3.669  15.150  0.00  0.00    +0.000 C 
ENDBRANCH  25  30
ENDBRANCH   1  22
TORSDOF 7
ENDMDL
MODEL 8
REMARK VINA RESULT:      -7.5      2.405      8.401
REMARK  Name = 
REMARK  11 active torsions:
REMARK  status: ('A' for Active; 'I' for Inactive)
REMARK    1  A    between atoms: C_1  and  O_2
REMARK    2  A    between atoms: O_2  and  C_3
REMARK    3  A    between atoms: C_5  and  C_6
REMARK    4  A    between atoms: N_8  and  C_9
REMARK    5  A    between atoms: CA_10  and  C_11
REMARK    6  A    between atoms: C_11  and  OXT_13
REMARK    7  A    between atoms: C_18  and  C_19
REMARK    8  A    between atoms: C_23  and  O_24
REMARK    9  A    between atoms: O_24  and  C_25
REMARK   10  A    between atoms: C_26  and  O_27
REMARK   11  A    between atoms: O_27  and  C_28
REMARK                            x       y       z     vdW  Elec       q    Type
REMARK                         _______ _______ _______ _____ _____    ______ ____
ROOT
ATOM      1  C   UNL     1       2.003   8.007  18.796  0.00  0.00    +0.000 C 
ATOM      2  O   UNL     1       2.166   8.583  17.706  0.00  0.00    +0.000 OA
ATOM      3  N   UNL     1       1.406   8.664  19.932  0.00  0.00    +0.000 N 
ATOM      4  H   UNL     1       1.543   8.327  20.878  0.00  0.00    +0.000 HD
ENDROOT
BRANCH   3   5
ATOM      5  C   UNL     1       0.786   9.931  19.751  0.00  0.00    +0.000 A 
ATOM      6  CA  UNL     1      -0.218  10.296  20.654  0.00  0.00    +0.000 A 
ATOM      7  N   UNL     1      -1.116  10.821  19.743  0.00  0.00    +0.000 N 
ATOM      8  C   UNL     1      -0.339  11.776  19.102  0.00  0.00    +0.000 A 
ATOM      9  C   UNL     1      -0.744  12.985  18.542  0.00  0.00    +0.000 A 
ATOM     10  C   UNL     1       0.252  13.920  18.316  0.00  0.00    +0.000 A 
ATOM     11  C   UNL     1       1.596  13.609  18.574  0.00  0.00    +0.000 A 
ATOM     12  C   UNL     1       2.542  14.795  18.608  0.00  0.00    +0.000 C 
ATOM     13  C   UNL     1       1.990  12.263  18.908  0.00  0.00    +0.000 A 
ATOM     14  C   UNL     1       0.984  11.310  19.238  0.00  0.00    +0.000 A 
ATOM     15  H   UNL     1      -1.756  10.244  19.210  0.00  0.00    +0.000 HD
BRANCH   6  16
ATOM     16  C   UNL     1       0.102  10.781  21.993  0.00  0.00    +0.000 C 
ATOM     17  O   UNL     1      -0.392  11.765  22.525  0.00  0.00    +0.000 OA
BRANCH  16  18
ATOM     18  OXT UNL     1       0.928   9.949  22.677  0.00  0.00    +0.000 OA
ATOM     19  HXT UNL     1       1.799  10.341  22.856  0.00  0.00    +0.000 HD
ENDBRANCH  16  18
ENDBRANCH   6  16
ENDBRANCH   3   5
BRANCH   1  22
ATOM     20  C   UNL     1       2.802   4.385  20.073  0.00  0.00    +0.000 A 
ATOM     21  C   UNL     1       2.268   5.710  19.971  0.00  0.00    +0.000 A 
ATOM     22  C   UNL     1       2.528   6.564  18.856  0.00  0.00    +0.000 A 
ATOM     23  C   UNL     1       3.355   6.053  17.868  0.00  0.00    +0.000 A 
ATOM     24  C   UNL     1       3.883   4.747  17.948  0.00  0.00    +0.000 A 
ATOM     25  C   UNL     1       3.624   3.887  19.046  0.00  0.00    +0.000 A 
BRANCH  20  27
ATOM     26  C   UNL     1       1.395   2.862  21.299  0.00  0.00    +0.000 C 
ATOM     27  O   UNL     1       2.620   3.570  21.162  0.00  0.00    +0.000 OA
ENDBRANCH  20  27
BRANCH  24  28
ATOM     28  O   UNL     1       4.721   4.478  16.883  0.00  0.00    +0.000 OA
ATOM     29  C   UNL     1       6.079   4.885  16.982  0.00  0.00    +0.000 C 
ENDBRANCH  24  28
BRANCH  25  30
ATOM     30  O   UNL     1       4.205   2.659  18.952  0.00  0.00    +0.000 OA
ATOM     31  C   UNL     1       3.622   1.457  18.475  0.00  0.00    +0.000 C 
ENDBRANCH  25  30
ENDBRANCH   1  22
TORSDOF 7
ENDMDL
MODEL 9
REMARK VINA RESULT:      -7.5      2.340      8.400
REMARK  Name = 
REMARK  11 active torsions:
REMARK  status: ('A' for Active; 'I' for Inactive)
REMARK    1  A    between atoms: C_1  and  O_2
REMARK    2  A    between atoms: O_2  and  C_3
REMARK    3  A    between atoms: C_5  and  C_6
REMARK    4  A    between atoms: N_8  and  C_9
REMARK    5  A    between atoms: CA_10  and  C_11
REMARK    6  A    between atoms: C_11  and  OXT_13
REMARK    7  A    between atoms: C_18  and  C_19
REMARK    8  A    between atoms: C_23  and  O_24
REMARK    9  A    between atoms: O_24  and  C_25
REMARK   10  A    between atoms: C_26  and  O_27
REMARK   11  A    between atoms: O_27  and  C_28
REMARK                            x       y       z     vdW  Elec       q    Type
REMARK                         _______ _______ _______ _____ _____    ______ ____
ROOT
ATOM      1  C   UNL     1       1.813   7.841  18.712  0.00  0.00    +0.000 C 
ATOM      2  O   UNL     1       1.639   8.108  17.510  0.00  0.00    +0.000 OA
ATOM      3  N   UNL     1       1.365   8.715  19.768  0.00  0.00    +0.000 N 
ATOM      4  H   UNL     1       1.755   8.668  20.702  0.00  0.00    +0.000 HD
ENDROOT
BRANCH   3   5
ATOM      5  C   UNL     1       0.512   9.806  19.447  0.00  0.00    +0.000 A 
ATOM      6  CA  UNL     1       1.037  11.096  19.565  0.00  0.00    +0.000 A 
ATOM      7  N   UNL     1      -0.051  11.694  20.172  0.00  0.00    +0.000 N 
ATOM      8  C   UNL     1      -1.067  11.409  19.271  0.00  0.00    +0.000 A 
ATOM      9  C   UNL     1      -2.201  12.163  18.978  0.00  0.00    +0.000 A 
ATOM     10  C   UNL     1      -2.845  11.866  17.789  0.00  0.00    +0.000 A 
ATOM     11  C   UNL     1      -2.402  10.807  16.982  0.00  0.00    +0.000 A 
ATOM     12  C   UNL     1      -2.962  10.788  15.572  0.00  0.00    +0.000 C 
ATOM     13  C   UNL     1      -1.388   9.897  17.451  0.00  0.00    +0.000 A 
ATOM     14  C   UNL     1      -0.647  10.231  18.621  0.00  0.00    +0.000 A 
ATOM     15  H   UNL     1      -0.223  11.635  21.169  0.00  0.00    +0.000 HD
BRANCH   6  16
ATOM     16  C   UNL     1       1.928  11.651  18.549  0.00  0.00    +0.000 C 
ATOM     17  O   UNL     1       2.481  12.740  18.614  0.00  0.00    +0.000 OA
BRANCH  16  18
ATOM     18  OXT UNL     1       2.206  10.777  17.549  0.00  0.00    +0.000 OA
ATOM     19  HXT UNL     1       1.408  10.383  17.158  0.00  0.00    +0.000 HD
ENDBRANCH  16  18
ENDBRANCH   6  16
ENDBRANCH   3   5
BRANCH   1  22
ATOM     20  C   UNL     1       2.945   4.460  20.348  0.00  0.00    +0.000 A 
ATOM     21  C   UNL     1       2.205   5.646  20.037  0.00  0.00    +0.000 A 
ATOM     22  C   UNL     1       2.579   6.537  18.985  0.00  0.00    +0.000 A 
ATOM     23  C   UNL     1       3.725   6.209  18.279  0.00  0.00    +0.000 A 
ATOM     24  C   UNL     1       4.462   5.040  18.565  0.00  0.00    +0.000 A 
ATOM     25  C   UNL     1       4.094   4.144  19.601  0.00  0.00    +0.000 A 
BRANCH  20  27
ATOM     26  C   UNL     1       1.466   2.829  21.326  0.00  0.00    +0.000 C 
ATOM     27  O   UNL     1       2.643   3.624  21.393  0.00  0.00    +0.000 OA
ENDBRANCH  20  27
BRANCH  24  28
ATOM     28  O   UNL     1       5.591   4.952  17.774  0.00  0.00    +0.000 OA
ATOM     29  C   UNL     1       5.416   4.789  16.374  0.00  0.00    +0.000 C 
ENDBRANCH  24  28
BRANCH  25  30
ATOM     30  O   UNL     1       4.913   3.063  19.730  0.00  0.00    +0.000 OA
ATOM     31  C   UNL     1       4.582   1.696  19.535  0.00  0.00    +0.000 C 
ENDBRANCH  25  30
ENDBRANCH   1  22
TORSDOF 7
ENDMDL
