MODEL 1
REMARK VINA RESULT:      -7.4      0.000      0.000
REMARK  Name = 
REMARK  8 active torsions:
REMARK  status: ('A' for Active; 'I' for Inactive)
REMARK    1  A    between atoms: C_1  and  N_2
REMARK    2  A    between atoms: N_2  and  C_3
REMARK    3  A    between atoms: C_4  and  C_6
REMARK    4  A    between atoms: N_12  and  C_13
REMARK    5  A    between atoms: C_14  and  C_15
REMARK    6  A    between atoms: C_15  and  C_16
REMARK    7  A    between atoms: N_18  and  C_19
REMARK    8  A    between atoms: C_19  and  C_20
REMARK                            x       y       z     vdW  Elec       q    Type
REMARK                         _______ _______ _______ _____ _____    ______ ____
ROOT
ATOM      1  C   UNL     1       1.149   9.917  19.671  0.00  0.00    +0.000 A 
ATOM      2  C   UNL     1       0.754   9.505  20.948  0.00  0.00    +0.000 A 
ATOM      3  C   UNL     1       0.945   8.179  21.338  0.00  0.00    +0.000 A 
ATOM      4  C   UNL     1       1.519   7.256  20.445  0.00  0.00    +0.000 A 
ATOM      5  C   UNL     1       1.986   7.666  19.179  0.00  0.00    +0.000 A 
ATOM      6  C   UNL     1       1.824   9.011  18.849  0.00  0.00    +0.000 A 
ATOM      7  N   UNL     1       2.580   6.767  18.284  0.00  0.00    +0.000 N 
ATOM      8  C   UNL     1       3.238   7.238  17.076  0.00  0.00    +0.000 C 
ATOM      9  C   UNL     1       3.049   5.517  18.911  0.00  0.00    +0.000 C 
ATOM     10  C   UNL     1       1.928   5.029  19.867  0.00  0.00    +0.000 C 
ATOM     11  O   UNL     1       1.647   5.970  20.911  0.00  0.00    +0.000 OA
ENDROOT
BRANCH   1  15
ATOM     12  C   UNL     1      -0.471  13.079  18.283  0.00  0.00    +0.000 C 
ATOM     13  N   UNL     1      -0.345  11.713  18.747  0.00  0.00    +0.000 N 
ATOM     14  C   UNL     1      -1.574  10.921  18.800  0.00  0.00    +0.000 C 
ATOM     15  C   UNL     1       0.917  11.324  19.228  0.00  0.00    +0.000 C 
ATOM     16  O   UNL     1       1.863  12.103  19.296  0.00  0.00    +0.000 OA
ENDBRANCH   1  15
BRANCH   9  17
ATOM     17  C   UNL     1       4.376   5.751  19.652  0.00  0.00    +0.000 C 
BRANCH  17  18
ATOM     18  C   UNL     1       5.460   4.881  19.064  0.00  0.00    +0.000 C 
ATOM     19  O   UNL     1       5.564   3.682  19.304  0.00  0.00    +0.000 OA
ATOM     20  N   UNL     1       6.311   5.533  18.207  0.00  0.00    +0.000 N 
ATOM     21  H   UNL     1       6.039   6.410  17.775  0.00  0.00    +0.000 HD
BRANCH  20  22
ATOM     22  C   UNL     1       7.410   4.829  17.596  0.00  0.00    +0.000 C 
BRANCH  22  23
ATOM     23  C   UNL     1       7.123   4.619  16.148  0.00  0.00    +0.000 A 
ATOM     24  N   UNL     1       7.632   5.285  15.128  0.00  0.00    +0.000 NA
ATOM     25  C   UNL     1       7.019   4.775  14.011  0.00  0.00    +0.000 A 
ATOM     26  C   UNL     1       6.139   3.778  14.352  0.00  0.00    +0.000 A 
ATOM     27  N   UNL     1       6.224   3.675  15.712  0.00  0.00    +0.000 N 
ATOM     28  H   UNL     1       5.705   3.036  16.299  0.00  0.00    +0.000 HD
ENDBRANCH  22  23
ENDBRANCH  20  22
ENDBRANCH  17  18
ENDBRANCH   9  17
TORSDOF 5
ENDMDL
MODEL 2
REMARK VINA RESULT:      -6.7      1.724      2.395
REMARK  Name = 
REMARK  8 active torsions:
REMARK  status: ('A' for Active; 'I' for Inactive)
REMARK    1  A    between atoms: C_1  and  N_2
REMARK    2  A    between atoms: N_2  and  C_3
REMARK    3  A    between atoms: C_4  and  C_6
REMARK    4  A    between atoms: N_12  and  C_13
REMARK    5  A    between atoms: C_14  and  C_15
REMARK    6  A    between atoms: C_15  and  C_16
REMARK    7  A    between atoms: N_18  and  C_19
REMARK    8  A    between atoms: C_19  and  C_20
REMARK                            x       y       z     vdW  Elec       q    Type
REMARK                         _______ _______ _______ _____ _____    ______ ____
ROOT
ATOM      1  C   UNL     1       1.589   7.788  20.523  0.00  0.00    +0.000 A 
ATOM      2  C   UNL     1       1.051   6.687  21.199  0.00  0.00    +0.000 A 
ATOM      3  C   UNL     1       1.294   5.398  20.726  0.00  0.00    +0.000 A 
ATOM      4  C   UNL     1       2.064   5.205  19.564  0.00  0.00    +0.000 A 
ATOM      5  C   UNL     1       2.671   6.296  18.908  0.00  0.00    +0.000 A 
ATOM      6  C   UNL     1       2.447   7.563  19.444  0.00  0.00    +0.000 A 
ATOM      7  N   UNL     1       3.460   6.123  17.763  0.00  0.00    +0.000 N 
ATOM      8  C   UNL     1       4.242   7.222  17.219  0.00  0.00    +0.000 C 
ATOM      9  C   UNL     1       3.936   4.741  17.565  0.00  0.00    +0.000 C 
ATOM     10  C   UNL     1       2.735   3.795  17.826  0.00  0.00    +0.000 C 
ATOM     11  O   UNL     1       2.231   3.902  19.163  0.00  0.00    +0.000 OA
ENDROOT
BRANCH   1  15
ATOM     12  C   UNL     1       0.626  11.478  20.627  0.00  0.00    +0.000 C 
ATOM     13  N   UNL     1       0.818  10.142  20.101  0.00  0.00    +0.000 N 
ATOM     14  C   UNL     1       0.353   9.901  18.736  0.00  0.00    +0.000 C 
ATOM     15  C   UNL     1       1.307   9.175  20.998  0.00  0.00    +0.000 C 
ATOM     16  O   UNL     1       1.525   9.425  22.180  0.00  0.00    +0.000 OA
ENDBRANCH   1  15
BRANCH   9  17
ATOM     17  C   UNL     1       5.119   4.441  18.499  0.00  0.00    +0.000 C 
BRANCH  17  18
ATOM     18  C   UNL     1       6.422   4.590  17.752  0.00  0.00    +0.000 C 
ATOM     19  O   UNL     1       7.519   4.556  18.300  0.00  0.00    +0.000 OA
ATOM     20  N   UNL     1       6.286   4.739  16.394  0.00  0.00    +0.000 N 
ATOM     21  H   UNL     1       5.432   4.454  15.925  0.00  0.00    +0.000 HD
BRANCH  20  22
ATOM     22  C   UNL     1       7.448   4.922  15.561  0.00  0.00    +0.000 C 
BRANCH  22  23
ATOM     23  C   UNL     1       7.110   4.572  14.152  0.00  0.00    +0.000 A 
ATOM     24  N   UNL     1       6.266   3.644  13.740  0.00  0.00    +0.000 NA
ATOM     25  C   UNL     1       6.344   3.657  12.369  0.00  0.00    +0.000 A 
ATOM     26  C   UNL     1       7.232   4.611  11.942  0.00  0.00    +0.000 A 
ATOM     27  N   UNL     1       7.702   5.199  13.082  0.00  0.00    +0.000 N 
ATOM     28  H   UNL     1       8.380   5.947  13.135  0.00  0.00    +0.000 HD
ENDBRANCH  22  23
ENDBRANCH  20  22
ENDBRANCH  17  18
ENDBRANCH   9  17
TORSDOF 5
ENDMDL
MODEL 3
REMARK VINA RESULT:      -6.7      0.940      1.187
REMARK  Name = 
REMARK  8 active torsions:
REMARK  status: ('A' for Active; 'I' for Inactive)
REMARK    1  A    between atoms: C_1  and  N_2
REMARK    2  A    between atoms: N_2  and  C_3
REMARK    3  A    between atoms: C_4  and  C_6
REMARK    4  A    between atoms: N_12  and  C_13
REMARK    5  A    between atoms: C_14  and  C_15
REMARK    6  A    between atoms: C_15  and  C_16
REMARK    7  A    between atoms: N_18  and  C_19
REMARK    8  A    between atoms: C_19  and  C_20
REMARK                            x       y       z     vdW  Elec       q    Type
REMARK                         _______ _______ _______ _____ _____    ______ ____
ROOT
ATOM      1  C   UNL     1       0.988   9.442  20.128  0.00  0.00    +0.000 A 
ATOM      2  C   UNL     1       0.666   8.772  21.313  0.00  0.00    +0.000 A 
ATOM      3  C   UNL     1       1.018   7.430  21.468  0.00  0.00    +0.000 A 
ATOM      4  C   UNL     1       1.681   6.750  20.430  0.00  0.00    +0.000 A 
ATOM      5  C   UNL     1       2.075   7.426  19.256  0.00  0.00    +0.000 A 
ATOM      6  C   UNL     1       1.750   8.779  19.164  0.00  0.00    +0.000 A 
ATOM      7  N   UNL     1       2.755   6.771  18.220  0.00  0.00    +0.000 N 
ATOM      8  C   UNL     1       3.332   7.519  17.114  0.00  0.00    +0.000 C 
ATOM      9  C   UNL     1       3.378   5.496  18.622  0.00  0.00    +0.000 C 
ATOM     10  C   UNL     1       2.338   4.721  19.475  0.00  0.00    +0.000 C 
ATOM     11  O   UNL     1       1.967   5.427  20.665  0.00  0.00    +0.000 OA
ENDROOT
BRANCH   1  15
ATOM     12  C   UNL     1      -0.751  12.599  18.879  0.00  0.00    +0.000 C 
ATOM     13  N   UNL     1      -0.461  11.191  19.053  0.00  0.00    +0.000 N 
ATOM     14  C   UNL     1      -1.373  10.247  18.408  0.00  0.00    +0.000 C 
ATOM     15  C   UNL     1       0.586  10.867  19.935  0.00  0.00    +0.000 C 
ATOM     16  O   UNL     1       1.203  11.721  20.564  0.00  0.00    +0.000 OA
ENDBRANCH   1  15
BRANCH   9  17
ATOM     17  C   UNL     1       4.680   5.754  19.397  0.00  0.00    +0.000 C 
BRANCH  17  18
ATOM     18  C   UNL     1       5.859   5.727  18.455  0.00  0.00    +0.000 C 
ATOM     19  O   UNL     1       6.290   6.727  17.889  0.00  0.00    +0.000 OA
ATOM     20  N   UNL     1       6.437   4.491  18.301  0.00  0.00    +0.000 N 
ATOM     21  H   UNL     1       6.289   3.762  18.990  0.00  0.00    +0.000 HD
BRANCH  20  22
ATOM     22  C   UNL     1       7.554   4.316  17.408  0.00  0.00    +0.000 C 
BRANCH  22  23
ATOM     23  C   UNL     1       7.074   4.363  15.997  0.00  0.00    +0.000 A 
ATOM     24  N   UNL     1       6.188   3.566  15.428  0.00  0.00    +0.000 NA
ATOM     25  C   UNL     1       6.128   3.959  14.114  0.00  0.00    +0.000 A 
ATOM     26  C   UNL     1       6.973   5.015  13.884  0.00  0.00    +0.000 A 
ATOM     27  N   UNL     1       7.559   5.275  15.091  0.00  0.00    +0.000 N 
ATOM     28  H   UNL     1       8.242   5.995  15.283  0.00  0.00    +0.000 HD
ENDBRANCH  22  23
ENDBRANCH  20  22
ENDBRANCH  17  18
ENDBRANCH   9  17
TORSDOF 5
ENDMDL
MODEL 4
REMARK VINA RESULT:      -6.6      2.423      8.810
REMARK  Name = 
REMARK  8 active torsions:
REMARK  status: ('A' for Active; 'I' for Inactive)
REMARK    1  A    between atoms: C_1  and  N_2
REMARK    2  A    between atoms: N_2  and  C_3
REMARK    3  A    between atoms: C_4  and  C_6
REMARK    4  A    between atoms: N_12  and  C_13
REMARK    5  A    between atoms: C_14  and  C_15
REMARK    6  A    between atoms: C_15  and  C_16
REMARK    7  A    between atoms: N_18  and  C_19
REMARK    8  A    between atoms: C_19  and  C_20
REMARK                            x       y       z     vdW  Elec       q    Type
REMARK                         _______ _______ _______ _____ _____    ______ ____
ROOT
ATOM      1  C   UNL     1       2.801   5.573  18.557  0.00  0.00    +0.000 A 
ATOM      2  C   UNL     1       2.389   4.993  19.762  0.00  0.00    +0.000 A 
ATOM      3  C   UNL     1       1.804   5.787  20.749  0.00  0.00    +0.000 A 
ATOM      4  C   UNL     1       1.644   7.170  20.539  0.00  0.00    +0.000 A 
ATOM      5  C   UNL     1       1.989   7.761  19.306  0.00  0.00    +0.000 A 
ATOM      6  C   UNL     1       2.522   6.922  18.328  0.00  0.00    +0.000 A 
ATOM      7  N   UNL     1       1.816   9.131  19.070  0.00  0.00    +0.000 N 
ATOM      8  C   UNL     1       1.983   9.688  17.736  0.00  0.00    +0.000 C 
ATOM      9  C   UNL     1       0.888   9.790  20.008  0.00  0.00    +0.000 C 
ATOM     10  C   UNL     1       1.238   9.289  21.434  0.00  0.00    +0.000 C 
ATOM     11  O   UNL     1       1.078   7.872  21.575  0.00  0.00    +0.000 OA
ENDROOT
BRANCH   1  15
ATOM     12  C   UNL     1       5.283   4.263  15.973  0.00  0.00    +0.000 C 
ATOM     13  N   UNL     1       4.738   5.088  17.032  0.00  0.00    +0.000 N 
ATOM     14  C   UNL     1       5.624   6.106  17.594  0.00  0.00    +0.000 C 
ATOM     15  C   UNL     1       3.460   4.741  17.507  0.00  0.00    +0.000 C 
ATOM     16  O   UNL     1       2.845   3.766  17.086  0.00  0.00    +0.000 OA
ENDBRANCH   1  15
BRANCH   9  17
ATOM     17  C   UNL     1      -0.569   9.479  19.630  0.00  0.00    +0.000 C 
BRANCH  17  18
ATOM     18  C   UNL     1      -1.180  10.653  18.905  0.00  0.00    +0.000 C 
ATOM     19  O   UNL     1      -0.959  11.820  19.210  0.00  0.00    +0.000 OA
ATOM     20  N   UNL     1      -1.985  10.311  17.846  0.00  0.00    +0.000 N 
ATOM     21  H   UNL     1      -1.910   9.397  17.412  0.00  0.00    +0.000 HD
BRANCH  20  22
ATOM     22  C   UNL     1      -2.656  11.333  17.083  0.00  0.00    +0.000 C 
BRANCH  22  23
ATOM     23  C   UNL     1      -3.999  11.594  17.674  0.00  0.00    +0.000 A 
ATOM     24  N   UNL     1      -5.163  11.147  17.240  0.00  0.00    +0.000 NA
ATOM     25  C   UNL     1      -6.105  11.705  18.068  0.00  0.00    +0.000 A 
ATOM     26  C   UNL     1      -5.509  12.487  19.025  0.00  0.00    +0.000 A 
ATOM     27  N   UNL     1      -4.168  12.398  18.776  0.00  0.00    +0.000 N 
ATOM     28  H   UNL     1      -3.430  12.855  19.294  0.00  0.00    +0.000 HD
ENDBRANCH  22  23
ENDBRANCH  20  22
ENDBRANCH  17  18
ENDBRANCH   9  17
TORSDOF 5
ENDMDL
MODEL 5
REMARK VINA RESULT:      -6.4      2.543      9.171
REMARK  Name = 
REMARK  8 active torsions:
REMARK  status: ('A' for Active; 'I' for Inactive)
REMARK    1  A    between atoms: C_1  and  N_2
REMARK    2  A    between atoms: N_2  and  C_3
REMARK    3  A    between atoms: C_4  and  C_6
REMARK    4  A    between atoms: N_12  and  C_13
REMARK    5  A    between atoms: C_14  and  C_15
REMARK    6  A    between atoms: C_15  and  C_16
REMARK    7  A    between atoms: N_18  and  C_19
REMARK    8  A    between atoms: C_19  and  C_20
REMARK                            x       y       z     vdW  Elec       q    Type
REMARK                         _______ _______ _______ _____ _____    ______ ____
ROOT
ATOM      1  C   UNL     1       2.727   5.638  18.701  0.00  0.00    +0.000 A 
ATOM      2  C   UNL     1       2.280   5.107  19.915  0.00  0.00    +0.000 A 
ATOM      3  C   UNL     1       1.687   5.944  20.861  0.00  0.00    +0.000 A 
ATOM      4  C   UNL     1       1.553   7.321  20.600  0.00  0.00    +0.000 A 
ATOM      5  C   UNL     1       1.935   7.863  19.355  0.00  0.00    +0.000 A 
ATOM      6  C   UNL     1       2.475   6.982  18.419  0.00  0.00    +0.000 A 
ATOM      7  N   UNL     1       1.789   9.226  19.068  0.00  0.00    +0.000 N 
ATOM      8  C   UNL     1       1.994   9.733  17.720  0.00  0.00    +0.000 C 
ATOM      9  C   UNL     1       0.852   9.932  19.961  0.00  0.00    +0.000 C 
ATOM     10  C   UNL     1       1.163   9.476  21.412  0.00  0.00    +0.000 C 
ATOM     11  O   UNL     1       0.977   8.068  21.598  0.00  0.00    +0.000 OA
ENDROOT
BRANCH   1  15
ATOM     12  C   UNL     1       5.338   4.033  16.429  0.00  0.00    +0.000 C 
ATOM     13  N   UNL     1       4.777   4.881  17.461  0.00  0.00    +0.000 N 
ATOM     14  C   UNL     1       5.723   5.672  18.247  0.00  0.00    +0.000 C 
ATOM     15  C   UNL     1       3.396   4.759  17.696  0.00  0.00    +0.000 C 
ATOM     16  O   UNL     1       2.696   3.950  17.094  0.00  0.00    +0.000 OA
ENDBRANCH   1  15
BRANCH   9  17
ATOM     17  C   UNL     1      -0.602   9.630  19.563  0.00  0.00    +0.000 C 
BRANCH  17  18
ATOM     18  C   UNL     1      -1.339  10.915  19.274  0.00  0.00    +0.000 C 
ATOM     19  O   UNL     1      -1.821  11.182  18.178  0.00  0.00    +0.000 OA
ATOM     20  N   UNL     1      -1.456  11.758  20.352  0.00  0.00    +0.000 N 
ATOM     21  H   UNL     1      -1.346  11.408  21.298  0.00  0.00    +0.000 HD
BRANCH  20  22
ATOM     22  C   UNL     1      -2.112  13.034  20.210  0.00  0.00    +0.000 C 
BRANCH  22  23
ATOM     23  C   UNL     1      -3.584  12.857  20.367  0.00  0.00    +0.000 A 
ATOM     24  N   UNL     1      -4.262  12.772  21.496  0.00  0.00    +0.000 NA
ATOM     25  C   UNL     1      -5.566  12.550  21.129  0.00  0.00    +0.000 A 
ATOM     26  C   UNL     1      -5.685  12.514  19.762  0.00  0.00    +0.000 A 
ATOM     27  N   UNL     1      -4.422  12.726  19.286  0.00  0.00    +0.000 N 
ATOM     28  H   UNL     1      -4.145  12.760  18.314  0.00  0.00    +0.000 HD
ENDBRANCH  22  23
ENDBRANCH  20  22
ENDBRANCH  17  18
ENDBRANCH   9  17
TORSDOF 5
ENDMDL
MODEL 6
REMARK VINA RESULT:      -6.3      3.183      9.480
REMARK  Name = 
REMARK  8 active torsions:
REMARK  status: ('A' for Active; 'I' for Inactive)
REMARK    1  A    between atoms: C_1  and  N_2
REMARK    2  A    between atoms: N_2  and  C_3
REMARK    3  A    between atoms: C_4  and  C_6
REMARK    4  A    between atoms: N_12  and  C_13
REMARK    5  A    between atoms: C_14  and  C_15
REMARK    6  A    between atoms: C_15  and  C_16
REMARK    7  A    between atoms: N_18  and  C_19
REMARK    8  A    between atoms: C_19  and  C_20
REMARK                            x       y       z     vdW  Elec       q    Type
REMARK                         _______ _______ _______ _____ _____    ______ ____
ROOT
ATOM      1  C   UNL     1       2.906   6.718  19.129  0.00  0.00    +0.000 A 
ATOM      2  C   UNL     1       3.163   7.341  17.903  0.00  0.00    +0.000 A 
ATOM      3  C   UNL     1       2.469   8.499  17.555  0.00  0.00    +0.000 A 
ATOM      4  C   UNL     1       1.502   9.032  18.428  0.00  0.00    +0.000 A 
ATOM      5  C   UNL     1       1.277   8.459  19.696  0.00  0.00    +0.000 A 
ATOM      6  C   UNL     1       2.029   7.332  20.026  0.00  0.00    +0.000 A 
ATOM      7  N   UNL     1       0.334   8.987  20.588  0.00  0.00    +0.000 N 
ATOM      8  C   UNL     1       0.257   8.515  21.962  0.00  0.00    +0.000 C 
ATOM      9  C   UNL     1      -0.068  10.373  20.286  0.00  0.00    +0.000 C 
ATOM     10  C   UNL     1      -0.317  10.460  18.756  0.00  0.00    +0.000 C 
ATOM     11  O   UNL     1       0.856  10.162  17.990  0.00  0.00    +0.000 OA
ENDROOT
BRANCH   1  15
ATOM     12  C   UNL     1       3.667   3.068  19.935  0.00  0.00    +0.000 C 
ATOM     13  N   UNL     1       2.921   4.235  19.511  0.00  0.00    +0.000 N 
ATOM     14  C   UNL     1       1.568   4.001  19.006  0.00  0.00    +0.000 C 
ATOM     15  C   UNL     1       3.616   5.457  19.498  0.00  0.00    +0.000 C 
ATOM     16  O   UNL     1       4.805   5.540  19.788  0.00  0.00    +0.000 OA
ENDBRANCH   1  15
BRANCH   9  17
ATOM     17  C   UNL     1       1.014  11.361  20.749  0.00  0.00    +0.000 C 
BRANCH  17  18
ATOM     18  C   UNL     1       0.403  12.429  21.624  0.00  0.00    +0.000 C 
ATOM     19  O   UNL     1       0.881  13.552  21.747  0.00  0.00    +0.000 OA
ATOM     20  N   UNL     1      -0.758  12.053  22.253  0.00  0.00    +0.000 N 
ATOM     21  H   UNL     1      -1.303  11.269  21.910  0.00  0.00    +0.000 HD
BRANCH  20  22
ATOM     22  C   UNL     1      -1.432  12.965  23.142  0.00  0.00    +0.000 C 
BRANCH  22  23
ATOM     23  C   UNL     1      -2.840  13.151  22.689  0.00  0.00    +0.000 A 
ATOM     24  N   UNL     1      -3.885  12.407  23.003  0.00  0.00    +0.000 NA
ATOM     25  C   UNL     1      -4.938  12.932  22.297  0.00  0.00    +0.000 A 
ATOM     26  C   UNL     1      -4.535  14.016  21.557  0.00  0.00    +0.000 A 
ATOM     27  N   UNL     1      -3.203  14.157  21.826  0.00  0.00    +0.000 N 
ATOM     28  H   UNL     1      -2.585  14.860  21.444  0.00  0.00    +0.000 HD
ENDBRANCH  22  23
ENDBRANCH  20  22
ENDBRANCH  17  18
ENDBRANCH   9  17
TORSDOF 5
ENDMDL
MODEL 7
REMARK VINA RESULT:      -6.2      2.921      9.284
REMARK  Name = 
REMARK  8 active torsions:
REMARK  status: ('A' for Active; 'I' for Inactive)
REMARK    1  A    between atoms: C_1  and  N_2
REMARK    2  A    between atoms: N_2  and  C_3
REMARK    3  A    between atoms: C_4  and  C_6
REMARK    4  A    between atoms: N_12  and  C_13
REMARK    5  A    between atoms: C_14  and  C_15
REMARK    6  A    between atoms: C_15  and  C_16
REMARK    7  A    between atoms: N_18  and  C_19
REMARK    8  A    between atoms: C_19  and  C_20
REMARK                            x       y       z     vdW  Elec       q    Type
REMARK                         _______ _______ _______ _____ _____    ______ ____
ROOT
ATOM      1  C   UNL     1       2.704   6.343  19.468  0.00  0.00    +0.000 A 
ATOM      2  C   UNL     1       1.993   5.914  20.594  0.00  0.00    +0.000 A 
ATOM      3  C   UNL     1       1.105   6.784  21.225  0.00  0.00    +0.000 A 
ATOM      4  C   UNL     1       0.935   8.094  20.741  0.00  0.00    +0.000 A 
ATOM      5  C   UNL     1       1.590   8.523  19.568  0.00  0.00    +0.000 A 
ATOM      6  C   UNL     1       2.429   7.605  18.938  0.00  0.00    +0.000 A 
ATOM      7  N   UNL     1       1.417   9.817  19.057  0.00  0.00    +0.000 N 
ATOM      8  C   UNL     1       1.932  10.178  17.746  0.00  0.00    +0.000 C 
ATOM      9  C   UNL     1       0.222  10.511  19.571  0.00  0.00    +0.000 C 
ATOM     10  C   UNL     1       0.170  10.272  21.103  0.00  0.00    +0.000 C 
ATOM     11  O   UNL     1       0.055   8.884  21.440  0.00  0.00    +0.000 OA
ENDROOT
BRANCH   1  15
ATOM     12  C   UNL     1       4.245   3.490  17.458  0.00  0.00    +0.000 C 
ATOM     13  N   UNL     1       3.231   4.358  18.019  0.00  0.00    +0.000 N 
ATOM     14  C   UNL     1       1.851   4.115  17.599  0.00  0.00    +0.000 C 
ATOM     15  C   UNL     1       3.685   5.433  18.804  0.00  0.00    +0.000 C 
ATOM     16  O   UNL     1       4.878   5.661  18.979  0.00  0.00    +0.000 OA
ENDBRANCH   1  15
BRANCH   9  17
ATOM     17  C   UNL     1      -1.044   9.998  18.866  0.00  0.00    +0.000 C 
BRANCH  17  18
ATOM     18  C   UNL     1      -2.001  11.138  18.621  0.00  0.00    +0.000 C 
ATOM     19  O   UNL     1      -1.733  12.307  18.879  0.00  0.00    +0.000 OA
ATOM     20  N   UNL     1      -3.195  10.768  18.052  0.00  0.00    +0.000 N 
ATOM     21  H   UNL     1      -3.282   9.884  17.561  0.00  0.00    +0.000 HD
BRANCH  20  22
ATOM     22  C   UNL     1      -4.213  11.753  17.790  0.00  0.00    +0.000 C 
BRANCH  22  23
ATOM     23  C   UNL     1      -5.304  11.620  18.798  0.00  0.00    +0.000 A 
ATOM     24  N   UNL     1      -5.395  12.235  19.963  0.00  0.00    +0.000 NA
ATOM     25  C   UNL     1      -6.532  11.742  20.553  0.00  0.00    +0.000 A 
ATOM     26  C   UNL     1      -7.148  10.829  19.734  0.00  0.00    +0.000 A 
ATOM     27  N   UNL     1      -6.368  10.770  18.613  0.00  0.00    +0.000 N 
ATOM     28  H   UNL     1      -6.529  10.191  17.801  0.00  0.00    +0.000 HD
ENDBRANCH  22  23
ENDBRANCH  20  22
ENDBRANCH  17  18
ENDBRANCH   9  17
TORSDOF 5
ENDMDL
MODEL 8
REMARK VINA RESULT:      -6.2      1.315      1.490
REMARK  Name = 
REMARK  8 active torsions:
REMARK  status: ('A' for Active; 'I' for Inactive)
REMARK    1  A    between atoms: C_1  and  N_2
REMARK    2  A    between atoms: N_2  and  C_3
REMARK    3  A    between atoms: C_4  and  C_6
REMARK    4  A    between atoms: N_12  and  C_13
REMARK    5  A    between atoms: C_14  and  C_15
REMARK    6  A    between atoms: C_15  and  C_16
REMARK    7  A    between atoms: N_18  and  C_19
REMARK    8  A    between atoms: C_19  and  C_20
REMARK                            x       y       z     vdW  Elec       q    Type
REMARK                         _______ _______ _______ _____ _____    ______ ____
ROOT
ATOM      1  C   UNL     1       1.392   8.742  19.742  0.00  0.00    +0.000 A 
ATOM      2  C   UNL     1       0.883   8.088  20.869  0.00  0.00    +0.000 A 
ATOM      3  C   UNL     1       1.179   6.742  21.082  0.00  0.00    +0.000 A 
ATOM      4  C   UNL     1       1.975   6.040  20.158  0.00  0.00    +0.000 A 
ATOM      5  C   UNL     1       2.553   6.697  19.053  0.00  0.00    +0.000 A 
ATOM      6  C   UNL     1       2.275   8.055  18.906  0.00  0.00    +0.000 A 
ATOM      7  N   UNL     1       3.366   6.020  18.134  0.00  0.00    +0.000 N 
ATOM      8  C   UNL     1       4.118   6.747  17.122  0.00  0.00    +0.000 C 
ATOM      9  C   UNL     1       3.896   4.737  18.632  0.00  0.00    +0.000 C 
ATOM     10  C   UNL     1       2.724   3.990  19.324  0.00  0.00    +0.000 C 
ATOM     11  O   UNL     1       2.195   4.714  20.442  0.00  0.00    +0.000 OA
ENDROOT
BRANCH   1  15
ATOM     12  C   UNL     1       0.035  12.288  20.109  0.00  0.00    +0.000 C 
ATOM     13  N   UNL     1       0.378  10.926  20.461  0.00  0.00    +0.000 N 
ATOM     14  C   UNL     1       0.117  10.518  21.841  0.00  0.00    +0.000 C 
ATOM     15  C   UNL     1       1.052  10.173  19.483  0.00  0.00    +0.000 C 
ATOM     16  O   UNL     1       1.377  10.646  18.398  0.00  0.00    +0.000 OA
ENDBRANCH   1  15
BRANCH   9  17
ATOM     17  C   UNL     1       5.073   4.975  19.591  0.00  0.00    +0.000 C 
BRANCH  17  18
ATOM     18  C   UNL     1       6.353   5.143  18.810  0.00  0.00    +0.000 C 
ATOM     19  O   UNL     1       7.270   5.873  19.172  0.00  0.00    +0.000 OA
ATOM     20  N   UNL     1       6.427   4.385  17.667  0.00  0.00    +0.000 N 
ATOM     21  H   UNL     1       5.831   3.573  17.546  0.00  0.00    +0.000 HD
BRANCH  20  22
ATOM     22  C   UNL     1       7.582   4.470  16.810  0.00  0.00    +0.000 C 
BRANCH  22  23
ATOM     23  C   UNL     1       7.147   4.437  15.385  0.00  0.00    +0.000 A 
ATOM     24  N   UNL     1       7.598   5.186  14.395  0.00  0.00    +0.000 NA
ATOM     25  C   UNL     1       6.852   4.836  13.297  0.00  0.00    +0.000 A 
ATOM     26  C   UNL     1       5.948   3.854  13.618  0.00  0.00    +0.000 A 
ATOM     27  N   UNL     1       6.154   3.596  14.944  0.00  0.00    +0.000 N 
ATOM     28  H   UNL     1       5.654   2.923  15.509  0.00  0.00    +0.000 HD
ENDBRANCH  22  23
ENDBRANCH  20  22
ENDBRANCH  17  18
ENDBRANCH   9  17
TORSDOF 5
ENDMDL
MODEL 9
REMARK VINA RESULT:      -6.2      3.051      9.425
REMARK  Name = 
REMARK  8 active torsions:
REMARK  status: ('A' for Active; 'I' for Inactive)
REMARK    1  A    between atoms: C_1  and  N_2
REMARK    2  A    between atoms: N_2  and  C_3
REMARK    3  A    between atoms: C_4  and  C_6
REMARK    4  A    between atoms: N_12  and  C_13
REMARK    5  A    between atoms: C_14  and  C_15
REMARK    6  A    between atoms: C_15  and  C_16
REMARK    7  A    between atoms: N_18  and  C_19
REMARK    8  A    between atoms: C_19  and  C_20
REMARK                            x       y       z     vdW  Elec       q    Type
REMARK                         _______ _______ _______ _____ _____    ______ ____
ROOT
ATOM      1  C   UNL     1       2.523   5.855  18.790  0.00  0.00    +0.000 A 
ATOM      2  C   UNL     1       2.083   5.364  20.024  0.00  0.00    +0.000 A 
ATOM      3  C   UNL     1       1.554   6.242  20.970  0.00  0.00    +0.000 A 
ATOM      4  C   UNL     1       1.477   7.619  20.690  0.00  0.00    +0.000 A 
ATOM      5  C   UNL     1       1.851   8.123  19.427  0.00  0.00    +0.000 A 
ATOM      6  C   UNL     1       2.325   7.205  18.492  0.00  0.00    +0.000 A 
ATOM      7  N   UNL     1       1.761   9.488  19.122  0.00  0.00    +0.000 N 
ATOM      8  C   UNL     1       1.953   9.964  17.761  0.00  0.00    +0.000 C 
ATOM      9  C   UNL     1       0.880  10.249  20.027  0.00  0.00    +0.000 C 
ATOM     10  C   UNL     1       1.207   9.802  21.476  0.00  0.00    +0.000 C 
ATOM     11  O   UNL     1       0.962   8.407  21.690  0.00  0.00    +0.000 OA
ENDROOT
BRANCH   1  15
ATOM     12  C   UNL     1       4.982   4.138  16.432  0.00  0.00    +0.000 C 
ATOM     13  N   UNL     1       4.489   5.032  17.460  0.00  0.00    +0.000 N 
ATOM     14  C   UNL     1       5.486   5.846  18.155  0.00  0.00    +0.000 C 
ATOM     15  C   UNL     1       3.124   4.931  17.783  0.00  0.00    +0.000 C 
ATOM     16  O   UNL     1       2.384   4.104  17.258  0.00  0.00    +0.000 OA
ENDBRANCH   1  15
BRANCH   9  17
ATOM     17  C   UNL     1      -0.596  10.010  19.670  0.00  0.00    +0.000 C 
BRANCH  17  18
ATOM     18  C   UNL     1      -1.337  11.323  19.613  0.00  0.00    +0.000 C 
ATOM     19  O   UNL     1      -1.561  11.924  18.567  0.00  0.00    +0.000 OA
ATOM     20  N   UNL     1      -1.772  11.785  20.831  0.00  0.00    +0.000 N 
ATOM     21  H   UNL     1      -1.865  11.154  21.620  0.00  0.00    +0.000 HD
BRANCH  20  22
ATOM     22  C   UNL     1      -2.468  13.043  20.926  0.00  0.00    +0.000 C 
BRANCH  22  23
ATOM     23  C   UNL     1      -2.991  13.218  22.311  0.00  0.00    +0.000 A 
ATOM     24  N   UNL     1      -2.703  14.190  23.157  0.00  0.00    +0.000 NA
ATOM     25  C   UNL     1      -3.373  13.882  24.315  0.00  0.00    +0.000 A 
ATOM     26  C   UNL     1      -4.088  12.720  24.169  0.00  0.00    +0.000 A 
ATOM     27  N   UNL     1      -3.852  12.313  22.886  0.00  0.00    +0.000 N 
ATOM     28  H   UNL     1      -4.223  11.485  22.441  0.00  0.00    +0.000 HD
ENDBRANCH  22  23
ENDBRANCH  20  22
ENDBRANCH  17  18
ENDBRANCH   9  17
TORSDOF 5
ENDMDL
