MODEL 1
REMARK VINA RESULT:      -8.0      0.000      0.000
REMARK  Name = 
REMARK  6 active torsions:
REMARK  status: ('A' for Active; 'I' for Inactive)
REMARK    1  A    between atoms: N_1  and  C_2
REMARK    2  A    between atoms: C_5  and  S_6
REMARK    3  A    between atoms: S_6  and  N_9
REMARK    4  A    between atoms: N_9  and  C_10
REMARK    5  A    between atoms: C_10  and  C_11
REMARK    6  A    between atoms: N_21  and  C_22
REMARK                            x       y       z     vdW  Elec       q    Type
REMARK                         _______ _______ _______ _____ _____    ______ ____
ROOT
ATOM      1  C   UNL     1       2.975   5.831  18.407  0.00  0.00    +0.000 A 
ATOM      2  N   UNL     1       2.028   5.540  19.252  0.00  0.00    +0.000 NA
ATOM      3  C   UNL     1       2.146   4.383  20.034  0.00  0.00    +0.000 A 
ATOM      4  C   UNL     1       1.109   4.029  20.901  0.00  0.00    +0.000 A 
ATOM      5  C   UNL     1       1.205   2.886  21.703  0.00  0.00    +0.000 A 
ATOM      6  C   UNL     1       2.338   2.077  21.645  0.00  0.00    +0.000 A 
ATOM      7  C   UNL     1       3.364   2.403  20.764  0.00  0.00    +0.000 A 
ATOM      8  C   UNL     1       3.255   3.547  19.963  0.00  0.00    +0.000 A 
ATOM      9  C   UNL     1       4.316   3.896  19.013  0.00  0.00    +0.000 A 
ATOM     10  O   UNL     1       5.299   3.159  18.953  0.00  0.00    +0.000 OA
ATOM     11  N   UNL     1       4.126   5.065  18.263  0.00  0.00    +0.000 N 
ENDROOT
BRANCH  11  12
ATOM     12  C   UNL     1       5.195   5.425  17.390  0.00  0.00    +0.000 A 
ATOM     13  C   UNL     1       6.209   6.290  17.820  0.00  0.00    +0.000 A 
ATOM     14  C   UNL     1       7.319   6.528  17.004  0.00  0.00    +0.000 A 
ATOM     15  C   UNL     1       7.415   5.918  15.752  0.00  0.00    +0.000 A 
ATOM     16  C   UNL     1       6.403   5.065  15.318  0.00  0.00    +0.000 A 
ATOM     17 CL   UNL     1       6.520   4.307  13.779  0.00  0.00    +0.000 Cl
ATOM     18  C   UNL     1       5.302   4.813  16.132  0.00  0.00    +0.000 A 
ENDBRANCH  11  12
BRANCH   1  19
ATOM     19  C   UNL     1       2.709   7.018  17.478  0.00  0.00    +0.000 C 
BRANCH  19  20
ATOM     20  N   UNL     1       2.886   8.305  18.165  0.00  0.00    +0.000 NA
ATOM     21  H   UNL     1       3.289   8.281  19.101  0.00  0.00    +0.000 HD
BRANCH  20  22
ATOM     22  S   UNL     1       1.645   9.438  18.014  0.00  0.00    +0.000 S 
ATOM     23  O   UNL     1       0.620   8.857  17.176  0.00  0.00    +0.000 OA
ATOM     24  O   UNL     1       2.278  10.695  17.682  0.00  0.00    +0.000 OA
BRANCH  22  28
ATOM     25  C   UNL     1      -0.054   9.748  22.267  0.00  0.00    +0.000 A 
ATOM     26  C   UNL     1      -0.448  10.655  21.276  0.00  0.00    +0.000 A 
ATOM     27  C   UNL     1       0.083  10.582  19.981  0.00  0.00    +0.000 A 
ATOM     28  C   UNL     1       0.995   9.572  19.667  0.00  0.00    +0.000 A 
ATOM     29  C   UNL     1       1.333   8.609  20.623  0.00  0.00    +0.000 A 
ATOM     30  C   UNL     1       0.795   8.697  21.912  0.00  0.00    +0.000 A 
BRANCH  25  31
ATOM     31  N   UNL     1      -0.686   9.747  23.515  0.00  0.00    +0.000 N 
ATOM     32  H   UNL     1      -1.636  10.104  23.505  0.00  0.00    +0.000 HD
ATOM     33  H   UNL     1      -0.132  10.147  24.267  0.00  0.00    +0.000 HD
ENDBRANCH  25  31
ENDBRANCH  22  28
ENDBRANCH  20  22
ENDBRANCH  19  20
ENDBRANCH   1  19
TORSDOF 6
ENDMDL
MODEL 2
REMARK VINA RESULT:      -7.8      0.832      1.278
REMARK  Name = 
REMARK  6 active torsions:
REMARK  status: ('A' for Active; 'I' for Inactive)
REMARK    1  A    between atoms: N_1  and  C_2
REMARK    2  A    between atoms: C_5  and  S_6
REMARK    3  A    between atoms: S_6  and  N_9
REMARK    4  A    between atoms: N_9  and  C_10
REMARK    5  A    between atoms: C_10  and  C_11
REMARK    6  A    between atoms: N_21  and  C_22
REMARK                            x       y       z     vdW  Elec       q    Type
REMARK                         _______ _______ _______ _____ _____    ______ ____
ROOT
ATOM      1  C   UNL     1       3.441   5.931  18.068  0.00  0.00    +0.000 A 
ATOM      2  N   UNL     1       2.598   5.871  19.058  0.00  0.00    +0.000 NA
ATOM      3  C   UNL     1       2.316   4.625  19.635  0.00  0.00    +0.000 A 
ATOM      4  C   UNL     1       1.369   4.539  20.659  0.00  0.00    +0.000 A 
ATOM      5  C   UNL     1       1.075   3.311  21.262  0.00  0.00    +0.000 A 
ATOM      6  C   UNL     1       1.721   2.149  20.845  0.00  0.00    +0.000 A 
ATOM      7  C   UNL     1       2.645   2.217  19.807  0.00  0.00    +0.000 A 
ATOM      8  C   UNL     1       2.927   3.452  19.207  0.00  0.00    +0.000 A 
ATOM      9  C   UNL     1       3.880   3.540  18.098  0.00  0.00    +0.000 A 
ATOM     10  O   UNL     1       4.425   2.503  17.722  0.00  0.00    +0.000 OA
ATOM     11  N   UNL     1       4.110   4.819  17.570  0.00  0.00    +0.000 N 
ENDROOT
BRANCH  11  12
ATOM     12  C   UNL     1       5.087   4.898  16.533  0.00  0.00    +0.000 A 
ATOM     13  C   UNL     1       6.382   5.357  16.805  0.00  0.00    +0.000 A 
ATOM     14  C   UNL     1       7.366   5.304  15.814  0.00  0.00    +0.000 A 
ATOM     15  C   UNL     1       7.060   4.807  14.546  0.00  0.00    +0.000 A 
ATOM     16  C   UNL     1       5.771   4.359  14.270  0.00  0.00    +0.000 A 
ATOM     17 CL   UNL     1       5.392   3.741  12.711  0.00  0.00    +0.000 Cl
ATOM     18  C   UNL     1       4.790   4.397  15.257  0.00  0.00    +0.000 A 
ENDBRANCH  11  12
BRANCH   1  19
ATOM     19  C   UNL     1       3.585   7.294  17.385  0.00  0.00    +0.000 C 
BRANCH  19  20
ATOM     20  N   UNL     1       3.270   8.402  18.298  0.00  0.00    +0.000 NA
ATOM     21  H   UNL     1       3.438   8.248  19.292  0.00  0.00    +0.000 HD
BRANCH  20  22
ATOM     22  S   UNL     1       1.855   9.271  18.000  0.00  0.00    +0.000 S 
ATOM     23  O   UNL     1       1.011   8.457  17.153  0.00  0.00    +0.000 OA
ATOM     24  O   UNL     1       2.266  10.601  17.612  0.00  0.00    +0.000 OA
BRANCH  22  28
ATOM     25  C   UNL     1      -0.112   9.591  22.136  0.00  0.00    +0.000 A 
ATOM     26  C   UNL     1       0.858   8.614  21.883  0.00  0.00    +0.000 A 
ATOM     27  C   UNL     1       1.447   8.494  20.618  0.00  0.00    +0.000 A 
ATOM     28  C   UNL     1       1.083   9.381  19.602  0.00  0.00    +0.000 A 
ATOM     29  C   UNL     1       0.177  10.414  19.863  0.00  0.00    +0.000 A 
ATOM     30  C   UNL     1      -0.403  10.518  21.132  0.00  0.00    +0.000 A 
BRANCH  25  31
ATOM     31  N   UNL     1      -0.597   9.787  23.433  0.00  0.00    +0.000 N 
ATOM     32  H   UNL     1      -1.487   9.337  23.620  0.00  0.00    +0.000 HD
ATOM     33  H   UNL     1      -0.580  10.753  23.746  0.00  0.00    +0.000 HD
ENDBRANCH  25  31
ENDBRANCH  22  28
ENDBRANCH  20  22
ENDBRANCH  19  20
ENDBRANCH   1  19
TORSDOF 6
ENDMDL
MODEL 3
REMARK VINA RESULT:      -7.7      1.126      1.427
REMARK  Name = 
REMARK  6 active torsions:
REMARK  status: ('A' for Active; 'I' for Inactive)
REMARK    1  A    between atoms: N_1  and  C_2
REMARK    2  A    between atoms: C_5  and  S_6
REMARK    3  A    between atoms: S_6  and  N_9
REMARK    4  A    between atoms: N_9  and  C_10
REMARK    5  A    between atoms: C_10  and  C_11
REMARK    6  A    between atoms: N_21  and  C_22
REMARK                            x       y       z     vdW  Elec       q    Type
REMARK                         _______ _______ _______ _____ _____    ______ ____
ROOT
ATOM      1  C   UNL     1       3.051   5.812  18.447  0.00  0.00    +0.000 A 
ATOM      2  N   UNL     1       2.034   5.490  19.193  0.00  0.00    +0.000 NA
ATOM      3  C   UNL     1       2.120   4.349  20.002  0.00  0.00    +0.000 A 
ATOM      4  C   UNL     1       1.015   3.959  20.763  0.00  0.00    +0.000 A 
ATOM      5  C   UNL     1       1.075   2.831  21.590  0.00  0.00    +0.000 A 
ATOM      6  C   UNL     1       2.242   2.074  21.663  0.00  0.00    +0.000 A 
ATOM      7  C   UNL     1       3.340   2.435  20.889  0.00  0.00    +0.000 A 
ATOM      8  C   UNL     1       3.266   3.563  20.061  0.00  0.00    +0.000 A 
ATOM      9  C   UNL     1       4.404   3.947  19.221  0.00  0.00    +0.000 A 
ATOM     10  O   UNL     1       5.420   3.255  19.277  0.00  0.00    +0.000 OA
ATOM     11  N   UNL     1       4.243   5.098  18.436  0.00  0.00    +0.000 N 
ENDROOT
BRANCH  11  12
ATOM     12  C   UNL     1       5.382   5.494  17.673  0.00  0.00    +0.000 A 
ATOM     13  C   UNL     1       5.638   4.922  16.421  0.00  0.00    +0.000 A 
ATOM     14  C   UNL     1       6.678   5.413  15.627  0.00  0.00    +0.000 A 
ATOM     15  C   UNL     1       7.475   6.463  16.083  0.00  0.00    +0.000 A 
ATOM     16  C   UNL     1       7.230   7.027  17.333  0.00  0.00    +0.000 A 
ATOM     17 CL   UNL     1       8.206   8.326  17.896  0.00  0.00    +0.000 Cl
ATOM     18  C   UNL     1       6.186   6.552  18.122  0.00  0.00    +0.000 A 
ENDBRANCH  11  12
BRANCH   1  19
ATOM     19  C   UNL     1       2.833   6.975  17.475  0.00  0.00    +0.000 C 
BRANCH  19  20
ATOM     20  N   UNL     1       2.980   8.279  18.135  0.00  0.00    +0.000 NA
ATOM     21  H   UNL     1       3.409   8.287  19.061  0.00  0.00    +0.000 HD
BRANCH  20  22
ATOM     22  S   UNL     1       1.695   9.364  18.000  0.00  0.00    +0.000 S 
ATOM     23  O   UNL     1       0.680   8.741  17.180  0.00  0.00    +0.000 OA
ATOM     24  O   UNL     1       2.273  10.642  17.654  0.00  0.00    +0.000 OA
BRANCH  22  28
ATOM     25  C   UNL     1       0.050   9.624  22.279  0.00  0.00    +0.000 A 
ATOM     26  C   UNL     1      -0.392  10.512  21.291  0.00  0.00    +0.000 A 
ATOM     27  C   UNL     1       0.120  10.455  19.988  0.00  0.00    +0.000 A 
ATOM     28  C   UNL     1       1.065   9.479  19.663  0.00  0.00    +0.000 A 
ATOM     29  C   UNL     1       1.455   8.532  20.617  0.00  0.00    +0.000 A 
ATOM     30  C   UNL     1       0.934   8.605  21.913  0.00  0.00    +0.000 A 
BRANCH  25  31
ATOM     31  N   UNL     1      -0.561   9.604  23.536  0.00  0.00    +0.000 N 
ATOM     32  H   UNL     1      -0.856   8.682  23.844  0.00  0.00    +0.000 HD
ATOM     33  H   UNL     1      -1.288  10.302  23.662  0.00  0.00    +0.000 HD
ENDBRANCH  25  31
ENDBRANCH  22  28
ENDBRANCH  20  22
ENDBRANCH  19  20
ENDBRANCH   1  19
TORSDOF 6
ENDMDL
MODEL 4
REMARK VINA RESULT:      -7.7      5.118      9.976
REMARK  Name = 
REMARK  6 active torsions:
REMARK  status: ('A' for Active; 'I' for Inactive)
REMARK    1  A    between atoms: N_1  and  C_2
REMARK    2  A    between atoms: C_5  and  S_6
REMARK    3  A    between atoms: S_6  and  N_9
REMARK    4  A    between atoms: N_9  and  C_10
REMARK    5  A    between atoms: C_10  and  C_11
REMARK    6  A    between atoms: N_21  and  C_22
REMARK                            x       y       z     vdW  Elec       q    Type
REMARK                         _______ _______ _______ _____ _____    ______ ____
ROOT
ATOM      1  C   UNL     1      -1.545  11.570  20.084  0.00  0.00    +0.000 A 
ATOM      2  N   UNL     1      -1.255  10.931  18.988  0.00  0.00    +0.000 NA
ATOM      3  C   UNL     1      -2.211  10.870  17.964  0.00  0.00    +0.000 A 
ATOM      4  C   UNL     1      -1.934  10.137  16.807  0.00  0.00    +0.000 A 
ATOM      5  C   UNL     1      -2.864  10.068  15.763  0.00  0.00    +0.000 A 
ATOM      6  C   UNL     1      -4.087  10.728  15.865  0.00  0.00    +0.000 A 
ATOM      7  C   UNL     1      -4.385  11.437  17.023  0.00  0.00    +0.000 A 
ATOM      8  C   UNL     1      -3.449  11.495  18.064  0.00  0.00    +0.000 A 
ATOM      9  C   UNL     1      -3.754  12.218  19.302  0.00  0.00    +0.000 A 
ATOM     10  O   UNL     1      -4.847  12.775  19.388  0.00  0.00    +0.000 OA
ATOM     11  N   UNL     1      -2.751  12.233  20.282  0.00  0.00    +0.000 N 
ENDROOT
BRANCH  11  12
ATOM     12  C   UNL     1      -3.038  12.994  21.454  0.00  0.00    +0.000 A 
ATOM     13  C   UNL     1      -2.786  14.371  21.492  0.00  0.00    +0.000 A 
ATOM     14  C   UNL     1      -3.194  15.127  22.593  0.00  0.00    +0.000 A 
ATOM     15  C   UNL     1      -3.840  14.513  23.667  0.00  0.00    +0.000 A 
ATOM     16  C   UNL     1      -4.083  13.142  23.637  0.00  0.00    +0.000 A 
ATOM     17 CL   UNL     1      -4.884  12.382  24.955  0.00  0.00    +0.000 Cl
ATOM     18  C   UNL     1      -3.691  12.386  22.536  0.00  0.00    +0.000 A 
ENDBRANCH  11  12
BRANCH   1  19
ATOM     19  C   UNL     1      -0.521  11.465  21.218  0.00  0.00    +0.000 C 
BRANCH  19  20
ATOM     20  N   UNL     1       0.620  10.616  20.851  0.00  0.00    +0.000 NA
ATOM     21  H   UNL     1       0.844  10.539  19.859  0.00  0.00    +0.000 HD
BRANCH  20  22
ATOM     22  S   UNL     1       0.792   9.154  21.676  0.00  0.00    +0.000 S 
ATOM     23  O   UNL     1      -0.533   8.678  22.006  0.00  0.00    +0.000 OA
ATOM     24  O   UNL     1       1.797   9.374  22.691  0.00  0.00    +0.000 OA
BRANCH  22  28
ATOM     25  C   UNL     1       2.603   6.330  18.542  0.00  0.00    +0.000 A 
ATOM     26  C   UNL     1       2.358   7.673  18.232  0.00  0.00    +0.000 A 
ATOM     27  C   UNL     1       1.784   8.537  19.175  0.00  0.00    +0.000 A 
ATOM     28  C   UNL     1       1.481   8.058  20.451  0.00  0.00    +0.000 A 
ATOM     29  C   UNL     1       1.798   6.741  20.802  0.00  0.00    +0.000 A 
ATOM     30  C   UNL     1       2.368   5.892  19.848  0.00  0.00    +0.000 A 
BRANCH  25  31
ATOM     31  N   UNL     1       3.295   5.512  17.642  0.00  0.00    +0.000 N 
ATOM     32  H   UNL     1       3.656   4.654  18.048  0.00  0.00    +0.000 HD
ATOM     33  H   UNL     1       3.990   5.996  17.083  0.00  0.00    +0.000 HD
ENDBRANCH  25  31
ENDBRANCH  22  28
ENDBRANCH  20  22
ENDBRANCH  19  20
ENDBRANCH   1  19
TORSDOF 6
ENDMDL
MODEL 5
REMARK VINA RESULT:      -7.6      2.036      2.457
REMARK  Name = 
REMARK  6 active torsions:
REMARK  status: ('A' for Active; 'I' for Inactive)
REMARK    1  A    between atoms: N_1  and  C_2
REMARK    2  A    between atoms: C_5  and  S_6
REMARK    3  A    between atoms: S_6  and  N_9
REMARK    4  A    between atoms: N_9  and  C_10
REMARK    5  A    between atoms: C_10  and  C_11
REMARK    6  A    between atoms: N_21  and  C_22
REMARK                            x       y       z     vdW  Elec       q    Type
REMARK                         _______ _______ _______ _____ _____    ______ ____
ROOT
ATOM      1  C   UNL     1       3.056   6.204  18.499  0.00  0.00    +0.000 A 
ATOM      2  N   UNL     1       2.065   5.873  19.277  0.00  0.00    +0.000 NA
ATOM      3  C   UNL     1       2.132   4.665  19.984  0.00  0.00    +0.000 A 
ATOM      4  C   UNL     1       1.051   4.269  20.776  0.00  0.00    +0.000 A 
ATOM      5  C   UNL     1       1.094   3.074  21.503  0.00  0.00    +0.000 A 
ATOM      6  C   UNL     1       2.219   2.254  21.444  0.00  0.00    +0.000 A 
ATOM      7  C   UNL     1       3.290   2.623  20.637  0.00  0.00    +0.000 A 
ATOM      8  C   UNL     1       3.233   3.819  19.910  0.00  0.00    +0.000 A 
ATOM      9  C   UNL     1       4.343   4.213  19.037  0.00  0.00    +0.000 A 
ATOM     10  O   UNL     1       5.319   3.468  18.974  0.00  0.00    +0.000 OA
ATOM     11  N   UNL     1       4.203   5.433  18.359  0.00  0.00    +0.000 N 
ENDROOT
BRANCH  11  12
ATOM     12  C   UNL     1       5.318   5.833  17.564  0.00  0.00    +0.000 A 
ATOM     13  C   UNL     1       6.291   6.697  18.080  0.00  0.00    +0.000 A 
ATOM     14  C   UNL     1       7.444   6.975  17.340  0.00  0.00    +0.000 A 
ATOM     15  C   UNL     1       7.624   6.407  16.079  0.00  0.00    +0.000 A 
ATOM     16  C   UNL     1       6.653   5.555  15.558  0.00  0.00    +0.000 A 
ATOM     17 CL   UNL     1       6.873   4.847  14.007  0.00  0.00    +0.000 Cl
ATOM     18  C   UNL     1       5.509   5.263  16.296  0.00  0.00    +0.000 A 
ENDBRANCH  11  12
BRANCH   1  19
ATOM     19  C   UNL     1       2.850   7.455  17.640  0.00  0.00    +0.000 C 
BRANCH  19  20
ATOM     20  N   UNL     1       1.522   8.050  17.845  0.00  0.00    +0.000 NA
ATOM     21  H   UNL     1       0.865   8.002  17.066  0.00  0.00    +0.000 HD
BRANCH  20  22
ATOM     22  S   UNL     1       1.453   9.520  18.670  0.00  0.00    +0.000 S 
ATOM     23  O   UNL     1       2.470  10.384  18.113  0.00  0.00    +0.000 OA
ATOM     24  O   UNL     1       1.417   9.196  20.078  0.00  0.00    +0.000 OA
BRANCH  22  28
ATOM     25  C   UNL     1      -2.634  11.230  17.467  0.00  0.00    +0.000 A 
ATOM     26  C   UNL     1      -1.766  11.967  18.282  0.00  0.00    +0.000 A 
ATOM     27  C   UNL     1      -0.527  11.444  18.672  0.00  0.00    +0.000 A 
ATOM     28  C   UNL     1      -0.138  10.181  18.219  0.00  0.00    +0.000 A 
ATOM     29  C   UNL     1      -0.959   9.469  17.337  0.00  0.00    +0.000 A 
ATOM     30  C   UNL     1      -2.194  10.005  16.959  0.00  0.00    +0.000 A 
BRANCH  25  31
ATOM     31  N   UNL     1      -3.808  11.811  16.976  0.00  0.00    +0.000 N 
ATOM     32  H   UNL     1      -3.670  12.700  16.506  0.00  0.00    +0.000 HD
ATOM     33  H   UNL     1      -4.572  11.843  17.644  0.00  0.00    +0.000 HD
ENDBRANCH  25  31
ENDBRANCH  22  28
ENDBRANCH  20  22
ENDBRANCH  19  20
ENDBRANCH   1  19
TORSDOF 6
ENDMDL
MODEL 6
REMARK VINA RESULT:      -7.5      5.001      9.885
REMARK  Name = 
REMARK  6 active torsions:
REMARK  status: ('A' for Active; 'I' for Inactive)
REMARK    1  A    between atoms: N_1  and  C_2
REMARK    2  A    between atoms: C_5  and  S_6
REMARK    3  A    between atoms: S_6  and  N_9
REMARK    4  A    between atoms: N_9  and  C_10
REMARK    5  A    between atoms: C_10  and  C_11
REMARK    6  A    between atoms: N_21  and  C_22
REMARK                            x       y       z     vdW  Elec       q    Type
REMARK                         _______ _______ _______ _____ _____    ______ ____
ROOT
ATOM      1  C   UNL     1      -1.357  11.600  20.101  0.00  0.00    +0.000 A 
ATOM      2  N   UNL     1      -1.117  10.944  19.002  0.00  0.00    +0.000 NA
ATOM      3  C   UNL     1      -2.118  10.868  18.024  0.00  0.00    +0.000 A 
ATOM      4  C   UNL     1      -1.894  10.118  16.866  0.00  0.00    +0.000 A 
ATOM      5  C   UNL     1      -2.871  10.033  15.867  0.00  0.00    +0.000 A 
ATOM      6  C   UNL     1      -4.089  10.693  16.016  0.00  0.00    +0.000 A 
ATOM      7  C   UNL     1      -4.335  11.419  17.176  0.00  0.00    +0.000 A 
ATOM      8  C   UNL     1      -3.351  11.493  18.171  0.00  0.00    +0.000 A 
ATOM      9  C   UNL     1      -3.600  12.234  19.411  0.00  0.00    +0.000 A 
ATOM     10  O   UNL     1      -4.689  12.791  19.540  0.00  0.00    +0.000 OA
ATOM     11  N   UNL     1      -2.553  12.264  20.344  0.00  0.00    +0.000 N 
ENDROOT
BRANCH  11  12
ATOM     12  C   UNL     1      -2.787  13.042  21.516  0.00  0.00    +0.000 A 
ATOM     13  C   UNL     1      -3.318  12.454  22.671  0.00  0.00    +0.000 A 
ATOM     14  C   UNL     1      -3.417  13.194  23.852  0.00  0.00    +0.000 A 
ATOM     15  C   UNL     1      -3.004  14.527  23.883  0.00  0.00    +0.000 A 
ATOM     16  C   UNL     1      -2.486  15.118  22.733  0.00  0.00    +0.000 A 
ATOM     17 CL   UNL     1      -1.970  16.758  22.768  0.00  0.00    +0.000 Cl
ATOM     18  C   UNL     1      -2.371  14.381  21.557  0.00  0.00    +0.000 A 
ENDBRANCH  11  12
BRANCH   1  19
ATOM     19  C   UNL     1      -0.281  11.512  21.187  0.00  0.00    +0.000 C 
BRANCH  19  20
ATOM     20  N   UNL     1       0.791  10.575  20.826  0.00  0.00    +0.000 NA
ATOM     21  H   UNL     1       1.010  10.478  19.834  0.00  0.00    +0.000 HD
BRANCH  20  22
ATOM     22  S   UNL     1       0.847   9.107  21.656  0.00  0.00    +0.000 S 
ATOM     23  O   UNL     1      -0.516   8.684  21.889  0.00  0.00    +0.000 OA
ATOM     24  O   UNL     1       1.784   9.287  22.741  0.00  0.00    +0.000 OA
BRANCH  22  28
ATOM     25  C   UNL     1       2.697   6.222  18.601  0.00  0.00    +0.000 A 
ATOM     26  C   UNL     1       2.288   5.761  19.858  0.00  0.00    +0.000 A 
ATOM     27  C   UNL     1       1.743   6.639  20.805  0.00  0.00    +0.000 A 
ATOM     28  C   UNL     1       1.578   7.987  20.480  0.00  0.00    +0.000 A 
ATOM     29  C   UNL     1       1.905   8.445  19.199  0.00  0.00    +0.000 A 
ATOM     30  C   UNL     1       2.449   7.556  18.266  0.00  0.00    +0.000 A 
BRANCH  25  31
ATOM     31  N   UNL     1       3.115   5.319  17.619  0.00  0.00    +0.000 N 
ATOM     32  H   UNL     1       2.364   4.946  17.046  0.00  0.00    +0.000 HD
ATOM     33  H   UNL     1       3.741   4.593  17.954  0.00  0.00    +0.000 HD
ENDBRANCH  25  31
ENDBRANCH  22  28
ENDBRANCH  20  22
ENDBRANCH  19  20
ENDBRANCH   1  19
TORSDOF 6
ENDMDL
MODEL 7
REMARK VINA RESULT:      -7.4      6.166      9.634
REMARK  Name = 
REMARK  6 active torsions:
REMARK  status: ('A' for Active; 'I' for Inactive)
REMARK    1  A    between atoms: N_1  and  C_2
REMARK    2  A    between atoms: C_5  and  S_6
REMARK    3  A    between atoms: S_6  and  N_9
REMARK    4  A    between atoms: N_9  and  C_10
REMARK    5  A    between atoms: C_10  and  C_11
REMARK    6  A    between atoms: N_21  and  C_22
REMARK                            x       y       z     vdW  Elec       q    Type
REMARK                         _______ _______ _______ _____ _____    ______ ____
ROOT
ATOM      1  C   UNL     1      -1.028  12.341  20.544  0.00  0.00    +0.000 A 
ATOM      2  N   UNL     1      -0.450  11.660  19.596  0.00  0.00    +0.000 NA
ATOM      3  C   UNL     1       0.247  10.491  19.928  0.00  0.00    +0.000 A 
ATOM      4  C   UNL     1       0.922   9.784  18.929  0.00  0.00    +0.000 A 
ATOM      5  C   UNL     1       1.617   8.607  19.229  0.00  0.00    +0.000 A 
ATOM      6  C   UNL     1       1.652   8.123  20.535  0.00  0.00    +0.000 A 
ATOM      7  C   UNL     1       1.009   8.833  21.543  0.00  0.00    +0.000 A 
ATOM      8  C   UNL     1       0.320  10.013  21.232  0.00  0.00    +0.000 A 
ATOM      9  C   UNL     1      -0.345  10.788  22.284  0.00  0.00    +0.000 A 
ATOM     10  O   UNL     1      -0.285  10.362  23.437  0.00  0.00    +0.000 OA
ATOM     11  N   UNL     1      -1.020  11.947  21.876  0.00  0.00    +0.000 N 
ENDROOT
BRANCH  11  12
ATOM     12  C   UNL     1      -1.715  12.654  22.902  0.00  0.00    +0.000 A 
ATOM     13  C   UNL     1      -1.184  13.831  23.445  0.00  0.00    +0.000 A 
ATOM     14  C   UNL     1      -1.935  14.584  24.351  0.00  0.00    +0.000 A 
ATOM     15  C   UNL     1      -3.210  14.162  24.730  0.00  0.00    +0.000 A 
ATOM     16  C   UNL     1      -3.737  12.987  24.200  0.00  0.00    +0.000 A 
ATOM     17 CL   UNL     1      -5.309  12.466  24.660  0.00  0.00    +0.000 Cl
ATOM     18  C   UNL     1      -2.999  12.239  23.286  0.00  0.00    +0.000 A 
ENDBRANCH  11  12
BRANCH   1  19
ATOM     19  C   UNL     1      -1.638  13.684  20.134  0.00  0.00    +0.000 C 
BRANCH  19  20
ATOM     20  N   UNL     1      -0.942  14.276  18.984  0.00  0.00    +0.000 NA
ATOM     21  H   UNL     1      -0.405  13.645  18.389  0.00  0.00    +0.000 HD
BRANCH  20  22
ATOM     22  S   UNL     1      -0.174  15.760  19.224  0.00  0.00    +0.000 S 
ATOM     23  O   UNL     1      -0.226  16.056  20.639  0.00  0.00    +0.000 OA
ATOM     24  O   UNL     1      -0.717  16.665  18.237  0.00  0.00    +0.000 OA
BRANCH  22  28
ATOM     25  C   UNL     1       4.188  14.917  18.069  0.00  0.00    +0.000 A 
ATOM     26  C   UNL     1       3.370  13.891  18.557  0.00  0.00    +0.000 A 
ATOM     27  C   UNL     1       2.044  14.143  18.933  0.00  0.00    +0.000 A 
ATOM     28  C   UNL     1       1.522  15.431  18.792  0.00  0.00    +0.000 A 
ATOM     29  C   UNL     1       2.302  16.447  18.228  0.00  0.00    +0.000 A 
ATOM     30  C   UNL     1       3.624  16.178  17.860  0.00  0.00    +0.000 A 
BRANCH  25  31
ATOM     31  N   UNL     1       5.464  14.629  17.574  0.00  0.00    +0.000 N 
ATOM     32  H   UNL     1       5.510  14.535  16.564  0.00  0.00    +0.000 HD
ATOM     33  H   UNL     1       5.940  13.871  18.054  0.00  0.00    +0.000 HD
ENDBRANCH  25  31
ENDBRANCH  22  28
ENDBRANCH  20  22
ENDBRANCH  19  20
ENDBRANCH   1  19
TORSDOF 6
ENDMDL
MODEL 8
REMARK VINA RESULT:      -7.3      2.985      7.100
REMARK  Name = 
REMARK  6 active torsions:
REMARK  status: ('A' for Active; 'I' for Inactive)
REMARK    1  A    between atoms: N_1  and  C_2
REMARK    2  A    between atoms: C_5  and  S_6
REMARK    3  A    between atoms: S_6  and  N_9
REMARK    4  A    between atoms: N_9  and  C_10
REMARK    5  A    between atoms: C_10  and  C_11
REMARK    6  A    between atoms: N_21  and  C_22
REMARK                            x       y       z     vdW  Elec       q    Type
REMARK                         _______ _______ _______ _____ _____    ______ ____
ROOT
ATOM      1  C   UNL     1       3.070   6.625  18.322  0.00  0.00    +0.000 A 
ATOM      2  N   UNL     1       2.835   7.891  18.514  0.00  0.00    +0.000 NA
ATOM      3  C   UNL     1       1.937   8.270  19.520  0.00  0.00    +0.000 A 
ATOM      4  C   UNL     1       1.631   9.622  19.697  0.00  0.00    +0.000 A 
ATOM      5  C   UNL     1       0.747  10.032  20.702  0.00  0.00    +0.000 A 
ATOM      6  C   UNL     1       0.151   9.092  21.542  0.00  0.00    +0.000 A 
ATOM      7  C   UNL     1       0.426   7.741  21.357  0.00  0.00    +0.000 A 
ATOM      8  C   UNL     1       1.308   7.343  20.344  0.00  0.00    +0.000 A 
ATOM      9  C   UNL     1       1.593   5.923  20.120  0.00  0.00    +0.000 A 
ATOM     10  O   UNL     1       1.041   5.102  20.852  0.00  0.00    +0.000 OA
ATOM     11  N   UNL     1       2.499   5.620  19.094  0.00  0.00    +0.000 N 
ENDROOT
BRANCH  11  12
ATOM     12  C   UNL     1       2.814   4.238  18.930  0.00  0.00    +0.000 A 
ATOM     13  C   UNL     1       2.335   3.522  17.826  0.00  0.00    +0.000 A 
ATOM     14  C   UNL     1       2.758   2.208  17.607  0.00  0.00    +0.000 A 
ATOM     15  C   UNL     1       3.648   1.599  18.494  0.00  0.00    +0.000 A 
ATOM     16  C   UNL     1       4.118   2.306  19.598  0.00  0.00    +0.000 A 
ATOM     17 CL   UNL     1       5.218   1.562  20.689  0.00  0.00    +0.000 Cl
ATOM     18  C   UNL     1       3.710   3.619  19.814  0.00  0.00    +0.000 A 
ENDBRANCH  11  12
BRANCH   1  19
ATOM     19  C   UNL     1       3.938   6.276  17.109  0.00  0.00    +0.000 C 
BRANCH  19  20
ATOM     20  N   UNL     1       5.226   6.981  17.133  0.00  0.00    +0.000 NA
ATOM     21  H   UNL     1       5.302   7.830  16.573  0.00  0.00    +0.000 HD
BRANCH  20  22
ATOM     22  S   UNL     1       6.625   6.039  17.087  0.00  0.00    +0.000 S 
ATOM     23  O   UNL     1       6.557   5.100  18.185  0.00  0.00    +0.000 OA
ATOM     24  O   UNL     1       7.731   6.957  16.939  0.00  0.00    +0.000 OA
BRANCH  22  28
ATOM     25  C   UNL     1       6.232   3.642  13.192  0.00  0.00    +0.000 A 
ATOM     26  C   UNL     1       7.158   4.686  13.294  0.00  0.00    +0.000 A 
ATOM     27  C   UNL     1       7.270   5.438  14.471  0.00  0.00    +0.000 A 
ATOM     28  C   UNL     1       6.466   5.122  15.568  0.00  0.00    +0.000 A 
ATOM     29  C   UNL     1       5.595   4.028  15.509  0.00  0.00    +0.000 A 
ATOM     30  C   UNL     1       5.495   3.289  14.325  0.00  0.00    +0.000 A 
BRANCH  25  31
ATOM     31  N   UNL     1       6.220   2.815  12.064  0.00  0.00    +0.000 N 
ATOM     32  H   UNL     1       5.806   1.901  12.218  0.00  0.00    +0.000 HD
ATOM     33  H   UNL     1       7.109   2.758  11.575  0.00  0.00    +0.000 HD
ENDBRANCH  25  31
ENDBRANCH  22  28
ENDBRANCH  20  22
ENDBRANCH  19  20
ENDBRANCH   1  19
TORSDOF 6
ENDMDL
MODEL 9
REMARK VINA RESULT:      -7.2      2.291      2.805
REMARK  Name = 
REMARK  6 active torsions:
REMARK  status: ('A' for Active; 'I' for Inactive)
REMARK    1  A    between atoms: N_1  and  C_2
REMARK    2  A    between atoms: C_5  and  S_6
REMARK    3  A    between atoms: S_6  and  N_9
REMARK    4  A    between atoms: N_9  and  C_10
REMARK    5  A    between atoms: C_10  and  C_11
REMARK    6  A    between atoms: N_21  and  C_22
REMARK                            x       y       z     vdW  Elec       q    Type
REMARK                         _______ _______ _______ _____ _____    ______ ____
ROOT
ATOM      1  C   UNL     1       3.071   6.056  18.512  0.00  0.00    +0.000 A 
ATOM      2  N   UNL     1       2.052   5.719  19.248  0.00  0.00    +0.000 NA
ATOM      3  C   UNL     1       2.117   4.537  19.998  0.00  0.00    +0.000 A 
ATOM      4  C   UNL     1       1.008   4.133  20.745  0.00  0.00    +0.000 A 
ATOM      5  C   UNL     1       1.048   2.963  21.514  0.00  0.00    +0.000 A 
ATOM      6  C   UNL     1       2.199   2.178  21.540  0.00  0.00    +0.000 A 
ATOM      7  C   UNL     1       3.300   2.554  20.778  0.00  0.00    +0.000 A 
ATOM      8  C   UNL     1       3.246   3.724  20.009  0.00  0.00    +0.000 A 
ATOM      9  C   UNL     1       4.387   4.126  19.182  0.00  0.00    +0.000 A 
ATOM     10  O   UNL     1       5.388   3.410  19.195  0.00  0.00    +0.000 OA
ATOM     11  N   UNL     1       4.247   5.318  18.457  0.00  0.00    +0.000 N 
ENDROOT
BRANCH  11  12
ATOM     12  C   UNL     1       5.390   5.728  17.707  0.00  0.00    +0.000 A 
ATOM     13  C   UNL     1       5.626   5.214  16.426  0.00  0.00    +0.000 A 
ATOM     14  C   UNL     1       6.672   5.722  15.651  0.00  0.00    +0.000 A 
ATOM     15  C   UNL     1       7.495   6.731  16.154  0.00  0.00    +0.000 A 
ATOM     16  C   UNL     1       7.269   7.236  17.432  0.00  0.00    +0.000 A 
ATOM     17 CL   UNL     1       8.276   8.483  18.054  0.00  0.00    +0.000 Cl
ATOM     18  C   UNL     1       6.220   6.744  18.204  0.00  0.00    +0.000 A 
ENDBRANCH  11  12
BRANCH   1  19
ATOM     19  C   UNL     1       2.873   7.272  17.601  0.00  0.00    +0.000 C 
BRANCH  19  20
ATOM     20  N   UNL     1       1.571   7.915  17.819  0.00  0.00    +0.000 NA
ATOM     21  H   UNL     1       0.904   7.890  17.047  0.00  0.00    +0.000 HD
BRANCH  20  22
ATOM     22  S   UNL     1       1.563   9.388  18.643  0.00  0.00    +0.000 S 
ATOM     23  O   UNL     1       2.588  10.223  18.056  0.00  0.00    +0.000 OA
ATOM     24  O   UNL     1       1.558   9.067  20.052  0.00  0.00    +0.000 OA
BRANCH  22  28
ATOM     25  C   UNL     1      -2.507  11.207  17.550  0.00  0.00    +0.000 A 
ATOM     26  C   UNL     1      -1.633  11.884  18.408  0.00  0.00    +0.000 A 
ATOM     27  C   UNL     1      -0.398  11.326  18.765  0.00  0.00    +0.000 A 
ATOM     28  C   UNL     1      -0.022  10.091  18.234  0.00  0.00    +0.000 A 
ATOM     29  C   UNL     1      -0.848   9.442  17.310  0.00  0.00    +0.000 A 
ATOM     30  C   UNL     1      -2.078  10.013  16.966  0.00  0.00    +0.000 A 
BRANCH  25  31
ATOM     31  N   UNL     1      -3.675  11.829  17.096  0.00  0.00    +0.000 N 
ATOM     32  H   UNL     1      -4.471  11.206  16.998  0.00  0.00    +0.000 HD
ATOM     33  H   UNL     1      -3.547  12.421  16.281  0.00  0.00    +0.000 HD
ENDBRANCH  25  31
ENDBRANCH  22  28
ENDBRANCH  20  22
ENDBRANCH  19  20
ENDBRANCH   1  19
TORSDOF 6
ENDMDL
