MODEL 1
REMARK VINA RESULT:      -7.8      0.000      0.000
REMARK  Name = 
REMARK  8 active torsions:
REMARK  status: ('A' for Active; 'I' for Inactive)
REMARK    1  A    between atoms: C_1  and  O_2
REMARK    2  A    between atoms: O_2  and  C_3
REMARK    3  A    between atoms: C_5  and  O_6
REMARK    4  A    between atoms: O_6  and  C_7
REMARK    5  A    between atoms: N_11  and  C_12
REMARK    6  A    between atoms: C_12  and  C_13
REMARK    7  A    between atoms: C_13  and  C_14
REMARK    8  A    between atoms: C_14  and  C_15
REMARK                            x       y       z     vdW  Elec       q    Type
REMARK                         _______ _______ _______ _____ _____    ______ ____
ROOT
ATOM      1  C   UNL     1       1.282   8.938  17.554  0.00  0.00    +0.000 C 
ENDROOT
BRANCH   1   8
ATOM      2  C   UNL     1      -2.905  10.677  17.235  0.00  0.00    +0.000 A 
ATOM      3  C   UNL     1      -3.226  11.520  18.301  0.00  0.00    +0.000 A 
ATOM      4  C   UNL     1      -2.318  11.761  19.346  0.00  0.00    +0.000 A 
ATOM      5  C   UNL     1      -1.057  11.126  19.296  0.00  0.00    +0.000 A 
ATOM      6  C   UNL     1       0.071  11.126  20.167  0.00  0.00    +0.000 A 
ATOM      7  C   UNL     1       1.037  10.321  19.611  0.00  0.00    +0.000 A 
ATOM      8  N   UNL     1       0.542   9.831  18.429  0.00  0.00    +0.000 N 
ATOM      9  C   UNL     1      -0.741  10.295  18.219  0.00  0.00    +0.000 A 
ATOM     10  C   UNL     1      -1.653  10.057  17.178  0.00  0.00    +0.000 A 
BRANCH   2  12
ATOM     11  C   UNL     1      -3.195  10.553  14.874  0.00  0.00    +0.000 C 
ATOM     12  O   UNL     1      -3.731  10.380  16.180  0.00  0.00    +0.000 OA
ENDBRANCH   2  12
BRANCH   4  13
ATOM     13  O   UNL     1      -2.565  12.568  20.428  0.00  0.00    +0.000 OA
ATOM     14  C   UNL     1      -3.808  13.256  20.457  0.00  0.00    +0.000 C 
ENDBRANCH   4  13
ENDBRANCH   1   8
BRANCH   1  15
ATOM     15  C   UNL     1       2.387   8.195  18.305  0.00  0.00    +0.000 C 
BRANCH  15  16
ATOM     16  C   UNL     1       3.211   7.340  17.347  0.00  0.00    +0.000 C 
BRANCH  16  17
ATOM     17  C   UNL     1       4.359   6.553  18.006  0.00  0.00    +0.000 C 
ATOM     18  C   UNL     1       5.230   5.709  17.070  0.00  0.00    +0.000 C 
ATOM     19  C   UNL     1       4.630   4.346  16.773  0.00  0.00    +0.000 C 
ATOM     20  C   UNL     1       4.285   3.651  18.080  0.00  0.00    +0.000 C 
ATOM     21  C   UNL     1       3.334   4.496  18.945  0.00  0.00    +0.000 C 
ATOM     22  C   UNL     1       1.911   4.617  18.369  0.00  0.00    +0.000 C 
ATOM     23  C   UNL     1       1.116   3.325  18.417  0.00  0.00    +0.000 C 
ATOM     24  C   UNL     1       1.139   2.748  19.816  0.00  0.00    +0.000 C 
ATOM     25  C   UNL     1       2.566   2.655  20.333  0.00  0.00    +0.000 C 
ATOM     26  O   UNL     1       3.240   3.909  20.258  0.00  0.00    +0.000 OA
ATOM     27  O   UNL     1       3.896   5.807  19.139  0.00  0.00    +0.000 OA
ENDBRANCH  16  17
ENDBRANCH  15  16
ENDBRANCH   1  15
TORSDOF 6
ENDMDL
MODEL 2
REMARK VINA RESULT:      -7.6      1.978      4.248
REMARK  Name = 
REMARK  8 active torsions:
REMARK  status: ('A' for Active; 'I' for Inactive)
REMARK    1  A    between atoms: C_1  and  O_2
REMARK    2  A    between atoms: O_2  and  C_3
REMARK    3  A    between atoms: C_5  and  O_6
REMARK    4  A    between atoms: O_6  and  C_7
REMARK    5  A    between atoms: N_11  and  C_12
REMARK    6  A    between atoms: C_12  and  C_13
REMARK    7  A    between atoms: C_13  and  C_14
REMARK    8  A    between atoms: C_14  and  C_15
REMARK                            x       y       z     vdW  Elec       q    Type
REMARK                         _______ _______ _______ _____ _____    ______ ____
ROOT
ATOM      1  C   UNL     1       2.481   6.915  20.262  0.00  0.00    +0.000 C 
ENDROOT
BRANCH   1   8
ATOM      2  C   UNL     1      -0.345  10.197  21.638  0.00  0.00    +0.000 A 
ATOM      3  C   UNL     1      -0.699  11.075  20.612  0.00  0.00    +0.000 A 
ATOM      4  C   UNL     1      -0.194  10.924  19.310  0.00  0.00    +0.000 A 
ATOM      5  C   UNL     1       0.689   9.851  19.054  0.00  0.00    +0.000 A 
ATOM      6  C   UNL     1       1.388   9.417  17.891  0.00  0.00    +0.000 A 
ATOM      7  C   UNL     1       2.113   8.299  18.225  0.00  0.00    +0.000 A 
ATOM      8  N   UNL     1       1.882   8.030  19.549  0.00  0.00    +0.000 N 
ATOM      9  C   UNL     1       1.027   8.971  20.086  0.00  0.00    +0.000 A 
ATOM     10  C   UNL     1       0.520   9.128  21.386  0.00  0.00    +0.000 A 
BRANCH   2  12
ATOM     11  C   UNL     1      -1.635  11.366  23.266  0.00  0.00    +0.000 C 
ATOM     12  O   UNL     1      -0.782  10.275  22.937  0.00  0.00    +0.000 OA
ENDBRANCH   2  12
BRANCH   4  13
ATOM     13  O   UNL     1      -0.489  11.750  18.255  0.00  0.00    +0.000 OA
ATOM     14  C   UNL     1      -1.855  11.859  17.875  0.00  0.00    +0.000 C 
ENDBRANCH   4  13
ENDBRANCH   1   8
BRANCH   1  15
ATOM     15  C   UNL     1       1.494   5.762  20.446  0.00  0.00    +0.000 C 
BRANCH  15  16
ATOM     16  C   UNL     1       2.101   4.447  19.966  0.00  0.00    +0.000 C 
BRANCH  16  17
ATOM     17  C   UNL     1       2.026   4.215  18.446  0.00  0.00    +0.000 C 
ATOM     18  C   UNL     1       2.250   2.778  17.965  0.00  0.00    +0.000 C 
ATOM     19  C   UNL     1       3.720   2.425  17.823  0.00  0.00    +0.000 C 
ATOM     20  C   UNL     1       4.410   3.472  16.964  0.00  0.00    +0.000 C 
ATOM     21  C   UNL     1       4.236   4.889  17.537  0.00  0.00    +0.000 C 
ATOM     22  C   UNL     1       5.005   5.128  18.849  0.00  0.00    +0.000 C 
ATOM     23  C   UNL     1       6.513   5.175  18.678  0.00  0.00    +0.000 C 
ATOM     24  C   UNL     1       6.886   6.156  17.587  0.00  0.00    +0.000 C 
ATOM     25  C   UNL     1       6.095   5.873  16.320  0.00  0.00    +0.000 C 
ATOM     26  O   UNL     1       4.691   5.851  16.565  0.00  0.00    +0.000 OA
ATOM     27  O   UNL     1       2.836   5.160  17.734  0.00  0.00    +0.000 OA
ENDBRANCH  16  17
ENDBRANCH  15  16
ENDBRANCH   1  15
TORSDOF 6
ENDMDL
MODEL 3
REMARK VINA RESULT:      -7.4      1.260      2.688
REMARK  Name = 
REMARK  8 active torsions:
REMARK  status: ('A' for Active; 'I' for Inactive)
REMARK    1  A    between atoms: C_1  and  O_2
REMARK    2  A    between atoms: O_2  and  C_3
REMARK    3  A    between atoms: C_5  and  O_6
REMARK    4  A    between atoms: O_6  and  C_7
REMARK    5  A    between atoms: N_11  and  C_12
REMARK    6  A    between atoms: C_12  and  C_13
REMARK    7  A    between atoms: C_13  and  C_14
REMARK    8  A    between atoms: C_14  and  C_15
REMARK                            x       y       z     vdW  Elec       q    Type
REMARK                         _______ _______ _______ _____ _____    ______ ____
ROOT
ATOM      1  C   UNL     1       1.282   8.742  17.752  0.00  0.00    +0.000 C 
ENDROOT
BRANCH   1   8
ATOM      2  C   UNL     1      -2.825  10.609  17.198  0.00  0.00    +0.000 A 
ATOM      3  C   UNL     1      -3.133  11.546  18.186  0.00  0.00    +0.000 A 
ATOM      4  C   UNL     1      -2.238  11.835  19.229  0.00  0.00    +0.000 A 
ATOM      5  C   UNL     1      -1.002  11.151  19.260  0.00  0.00    +0.000 A 
ATOM      6  C   UNL     1       0.107  11.178  20.154  0.00  0.00    +0.000 A 
ATOM      7  C   UNL     1       1.050  10.294  19.686  0.00  0.00    +0.000 A 
ATOM      8  N   UNL     1       0.561   9.730  18.536  0.00  0.00    +0.000 N 
ATOM      9  C   UNL     1      -0.698  10.224  18.259  0.00  0.00    +0.000 A 
ATOM     10  C   UNL     1      -1.598   9.938  17.219  0.00  0.00    +0.000 A 
BRANCH   2  12
ATOM     11  C   UNL     1      -3.110  10.418  14.840  0.00  0.00    +0.000 C 
ATOM     12  O   UNL     1      -3.641  10.260  16.151  0.00  0.00    +0.000 OA
ENDBRANCH   2  12
BRANCH   4  13
ATOM     13  O   UNL     1      -2.474  12.736  20.237  0.00  0.00    +0.000 OA
ATOM     14  C   UNL     1      -3.830  12.981  20.587  0.00  0.00    +0.000 C 
ENDBRANCH   4  13
ENDBRANCH   1   8
BRANCH   1  15
ATOM     15  C   UNL     1       2.545   8.262  18.467  0.00  0.00    +0.000 C 
BRANCH  15  16
ATOM     16  C   UNL     1       2.361   6.843  18.997  0.00  0.00    +0.000 C 
BRANCH  16  17
ATOM     17  C   UNL     1       2.412   5.739  17.924  0.00  0.00    +0.000 C 
ATOM     18  C   UNL     1       2.023   4.329  18.379  0.00  0.00    +0.000 C 
ATOM     19  C   UNL     1       3.172   3.580  19.030  0.00  0.00    +0.000 C 
ATOM     20  C   UNL     1       4.381   3.613  18.111  0.00  0.00    +0.000 C 
ATOM     21  C   UNL     1       4.793   5.052  17.757  0.00  0.00    +0.000 C 
ATOM     22  C   UNL     1       5.384   5.840  18.940  0.00  0.00    +0.000 C 
ATOM     23  C   UNL     1       6.753   5.353  19.380  0.00  0.00    +0.000 C 
ATOM     24  C   UNL     1       7.689   5.280  18.193  0.00  0.00    +0.000 C 
ATOM     25  C   UNL     1       7.052   4.495  17.057  0.00  0.00    +0.000 C 
ATOM     26  O   UNL     1       5.774   5.018  16.702  0.00  0.00    +0.000 OA
ATOM     27  O   UNL     1       3.660   5.758  17.217  0.00  0.00    +0.000 OA
ENDBRANCH  16  17
ENDBRANCH  15  16
ENDBRANCH   1  15
TORSDOF 6
ENDMDL
MODEL 4
REMARK VINA RESULT:      -7.4      2.068      3.484
REMARK  Name = 
REMARK  8 active torsions:
REMARK  status: ('A' for Active; 'I' for Inactive)
REMARK    1  A    between atoms: C_1  and  O_2
REMARK    2  A    between atoms: O_2  and  C_3
REMARK    3  A    between atoms: C_5  and  O_6
REMARK    4  A    between atoms: O_6  and  C_7
REMARK    5  A    between atoms: N_11  and  C_12
REMARK    6  A    between atoms: C_12  and  C_13
REMARK    7  A    between atoms: C_13  and  C_14
REMARK    8  A    between atoms: C_14  and  C_15
REMARK                            x       y       z     vdW  Elec       q    Type
REMARK                         _______ _______ _______ _____ _____    ______ ____
ROOT
ATOM      1  C   UNL     1       1.648   7.958  20.220  0.00  0.00    +0.000 C 
ENDROOT
BRANCH   1   8
ATOM      2  C   UNL     1      -1.277  11.226  19.029  0.00  0.00    +0.000 A 
ATOM      3  C   UNL     1      -1.760  11.948  20.122  0.00  0.00    +0.000 A 
ATOM      4  C   UNL     1      -1.363  11.646  21.435  0.00  0.00    +0.000 A 
ATOM      5  C   UNL     1      -0.451  10.584  21.631  0.00  0.00    +0.000 A 
ATOM      6  C   UNL     1       0.138  10.005  22.792  0.00  0.00    +0.000 A 
ATOM      7  C   UNL     1       0.964   8.984  22.383  0.00  0.00    +0.000 A 
ATOM      8  N   UNL     1       0.904   8.920  21.015  0.00  0.00    +0.000 N 
ATOM      9  C   UNL     1       0.036   9.876  20.529  0.00  0.00    +0.000 A 
ATOM     10  C   UNL     1      -0.367  10.182  19.218  0.00  0.00    +0.000 A 
BRANCH   2  12
ATOM     11  C   UNL     1      -2.088  10.326  16.977  0.00  0.00    +0.000 C 
ATOM     12  O   UNL     1      -1.618  11.446  17.717  0.00  0.00    +0.000 OA
ENDBRANCH   2  12
BRANCH   4  13
ATOM     13  O   UNL     1      -1.800  12.304  22.557  0.00  0.00    +0.000 OA
ATOM     14  C   UNL     1      -1.139  13.514  22.901  0.00  0.00    +0.000 C 
ENDBRANCH   4  13
ENDBRANCH   1   8
BRANCH   1  15
ATOM     15  C   UNL     1       1.434   6.527  20.713  0.00  0.00    +0.000 C 
BRANCH  15  16
ATOM     16  C   UNL     1       2.371   5.561  19.994  0.00  0.00    +0.000 C 
BRANCH  16  17
ATOM     17  C   UNL     1       2.409   5.715  18.462  0.00  0.00    +0.000 C 
ATOM     18  C   UNL     1       2.287   4.424  17.645  0.00  0.00    +0.000 C 
ATOM     19  C   UNL     1       3.612   3.701  17.483  0.00  0.00    +0.000 C 
ATOM     20  C   UNL     1       4.653   4.669  16.946  0.00  0.00    +0.000 C 
ATOM     21  C   UNL     1       4.808   5.905  17.849  0.00  0.00    +0.000 C 
ATOM     22  C   UNL     1       5.458   5.603  19.211  0.00  0.00    +0.000 C 
ATOM     23  C   UNL     1       6.931   5.246  19.123  0.00  0.00    +0.000 C 
ATOM     24  C   UNL     1       7.678   6.299  18.332  0.00  0.00    +0.000 C 
ATOM     25  C   UNL     1       6.989   6.556  17.001  0.00  0.00    +0.000 C 
ATOM     26  O   UNL     1       5.614   6.888  17.171  0.00  0.00    +0.000 OA
ATOM     27  O   UNL     1       3.520   6.519  18.047  0.00  0.00    +0.000 OA
ENDBRANCH  16  17
ENDBRANCH  15  16
ENDBRANCH   1  15
TORSDOF 6
ENDMDL
MODEL 5
REMARK VINA RESULT:      -7.4      1.463      2.853
REMARK  Name = 
REMARK  8 active torsions:
REMARK  status: ('A' for Active; 'I' for Inactive)
REMARK    1  A    between atoms: C_1  and  O_2
REMARK    2  A    between atoms: O_2  and  C_3
REMARK    3  A    between atoms: C_5  and  O_6
REMARK    4  A    between atoms: O_6  and  C_7
REMARK    5  A    between atoms: N_11  and  C_12
REMARK    6  A    between atoms: C_12  and  C_13
REMARK    7  A    between atoms: C_13  and  C_14
REMARK    8  A    between atoms: C_14  and  C_15
REMARK                            x       y       z     vdW  Elec       q    Type
REMARK                         _______ _______ _______ _____ _____    ______ ____
ROOT
ATOM      1  C   UNL     1       1.338   9.170  18.030  0.00  0.00    +0.000 C 
ENDROOT
BRANCH   1   8
ATOM      2  C   UNL     1      -2.917  10.586  17.289  0.00  0.00    +0.000 A 
ATOM      3  C   UNL     1      -3.327  11.568  18.191  0.00  0.00    +0.000 A 
ATOM      4  C   UNL     1      -2.480  12.027  19.214  0.00  0.00    +0.000 A 
ATOM      5  C   UNL     1      -1.186  11.468  19.311  0.00  0.00    +0.000 A 
ATOM      6  C   UNL     1      -0.098  11.674  20.209  0.00  0.00    +0.000 A 
ATOM      7  C   UNL     1       0.931  10.848  19.824  0.00  0.00    +0.000 A 
ATOM      8  N   UNL     1       0.515  10.146  18.722  0.00  0.00    +0.000 N 
ATOM      9  C   UNL     1      -0.780  10.494  18.395  0.00  0.00    +0.000 A 
ATOM     10  C   UNL     1      -1.633  10.038  17.376  0.00  0.00    +0.000 A 
BRANCH   2  12
ATOM     11  C   UNL     1      -3.361  10.503  14.949  0.00  0.00    +0.000 C 
ATOM     12  O   UNL     1      -3.679  10.074  16.268  0.00  0.00    +0.000 OA
ENDBRANCH   2  12
BRANCH   4  13
ATOM     13  O   UNL     1      -2.815  12.981  20.140  0.00  0.00    +0.000 OA
ATOM     14  C   UNL     1      -3.840  12.655  21.069  0.00  0.00    +0.000 C 
ENDBRANCH   4  13
ENDBRANCH   1   8
BRANCH   1  15
ATOM     15  C   UNL     1       2.029   8.217  19.005  0.00  0.00    +0.000 C 
BRANCH  15  16
ATOM     16  C   UNL     1       3.105   7.401  18.294  0.00  0.00    +0.000 C 
BRANCH  16  17
ATOM     17  C   UNL     1       2.956   5.874  18.430  0.00  0.00    +0.000 C 
ATOM     18  C   UNL     1       3.556   5.241  19.689  0.00  0.00    +0.000 C 
ATOM     19  C   UNL     1       5.043   4.962  19.559  0.00  0.00    +0.000 C 
ATOM     20  C   UNL     1       5.297   4.162  18.293  0.00  0.00    +0.000 C 
ATOM     21  C   UNL     1       4.761   4.881  17.043  0.00  0.00    +0.000 C 
ATOM     22  C   UNL     1       5.545   6.153  16.671  0.00  0.00    +0.000 C 
ATOM     23  C   UNL     1       6.944   5.881  16.149  0.00  0.00    +0.000 C 
ATOM     24  C   UNL     1       6.896   4.867  15.025  0.00  0.00    +0.000 C 
ATOM     25  C   UNL     1       6.108   3.638  15.448  0.00  0.00    +0.000 C 
ATOM     26  O   UNL     1       4.807   3.978  15.921  0.00  0.00    +0.000 OA
ATOM     27  O   UNL     1       3.370   5.203  17.232  0.00  0.00    +0.000 OA
ENDBRANCH  16  17
ENDBRANCH  15  16
ENDBRANCH   1  15
TORSDOF 6
ENDMDL
MODEL 6
REMARK VINA RESULT:      -7.3      2.590      8.675
REMARK  Name = 
REMARK  8 active torsions:
REMARK  status: ('A' for Active; 'I' for Inactive)
REMARK    1  A    between atoms: C_1  and  O_2
REMARK    2  A    between atoms: O_2  and  C_3
REMARK    3  A    between atoms: C_5  and  O_6
REMARK    4  A    between atoms: O_6  and  C_7
REMARK    5  A    between atoms: N_11  and  C_12
REMARK    6  A    between atoms: C_12  and  C_13
REMARK    7  A    between atoms: C_13  and  C_14
REMARK    8  A    between atoms: C_14  and  C_15
REMARK                            x       y       z     vdW  Elec       q    Type
REMARK                         _______ _______ _______ _____ _____    ______ ____
ROOT
ATOM      1  C   UNL     1       2.598   8.577  18.235  0.00  0.00    +0.000 C 
ENDROOT
BRANCH   1   8
ATOM      2  C   UNL     1       5.295   5.542  16.193  0.00  0.00    +0.000 A 
ATOM      3  C   UNL     1       5.217   4.272  16.767  0.00  0.00    +0.000 A 
ATOM      4  C   UNL     1       4.386   4.015  17.870  0.00  0.00    +0.000 A 
ATOM      5  C   UNL     1       3.619   5.081  18.393  0.00  0.00    +0.000 A 
ATOM      6  C   UNL     1       2.709   5.185  19.484  0.00  0.00    +0.000 A 
ATOM      7  C   UNL     1       2.249   6.480  19.531  0.00  0.00    +0.000 A 
ATOM      8  N   UNL     1       2.842   7.171  18.506  0.00  0.00    +0.000 N 
ATOM      9  C   UNL     1       3.696   6.345  17.803  0.00  0.00    +0.000 A 
ATOM     10  C   UNL     1       4.530   6.596  16.701  0.00  0.00    +0.000 A 
BRANCH   2  12
ATOM     11  C   UNL     1       6.759   4.823  14.455  0.00  0.00    +0.000 C 
ATOM     12  O   UNL     1       6.085   5.884  15.122  0.00  0.00    +0.000 OA
ENDBRANCH   2  12
BRANCH   4  13
ATOM     13  O   UNL     1       4.263   2.799  18.492  0.00  0.00    +0.000 OA
ATOM     14  C   UNL     1       3.277   1.907  17.989  0.00  0.00    +0.000 C 
ENDBRANCH   4  13
ENDBRANCH   1   8
BRANCH   1  15
ATOM     15  C   UNL     1       1.150   8.833  17.817  0.00  0.00    +0.000 C 
BRANCH  15  16
ATOM     16  C   UNL     1       0.460   9.773  18.801  0.00  0.00    +0.000 C 
BRANCH  16  17
ATOM     17  C   UNL     1       1.150   9.893  20.173  0.00  0.00    +0.000 C 
ATOM     18  C   UNL     1       0.771   8.840  21.220  0.00  0.00    +0.000 C 
ATOM     19  C   UNL     1      -0.505   9.183  21.968  0.00  0.00    +0.000 C 
ATOM     20  C   UNL     1      -0.399  10.591  22.528  0.00  0.00    +0.000 C 
ATOM     21  C   UNL     1      -0.112  11.626  21.427  0.00  0.00    +0.000 C 
ATOM     22  C   UNL     1      -1.290  11.853  20.461  0.00  0.00    +0.000 C 
ATOM     23  C   UNL     1      -2.472  12.568  21.091  0.00  0.00    +0.000 C 
ATOM     24  C   UNL     1      -2.012  13.840  21.770  0.00  0.00    +0.000 C 
ATOM     25  C   UNL     1      -0.848  13.556  22.707  0.00  0.00    +0.000 C 
ATOM     26  O   UNL     1       0.219  12.888  22.038  0.00  0.00    +0.000 OA
ATOM     27  O   UNL     1       1.057  11.229  20.686  0.00  0.00    +0.000 OA
ENDBRANCH  16  17
ENDBRANCH  15  16
ENDBRANCH   1  15
TORSDOF 6
ENDMDL
MODEL 7
REMARK VINA RESULT:      -7.3      2.530      8.896
REMARK  Name = 
REMARK  8 active torsions:
REMARK  status: ('A' for Active; 'I' for Inactive)
REMARK    1  A    between atoms: C_1  and  O_2
REMARK    2  A    between atoms: O_2  and  C_3
REMARK    3  A    between atoms: C_5  and  O_6
REMARK    4  A    between atoms: O_6  and  C_7
REMARK    5  A    between atoms: N_11  and  C_12
REMARK    6  A    between atoms: C_12  and  C_13
REMARK    7  A    between atoms: C_13  and  C_14
REMARK    8  A    between atoms: C_14  and  C_15
REMARK                            x       y       z     vdW  Elec       q    Type
REMARK                         _______ _______ _______ _____ _____    ______ ____
ROOT
ATOM      1  C   UNL     1       2.260   7.600  18.500  0.00  0.00    +0.000 C 
ENDROOT
BRANCH   1   8
ATOM      2  C   UNL     1       2.749   3.181  17.558  0.00  0.00    +0.000 A 
ATOM      3  C   UNL     1       3.961   2.891  16.929  0.00  0.00    +0.000 A 
ATOM      4  C   UNL     1       4.892   3.898  16.626  0.00  0.00    +0.000 A 
ATOM      5  C   UNL     1       4.574   5.230  16.978  0.00  0.00    +0.000 A 
ATOM      6  C   UNL     1       5.253   6.472  16.813  0.00  0.00    +0.000 A 
ATOM      7  C   UNL     1       4.467   7.460  17.354  0.00  0.00    +0.000 A 
ATOM      8  N   UNL     1       3.333   6.869  17.848  0.00  0.00    +0.000 N 
ATOM      9  C   UNL     1       3.364   5.508  17.619  0.00  0.00    +0.000 A 
ATOM     10  C   UNL     1       2.437   4.496  17.917  0.00  0.00    +0.000 A 
BRANCH   2  12
ATOM     11  C   UNL     1       0.872   2.623  18.915  0.00  0.00    +0.000 C 
ATOM     12  O   UNL     1       1.781   2.263  17.882  0.00  0.00    +0.000 OA
ENDBRANCH   2  12
BRANCH   4  13
ATOM     13  O   UNL     1       6.096   3.691  16.003  0.00  0.00    +0.000 OA
ATOM     14  C   UNL     1       6.135   3.847  14.591  0.00  0.00    +0.000 C 
ENDBRANCH   4  13
ENDBRANCH   1   8
BRANCH   1  15
ATOM     15  C   UNL     1       2.250   9.074  18.095  0.00  0.00    +0.000 C 
BRANCH  15  16
ATOM     16  C   UNL     1       0.820   9.588  17.954  0.00  0.00    +0.000 C 
BRANCH  16  17
ATOM     17  C   UNL     1       0.159  10.030  19.272  0.00  0.00    +0.000 C 
ATOM     18  C   UNL     1      -1.211  10.707  19.152  0.00  0.00    +0.000 C 
ATOM     19  C   UNL     1      -1.112  12.191  18.846  0.00  0.00    +0.000 C 
ATOM     20  C   UNL     1      -0.188  12.854  19.854  0.00  0.00    +0.000 C 
ATOM     21  C   UNL     1       1.205  12.201  19.872  0.00  0.00    +0.000 C 
ATOM     22  C   UNL     1       2.031  12.462  18.599  0.00  0.00    +0.000 C 
ATOM     23  C   UNL     1       2.496  13.900  18.452  0.00  0.00    +0.000 C 
ATOM     24  C   UNL     1       3.196  14.355  19.715  0.00  0.00    +0.000 C 
ATOM     25  C   UNL     1       2.336  14.069  20.936  0.00  0.00    +0.000 C 
ATOM     26  O   UNL     1       1.947  12.700  21.002  0.00  0.00    +0.000 OA
ATOM     27  O   UNL     1       1.069  10.783  20.084  0.00  0.00    +0.000 OA
ENDBRANCH  16  17
ENDBRANCH  15  16
ENDBRANCH   1  15
TORSDOF 6
ENDMDL
MODEL 8
REMARK VINA RESULT:      -7.3      2.271      4.075
REMARK  Name = 
REMARK  8 active torsions:
REMARK  status: ('A' for Active; 'I' for Inactive)
REMARK    1  A    between atoms: C_1  and  O_2
REMARK    2  A    between atoms: O_2  and  C_3
REMARK    3  A    between atoms: C_5  and  O_6
REMARK    4  A    between atoms: O_6  and  C_7
REMARK    5  A    between atoms: N_11  and  C_12
REMARK    6  A    between atoms: C_12  and  C_13
REMARK    7  A    between atoms: C_13  and  C_14
REMARK    8  A    between atoms: C_14  and  C_15
REMARK                            x       y       z     vdW  Elec       q    Type
REMARK                         _______ _______ _______ _____ _____    ______ ____
ROOT
ATOM      1  C   UNL     1       1.355   7.895  20.825  0.00  0.00    +0.000 C 
ENDROOT
BRANCH   1   8
ATOM      2  C   UNL     1      -1.199  11.430  22.103  0.00  0.00    +0.000 A 
ATOM      3  C   UNL     1      -1.384  12.363  21.082  0.00  0.00    +0.000 A 
ATOM      4  C   UNL     1      -0.807  12.189  19.813  0.00  0.00    +0.000 A 
ATOM      5  C   UNL     1      -0.026  11.033  19.587  0.00  0.00    +0.000 A 
ATOM      6  C   UNL     1       0.704  10.553  18.461  0.00  0.00    +0.000 A 
ATOM      7  C   UNL     1       1.282   9.356  18.810  0.00  0.00    +0.000 A 
ATOM      8  N   UNL     1       0.930   9.083  20.107  0.00  0.00    +0.000 N 
ATOM      9  C   UNL     1       0.143  10.098  20.612  0.00  0.00    +0.000 A 
ATOM     10  C   UNL     1      -0.436  10.280  21.879  0.00  0.00    +0.000 A 
BRANCH   2  12
ATOM     11  C   UNL     1      -2.974  12.177  23.506  0.00  0.00    +0.000 C 
ATOM     12  O   UNL     1      -1.717  11.524  23.371  0.00  0.00    +0.000 OA
ENDBRANCH   2  12
BRANCH   4  13
ATOM     13  O   UNL     1      -0.938  13.065  18.766  0.00  0.00    +0.000 OA
ATOM     14  C   UNL     1      -0.067  14.188  18.743  0.00  0.00    +0.000 C 
ENDBRANCH   4  13
ENDBRANCH   1   8
BRANCH   1  15
ATOM     15  C   UNL     1       2.231   6.990  19.958  0.00  0.00    +0.000 C 
BRANCH  15  16
ATOM     16  C   UNL     1       2.117   5.536  20.405  0.00  0.00    +0.000 C 
BRANCH  16  17
ATOM     17  C   UNL     1       1.727   4.545  19.292  0.00  0.00    +0.000 C 
ATOM     18  C   UNL     1       1.692   3.064  19.682  0.00  0.00    +0.000 C 
ATOM     19  C   UNL     1       3.058   2.404  19.620  0.00  0.00    +0.000 C 
ATOM     20  C   UNL     1       3.683   2.664  18.260  0.00  0.00    +0.000 C 
ATOM     21  C   UNL     1       3.784   4.168  17.953  0.00  0.00    +0.000 C 
ATOM     22  C   UNL     1       4.812   4.914  18.823  0.00  0.00    +0.000 C 
ATOM     23  C   UNL     1       6.254   4.559  18.511  0.00  0.00    +0.000 C 
ATOM     24  C   UNL     1       6.520   4.705  17.028  0.00  0.00    +0.000 C 
ATOM     25  C   UNL     1       5.474   3.952  16.221  0.00  0.00    +0.000 C 
ATOM     26  O   UNL     1       4.149   4.346  16.571  0.00  0.00    +0.000 OA
ATOM     27  O   UNL     1       2.487   4.777  18.099  0.00  0.00    +0.000 OA
ENDBRANCH  16  17
ENDBRANCH  15  16
ENDBRANCH   1  15
TORSDOF 6
ENDMDL
MODEL 9
REMARK VINA RESULT:      -7.2      2.675      8.930
REMARK  Name = 
REMARK  8 active torsions:
REMARK  status: ('A' for Active; 'I' for Inactive)
REMARK    1  A    between atoms: C_1  and  O_2
REMARK    2  A    between atoms: O_2  and  C_3
REMARK    3  A    between atoms: C_5  and  O_6
REMARK    4  A    between atoms: O_6  and  C_7
REMARK    5  A    between atoms: N_11  and  C_12
REMARK    6  A    between atoms: C_12  and  C_13
REMARK    7  A    between atoms: C_13  and  C_14
REMARK    8  A    between atoms: C_14  and  C_15
REMARK                            x       y       z     vdW  Elec       q    Type
REMARK                         _______ _______ _______ _____ _____    ______ ____
ROOT
ATOM      1  C   UNL     1       2.244   6.789  19.992  0.00  0.00    +0.000 C 
ENDROOT
BRANCH   1   8
ATOM      2  C   UNL     1       3.588   2.975  17.919  0.00  0.00    +0.000 A 
ATOM      3  C   UNL     1       4.403   3.217  16.811  0.00  0.00    +0.000 A 
ATOM      4  C   UNL     1       4.731   4.524  16.412  0.00  0.00    +0.000 A 
ATOM      5  C   UNL     1       4.215   5.603  17.165  0.00  0.00    +0.000 A 
ATOM      6  C   UNL     1       4.324   7.018  17.042  0.00  0.00    +0.000 A 
ATOM      7  C   UNL     1       3.608   7.588  18.069  0.00  0.00    +0.000 A 
ATOM      8  N   UNL     1       3.069   6.573  18.816  0.00  0.00    +0.000 N 
ATOM      9  C   UNL     1       3.411   5.349  18.279  0.00  0.00    +0.000 A 
ATOM     10  C   UNL     1       3.085   4.040  18.672  0.00  0.00    +0.000 A 
BRANCH   2  12
ATOM     11  C   UNL     1       2.195   1.696  19.368  0.00  0.00    +0.000 C 
ATOM     12  O   UNL     1       3.211   1.736  18.373  0.00  0.00    +0.000 OA
ENDBRANCH   2  12
BRANCH   4  13
ATOM     13  O   UNL     1       5.518   4.839  15.333  0.00  0.00    +0.000 OA
ATOM     14  C   UNL     1       6.921   4.660  15.475  0.00  0.00    +0.000 C 
ENDBRANCH   4  13
ENDBRANCH   1   8
BRANCH   1  15
ATOM     15  C   UNL     1       1.623   8.186  20.002  0.00  0.00    +0.000 C 
BRANCH  15  16
ATOM     16  C   UNL     1       0.629   8.330  21.151  0.00  0.00    +0.000 C 
BRANCH  16  17
ATOM     17  C   UNL     1       0.995   9.402  22.194  0.00  0.00    +0.000 C 
ATOM     18  C   UNL     1       0.039   9.549  23.382  0.00  0.00    +0.000 C 
ATOM     19  C   UNL     1      -1.157  10.433  23.073  0.00  0.00    +0.000 C 
ATOM     20  C   UNL     1      -0.672  11.758  22.510  0.00  0.00    +0.000 C 
ATOM     21  C   UNL     1       0.207  11.565  21.262  0.00  0.00    +0.000 C 
ATOM     22  C   UNL     1      -0.565  11.061  20.029  0.00  0.00    +0.000 C 
ATOM     23  C   UNL     1      -1.513  12.088  19.436  0.00  0.00    +0.000 C 
ATOM     24  C   UNL     1      -0.784  13.391  19.185  0.00  0.00    +0.000 C 
ATOM     25  C   UNL     1      -0.040  13.836  20.435  0.00  0.00    +0.000 C 
ATOM     26  O   UNL     1       0.831  12.819  20.924  0.00  0.00    +0.000 OA
ATOM     27  O   UNL     1       1.284  10.659  21.568  0.00  0.00    +0.000 OA
ENDBRANCH  16  17
ENDBRANCH  15  16
ENDBRANCH   1  15
TORSDOF 6
ENDMDL
