MODEL 1
REMARK VINA RESULT:      -7.0      0.000      0.000
REMARK  Name = 
REMARK  5 active torsions:
REMARK  status: ('A' for Active; 'I' for Inactive)
REMARK    1  A    between atoms: C_1  and  C_2
REMARK    2  A    between atoms: C_2  and  O_3
REMARK    3  A    between atoms: O_3  and  C_4
REMARK    4  A    between atoms: C_4  and  C_5
REMARK    5  A    between atoms: N_11  and  C_12
REMARK                            x       y       z     vdW  Elec       q    Type
REMARK                         _______ _______ _______ _____ _____    ______ ____
ROOT
ATOM      1  C   UNL     1       7.735   7.473  17.558  0.00  0.00    +0.000 C 
ATOM      2  C   UNL     1       8.068   6.616  18.787  0.00  0.00    +0.000 C 
ATOM      3  C   UNL     1       7.132   5.426  18.650  0.00  0.00    +0.000 C 
ATOM      4  N   UNL     1       5.927   6.021  18.100  0.00  0.00    +0.000 N 
ATOM      5  C   UNL     1       4.616   5.616  18.166  0.00  0.00    +0.000 C 
ATOM      6  O   UNL     1       3.757   6.229  17.530  0.00  0.00    +0.000 OA
ATOM      7  N   UNL     1       4.349   4.549  18.988  0.00  0.00    +0.000 N 
ATOM      8  C   UNL     1       6.255   7.197  17.308  0.00  0.00    +0.000 C 
ATOM      9  H   UNL     1       5.057   4.292  19.661  0.00  0.00    +0.000 HD
ENDROOT
BRANCH   7  10
ATOM     10  C   UNL     1       3.069   3.970  19.194  0.00  0.00    +0.000 A 
ATOM     11  C   UNL     1       2.172   4.417  20.166  0.00  0.00    +0.000 A 
ATOM     12  C   UNL     1       0.961   3.759  20.315  0.00  0.00    +0.000 A 
ATOM     13  N   UNL     1       0.573   2.707  19.560  0.00  0.00    +0.000 NA
ATOM     14  C   UNL     1       1.448   2.302  18.611  0.00  0.00    +0.000 A 
ATOM     15  C   UNL     1       2.680   2.897  18.393  0.00  0.00    +0.000 A 
ATOM     16  F   UNL     1       3.495   2.427  17.438  0.00  0.00    +0.000 F 
ENDBRANCH   7  10
BRANCH   1  17
ATOM     17  C   UNL     1       8.004   8.958  17.767  0.00  0.00    +0.000 C 
BRANCH  17  18
ATOM     18  O   UNL     1       8.941   9.128  18.828  0.00  0.00    +0.000 OA
BRANCH  18  20
ATOM     19  C   UNL     1       9.968  11.148  18.063  0.00  0.00    +0.000 C 
ATOM     20  C   UNL     1       9.123  10.508  19.145  0.00  0.00    +0.000 C 
ENDBRANCH  18  20
ENDBRANCH  17  18
ENDBRANCH   1  17
TORSDOF 4
ENDMDL
MODEL 2
REMARK VINA RESULT:      -6.9      1.097      1.599
REMARK  Name = 
REMARK  5 active torsions:
REMARK  status: ('A' for Active; 'I' for Inactive)
REMARK    1  A    between atoms: C_1  and  C_2
REMARK    2  A    between atoms: C_2  and  O_3
REMARK    3  A    between atoms: O_3  and  C_4
REMARK    4  A    between atoms: C_4  and  C_5
REMARK    5  A    between atoms: N_11  and  C_12
REMARK                            x       y       z     vdW  Elec       q    Type
REMARK                         _______ _______ _______ _____ _____    ______ ____
ROOT
ATOM      1  C   UNL     1       7.684   7.429  17.545  0.00  0.00    +0.000 C 
ATOM      2  C   UNL     1       8.016   6.586  18.784  0.00  0.00    +0.000 C 
ATOM      3  C   UNL     1       7.117   5.370  18.633  0.00  0.00    +0.000 C 
ATOM      4  N   UNL     1       5.907   5.927  18.056  0.00  0.00    +0.000 N 
ATOM      5  C   UNL     1       4.607   5.486  18.099  0.00  0.00    +0.000 C 
ATOM      6  O   UNL     1       3.743   6.071  17.443  0.00  0.00    +0.000 OA
ATOM      7  N   UNL     1       4.354   4.415  18.919  0.00  0.00    +0.000 N 
ATOM      8  C   UNL     1       6.216   7.110  17.266  0.00  0.00    +0.000 C 
ATOM      9  H   UNL     1       5.055   4.181  19.607  0.00  0.00    +0.000 HD
ENDROOT
BRANCH   7  10
ATOM     10  C   UNL     1       3.087   3.800  19.103  0.00  0.00    +0.000 A 
ATOM     11  C   UNL     1       2.637   2.725  18.335  0.00  0.00    +0.000 A 
ATOM     12  C   UNL     1       1.367   2.218  18.566  0.00  0.00    +0.000 A 
ATOM     13  N   UNL     1       0.526   2.691  19.513  0.00  0.00    +0.000 NA
ATOM     14  C   UNL     1       0.988   3.719  20.260  0.00  0.00    +0.000 A 
ATOM     15  C   UNL     1       2.241   4.290  20.097  0.00  0.00    +0.000 A 
ATOM     16  F   UNL     1       2.620   5.315  20.873  0.00  0.00    +0.000 F 
ENDBRANCH   7  10
BRANCH   1  17
ATOM     17  C   UNL     1       7.905   8.922  17.752  0.00  0.00    +0.000 C 
BRANCH  17  18
ATOM     18  O   UNL     1       8.830   9.121  18.819  0.00  0.00    +0.000 OA
BRANCH  18  20
ATOM     19  C   UNL     1       9.447  10.894  20.303  0.00  0.00    +0.000 C 
ATOM     20  C   UNL     1       9.298  10.470  18.855  0.00  0.00    +0.000 C 
ENDBRANCH  18  20
ENDBRANCH  17  18
ENDBRANCH   1  17
TORSDOF 4
ENDMDL
MODEL 3
REMARK VINA RESULT:      -6.6      3.485      4.902
REMARK  Name = 
REMARK  5 active torsions:
REMARK  status: ('A' for Active; 'I' for Inactive)
REMARK    1  A    between atoms: C_1  and  C_2
REMARK    2  A    between atoms: C_2  and  O_3
REMARK    3  A    between atoms: O_3  and  C_4
REMARK    4  A    between atoms: C_4  and  C_5
REMARK    5  A    between atoms: N_11  and  C_12
REMARK                            x       y       z     vdW  Elec       q    Type
REMARK                         _______ _______ _______ _____ _____    ______ ____
ROOT
ATOM      1  C   UNL     1       6.996   4.474  15.162  0.00  0.00    +0.000 C 
ATOM      2  C   UNL     1       6.866   5.764  15.984  0.00  0.00    +0.000 C 
ATOM      3  C   UNL     1       6.433   5.266  17.354  0.00  0.00    +0.000 C 
ATOM      4  N   UNL     1       5.560   4.152  17.035  0.00  0.00    +0.000 N 
ATOM      5  C   UNL     1       4.527   3.589  17.744  0.00  0.00    +0.000 C 
ATOM      6  O   UNL     1       3.980   2.570  17.320  0.00  0.00    +0.000 OA
ATOM      7  N   UNL     1       4.148   4.244  18.890  0.00  0.00    +0.000 N 
ATOM      8  C   UNL     1       5.948   3.545  15.770  0.00  0.00    +0.000 C 
ATOM      9  H   UNL     1       4.466   5.196  19.008  0.00  0.00    +0.000 HD
ENDROOT
BRANCH   7  10
ATOM     10  C   UNL     1       3.113   3.831  19.770  0.00  0.00    +0.000 A 
ATOM     11  C   UNL     1       1.841   4.403  19.780  0.00  0.00    +0.000 A 
ATOM     12  C   UNL     1       0.909   3.956  20.705  0.00  0.00    +0.000 A 
ATOM     13  N   UNL     1       1.148   2.974  21.604  0.00  0.00    +0.000 NA
ATOM     14  C   UNL     1       2.380   2.419  21.565  0.00  0.00    +0.000 A 
ATOM     15  C   UNL     1       3.373   2.805  20.678  0.00  0.00    +0.000 A 
ATOM     16  F   UNL     1       4.575   2.211  20.711  0.00  0.00    +0.000 F 
ENDBRANCH   7  10
BRANCH   1  17
ATOM     17  C   UNL     1       6.766   4.683  13.671  0.00  0.00    +0.000 C 
BRANCH  17  18
ATOM     18  O   UNL     1       5.559   4.031  13.280  0.00  0.00    +0.000 OA
BRANCH  18  20
ATOM     19  C   UNL     1       4.413   3.151  11.373  0.00  0.00    +0.000 C 
ATOM     20  C   UNL     1       5.744   3.266  12.089  0.00  0.00    +0.000 C 
ENDBRANCH  18  20
ENDBRANCH  17  18
ENDBRANCH   1  17
TORSDOF 4
ENDMDL
MODEL 4
REMARK VINA RESULT:      -6.4      3.366      4.788
REMARK  Name = 
REMARK  5 active torsions:
REMARK  status: ('A' for Active; 'I' for Inactive)
REMARK    1  A    between atoms: C_1  and  C_2
REMARK    2  A    between atoms: C_2  and  O_3
REMARK    3  A    between atoms: O_3  and  C_4
REMARK    4  A    between atoms: C_4  and  C_5
REMARK    5  A    between atoms: N_11  and  C_12
REMARK                            x       y       z     vdW  Elec       q    Type
REMARK                         _______ _______ _______ _____ _____    ______ ____
ROOT
ATOM      1  C   UNL     1       7.093   4.582  15.370  0.00  0.00    +0.000 C 
ATOM      2  C   UNL     1       7.044   5.788  16.317  0.00  0.00    +0.000 C 
ATOM      3  C   UNL     1       6.572   5.185  17.631  0.00  0.00    +0.000 C 
ATOM      4  N   UNL     1       5.629   4.167  17.203  0.00  0.00    +0.000 N 
ATOM      5  C   UNL     1       4.559   3.606  17.855  0.00  0.00    +0.000 C 
ATOM      6  O   UNL     1       3.949   2.672  17.331  0.00  0.00    +0.000 OA
ATOM      7  N   UNL     1       4.218   4.165  19.061  0.00  0.00    +0.000 N 
ATOM      8  C   UNL     1       5.983   3.666  15.883  0.00  0.00    +0.000 C 
ATOM      9  H   UNL     1       4.597   5.078  19.274  0.00  0.00    +0.000 HD
ENDROOT
BRANCH   7  10
ATOM     10  C   UNL     1       3.155   3.735  19.897  0.00  0.00    +0.000 A 
ATOM     11  C   UNL     1       3.322   2.836  20.951  0.00  0.00    +0.000 A 
ATOM     12  C   UNL     1       2.213   2.447  21.686  0.00  0.00    +0.000 A 
ATOM     13  N   UNL     1       0.959   2.900  21.460  0.00  0.00    +0.000 NA
ATOM     14  C   UNL     1       0.821   3.786  20.448  0.00  0.00    +0.000 A 
ATOM     15  C   UNL     1       1.872   4.228  19.659  0.00  0.00    +0.000 A 
ATOM     16  F   UNL     1       1.649   5.101  18.666  0.00  0.00    +0.000 F 
ENDBRANCH   7  10
BRANCH   1  17
ATOM     17  C   UNL     1       6.884   4.953  13.907  0.00  0.00    +0.000 C 
BRANCH  17  18
ATOM     18  O   UNL     1       5.991   4.020  13.302  0.00  0.00    +0.000 OA
BRANCH  18  20
ATOM     19  C   UNL     1       5.617   2.376  11.605  0.00  0.00    +0.000 C 
ATOM     20  C   UNL     1       6.570   3.425  12.141  0.00  0.00    +0.000 C 
ENDBRANCH  18  20
ENDBRANCH  17  18
ENDBRANCH   1  17
TORSDOF 4
ENDMDL
MODEL 5
REMARK VINA RESULT:      -6.3      3.533      4.807
REMARK  Name = 
REMARK  5 active torsions:
REMARK  status: ('A' for Active; 'I' for Inactive)
REMARK    1  A    between atoms: C_1  and  C_2
REMARK    2  A    between atoms: C_2  and  O_3
REMARK    3  A    between atoms: O_3  and  C_4
REMARK    4  A    between atoms: C_4  and  C_5
REMARK    5  A    between atoms: N_11  and  C_12
REMARK                            x       y       z     vdW  Elec       q    Type
REMARK                         _______ _______ _______ _____ _____    ______ ____
ROOT
ATOM      1  C   UNL     1       6.693   5.215  15.193  0.00  0.00    +0.000 C 
ATOM      2  C   UNL     1       5.522   6.206  15.152  0.00  0.00    +0.000 C 
ATOM      3  C   UNL     1       5.007   6.200  16.583  0.00  0.00    +0.000 C 
ATOM      4  N   UNL     1       5.177   4.816  16.986  0.00  0.00    +0.000 N 
ATOM      5  C   UNL     1       4.521   4.070  17.935  0.00  0.00    +0.000 C 
ATOM      6  O   UNL     1       4.903   2.926  18.182  0.00  0.00    +0.000 OA
ATOM      7  N   UNL     1       3.435   4.663  18.530  0.00  0.00    +0.000 N 
ATOM      8  C   UNL     1       6.285   4.207  16.265  0.00  0.00    +0.000 C 
ATOM      9  H   UNL     1       3.044   5.478  18.079  0.00  0.00    +0.000 HD
ENDROOT
BRANCH   7  10
ATOM     10  C   UNL     1       2.624   4.073  19.536  0.00  0.00    +0.000 A 
ATOM     11  C   UNL     1       2.906   4.163  20.900  0.00  0.00    +0.000 A 
ATOM     12  C   UNL     1       2.074   3.520  21.803  0.00  0.00    +0.000 A 
ATOM     13  N   UNL     1       0.978   2.812  21.449  0.00  0.00    +0.000 NA
ATOM     14  C   UNL     1       0.710   2.753  20.124  0.00  0.00    +0.000 A 
ATOM     15  C   UNL     1       1.488   3.362  19.152  0.00  0.00    +0.000 A 
ATOM     16  F   UNL     1       1.160   3.247  17.857  0.00  0.00    +0.000 F 
ENDBRANCH   7  10
BRANCH   1  17
ATOM     17  C   UNL     1       6.957   4.537  13.854  0.00  0.00    +0.000 C 
BRANCH  17  18
ATOM     18  O   UNL     1       5.867   3.674  13.535  0.00  0.00    +0.000 OA
BRANCH  18  20
ATOM     19  C   UNL     1       4.544   3.272  11.583  0.00  0.00    +0.000 C 
ATOM     20  C   UNL     1       5.936   3.231  12.180  0.00  0.00    +0.000 C 
ENDBRANCH  18  20
ENDBRANCH  17  18
ENDBRANCH   1  17
TORSDOF 4
ENDMDL
MODEL 6
REMARK VINA RESULT:      -6.3      1.054      1.153
REMARK  Name = 
REMARK  5 active torsions:
REMARK  status: ('A' for Active; 'I' for Inactive)
REMARK    1  A    between atoms: C_1  and  C_2
REMARK    2  A    between atoms: C_2  and  O_3
REMARK    3  A    between atoms: O_3  and  C_4
REMARK    4  A    between atoms: C_4  and  C_5
REMARK    5  A    between atoms: N_11  and  C_12
REMARK                            x       y       z     vdW  Elec       q    Type
REMARK                         _______ _______ _______ _____ _____    ______ ____
ROOT
ATOM      1  C   UNL     1       7.793   7.605  17.568  0.00  0.00    +0.000 C 
ATOM      2  C   UNL     1       8.138   6.671  18.735  0.00  0.00    +0.000 C 
ATOM      3  C   UNL     1       7.258   5.456  18.485  0.00  0.00    +0.000 C 
ATOM      4  N   UNL     1       6.040   6.040  17.953  0.00  0.00    +0.000 N 
ATOM      5  C   UNL     1       4.746   5.577  17.956  0.00  0.00    +0.000 C 
ATOM      6  O   UNL     1       3.875   6.200  17.349  0.00  0.00    +0.000 OA
ATOM      7  N   UNL     1       4.510   4.439  18.686  0.00  0.00    +0.000 N 
ATOM      8  C   UNL     1       6.331   7.288  17.262  0.00  0.00    +0.000 C 
ATOM      9  H   UNL     1       5.214   4.160  19.355  0.00  0.00    +0.000 HD
ENDROOT
BRANCH   7  10
ATOM     10  C   UNL     1       3.253   3.792  18.817  0.00  0.00    +0.000 A 
ATOM     11  C   UNL     1       2.163   4.056  17.987  0.00  0.00    +0.000 A 
ATOM     12  C   UNL     1       0.964   3.399  18.220  0.00  0.00    +0.000 A 
ATOM     13  N   UNL     1       0.780   2.490  19.203  0.00  0.00    +0.000 NA
ATOM     14  C   UNL     1       1.853   2.233  19.984  0.00  0.00    +0.000 A 
ATOM     15  C   UNL     1       3.087   2.844  19.827  0.00  0.00    +0.000 A 
ATOM     16  F   UNL     1       4.100   2.541  20.652  0.00  0.00    +0.000 F 
ENDBRANCH   7  10
BRANCH   1  17
ATOM     17  C   UNL     1       7.992   9.080  17.896  0.00  0.00    +0.000 C 
BRANCH  17  18
ATOM     18  O   UNL     1       8.991   9.212  18.906  0.00  0.00    +0.000 OA
BRANCH  18  20
ATOM     19  C   UNL     1      10.014  11.189  18.030  0.00  0.00    +0.000 C 
ATOM     20  C   UNL     1       9.258  10.584  19.196  0.00  0.00    +0.000 C 
ENDBRANCH  18  20
ENDBRANCH  17  18
ENDBRANCH   1  17
TORSDOF 4
ENDMDL
MODEL 7
REMARK VINA RESULT:      -6.2      4.732      6.715
REMARK  Name = 
REMARK  5 active torsions:
REMARK  status: ('A' for Active; 'I' for Inactive)
REMARK    1  A    between atoms: C_1  and  C_2
REMARK    2  A    between atoms: C_2  and  O_3
REMARK    3  A    between atoms: O_3  and  C_4
REMARK    4  A    between atoms: C_4  and  C_5
REMARK    5  A    between atoms: N_11  and  C_12
REMARK                            x       y       z     vdW  Elec       q    Type
REMARK                         _______ _______ _______ _____ _____    ______ ____
ROOT
ATOM      1  C   UNL     1       0.270  10.558  20.022  0.00  0.00    +0.000 C 
ATOM      2  C   UNL     1      -0.058   9.738  21.278  0.00  0.00    +0.000 C 
ATOM      3  C   UNL     1       1.145   8.820  21.422  0.00  0.00    +0.000 C 
ATOM      4  N   UNL     1       1.487   8.510  20.046  0.00  0.00    +0.000 N 
ATOM      5  C   UNL     1       2.140   7.429  19.504  0.00  0.00    +0.000 C 
ATOM      6  O   UNL     1       2.415   7.423  18.304  0.00  0.00    +0.000 OA
ATOM      7  N   UNL     1       2.415   6.393  20.361  0.00  0.00    +0.000 N 
ATOM      8  C   UNL     1       1.098   9.602  19.166  0.00  0.00    +0.000 C 
ATOM      9  H   UNL     1       1.922   6.375  21.243  0.00  0.00    +0.000 HD
ENDROOT
BRANCH   7  10
ATOM     10  C   UNL     1       3.086   5.191  20.011  0.00  0.00    +0.000 A 
ATOM     11  C   UNL     1       4.373   5.159  19.472  0.00  0.00    +0.000 A 
ATOM     12  C   UNL     1       4.927   3.936  19.127  0.00  0.00    +0.000 A 
ATOM     13  N   UNL     1       4.302   2.749  19.294  0.00  0.00    +0.000 NA
ATOM     14  C   UNL     1       3.064   2.800  19.836  0.00  0.00    +0.000 A 
ATOM     15  C   UNL     1       2.432   3.975  20.208  0.00  0.00    +0.000 A 
ATOM     16  F   UNL     1       1.197   3.941  20.729  0.00  0.00    +0.000 F 
ENDBRANCH   7  10
BRANCH   1  17
ATOM     17  C   UNL     1      -0.967  11.049  19.282  0.00  0.00    +0.000 C 
BRANCH  17  18
ATOM     18  O   UNL     1      -1.124  10.308  18.073  0.00  0.00    +0.000 OA
BRANCH  18  20
ATOM     19  C   UNL     1      -2.683   9.908  16.303  0.00  0.00    +0.000 C 
ATOM     20  C   UNL     1      -2.500  10.044  17.802  0.00  0.00    +0.000 C 
ENDBRANCH  18  20
ENDBRANCH  17  18
ENDBRANCH   1  17
TORSDOF 4
ENDMDL
MODEL 8
REMARK VINA RESULT:      -6.1      4.565      8.186
REMARK  Name = 
REMARK  5 active torsions:
REMARK  status: ('A' for Active; 'I' for Inactive)
REMARK    1  A    between atoms: C_1  and  C_2
REMARK    2  A    between atoms: C_2  and  O_3
REMARK    3  A    between atoms: O_3  and  C_4
REMARK    4  A    between atoms: C_4  and  C_5
REMARK    5  A    between atoms: N_11  and  C_12
REMARK                            x       y       z     vdW  Elec       q    Type
REMARK                         _______ _______ _______ _____ _____    ______ ____
ROOT
ATOM      1  C   UNL     1       6.732   5.267  17.345  0.00  0.00    +0.000 C 
ATOM      2  C   UNL     1       7.893   4.986  18.309  0.00  0.00    +0.000 C 
ATOM      3  C   UNL     1       8.006   6.275  19.108  0.00  0.00    +0.000 C 
ATOM      4  N   UNL     1       7.705   7.297  18.123  0.00  0.00    +0.000 N 
ATOM      5  C   UNL     1       8.068   8.621  18.064  0.00  0.00    +0.000 C 
ATOM      6  O   UNL     1       7.608   9.339  17.175  0.00  0.00    +0.000 OA
ATOM      7  N   UNL     1       8.967   9.048  19.008  0.00  0.00    +0.000 N 
ATOM      8  C   UNL     1       6.817   6.771  17.097  0.00  0.00    +0.000 C 
ATOM      9  H   UNL     1       9.482   8.341  19.514  0.00  0.00    +0.000 HD
ENDROOT
BRANCH   7  10
ATOM     10  C   UNL     1       9.467  10.372  19.130  0.00  0.00    +0.000 A 
ATOM     11  C   UNL     1       9.958  11.109  18.052  0.00  0.00    +0.000 A 
ATOM     12  C   UNL     1      10.460  12.381  18.280  0.00  0.00    +0.000 A 
ATOM     13  N   UNL     1      10.491  12.975  19.494  0.00  0.00    +0.000 NA
ATOM     14  C   UNL     1       9.992  12.252  20.523  0.00  0.00    +0.000 A 
ATOM     15  C   UNL     1       9.474  10.974  20.388  0.00  0.00    +0.000 A 
ATOM     16  F   UNL     1       9.008  10.319  21.461  0.00  0.00    +0.000 F 
ENDBRANCH   7  10
BRANCH   1  17
ATOM     17  C   UNL     1       6.821   4.476  16.046  0.00  0.00    +0.000 C 
BRANCH  17  18
ATOM     18  O   UNL     1       7.566   5.222  15.085  0.00  0.00    +0.000 OA
BRANCH  18  20
ATOM     19  C   UNL     1       6.044   3.880  13.816  0.00  0.00    +0.000 C 
ATOM     20  C   UNL     1       7.135   4.931  13.756  0.00  0.00    +0.000 C 
ENDBRANCH  18  20
ENDBRANCH  17  18
ENDBRANCH   1  17
TORSDOF 4
ENDMDL
MODEL 9
REMARK VINA RESULT:      -6.1      4.993      6.788
REMARK  Name = 
REMARK  5 active torsions:
REMARK  status: ('A' for Active; 'I' for Inactive)
REMARK    1  A    between atoms: C_1  and  C_2
REMARK    2  A    between atoms: C_2  and  O_3
REMARK    3  A    between atoms: O_3  and  C_4
REMARK    4  A    between atoms: C_4  and  C_5
REMARK    5  A    between atoms: N_11  and  C_12
REMARK                            x       y       z     vdW  Elec       q    Type
REMARK                         _______ _______ _______ _____ _____    ______ ____
ROOT
ATOM      1  C   UNL     1       0.304  10.990  19.392  0.00  0.00    +0.000 C 
ATOM      2  C   UNL     1      -0.264   9.948  20.365  0.00  0.00    +0.000 C 
ATOM      3  C   UNL     1       0.895   8.983  20.562  0.00  0.00    +0.000 C 
ATOM      4  N   UNL     1       1.513   8.943  19.249  0.00  0.00    +0.000 N 
ATOM      5  C   UNL     1       2.274   7.972  18.645  0.00  0.00    +0.000 C 
ATOM      6  O   UNL     1       2.787   8.195  17.548  0.00  0.00    +0.000 OA
ATOM      7  N   UNL     1       2.380   6.778  19.314  0.00  0.00    +0.000 N 
ATOM      8  C   UNL     1       1.299  10.199  18.546  0.00  0.00    +0.000 C 
ATOM      9  H   UNL     1       1.718   6.600  20.056  0.00  0.00    +0.000 HD
ENDROOT
BRANCH   7  10
ATOM     10  C   UNL     1       3.121   5.650  18.872  0.00  0.00    +0.000 A 
ATOM     11  C   UNL     1       4.418   5.367  19.303  0.00  0.00    +0.000 A 
ATOM     12  C   UNL     1       5.073   4.260  18.783  0.00  0.00    +0.000 A 
ATOM     13  N   UNL     1       4.526   3.412  17.884  0.00  0.00    +0.000 NA
ATOM     14  C   UNL     1       3.261   3.692  17.494  0.00  0.00    +0.000 A 
ATOM     15  C   UNL     1       2.533   4.776  17.958  0.00  0.00    +0.000 A 
ATOM     16  F   UNL     1       1.287   4.991  17.513  0.00  0.00    +0.000 F 
ENDBRANCH   7  10
BRANCH   1  17
ATOM     17  C   UNL     1      -0.762  11.657  18.531  0.00  0.00    +0.000 C 
BRANCH  17  18
ATOM     18  O   UNL     1      -2.051  11.193  18.928  0.00  0.00    +0.000 OA
BRANCH  18  20
ATOM     19  C   UNL     1      -2.203   9.984  16.869  0.00  0.00    +0.000 C 
ATOM     20  C   UNL     1      -2.891  10.966  17.796  0.00  0.00    +0.000 C 
ENDBRANCH  18  20
ENDBRANCH  17  18
ENDBRANCH   1  17
TORSDOF 4
ENDMDL
