MODEL 1
REMARK VINA RESULT:      -8.0      0.000      0.000
REMARK  Name = 
REMARK  5 active torsions:
REMARK  status: ('A' for Active; 'I' for Inactive)
REMARK    1  A    between atoms: C_2  and  OXT_3
REMARK    2  A    between atoms: C_2  and  CA_4
REMARK    3  A    between atoms: C_6  and  S_7
REMARK    4  A    between atoms: S_7  and  N_10
REMARK    5  A    between atoms: N_10  and  C_11
REMARK                            x       y       z     vdW  Elec       q    Type
REMARK                         _______ _______ _______ _____ _____    ______ ____
ROOT
ATOM      1  S   UNL     1       5.251   6.249  17.322  0.00  0.00    +0.000 S 
ATOM      2  O   UNL     1       5.511   5.589  18.586  0.00  0.00    +0.000 OA
ATOM      3  O   UNL     1       5.971   7.435  16.922  0.00  0.00    +0.000 OA
ENDROOT
BRANCH   1   6
ATOM      4  CA  UNL     1       6.214   4.102  14.155  0.00  0.00    +0.000 A 
ATOM      5  C   UNL     1       5.864   5.302  14.756  0.00  0.00    +0.000 A 
ATOM      6  C   UNL     1       5.668   5.055  16.143  0.00  0.00    +0.000 A 
ATOM      7  C   UNL     1       5.885   3.712  16.357  0.00  0.00    +0.000 A 
ATOM      8  N   UNL     1       6.239   3.151  15.159  0.00  0.00    +0.000 N 
ATOM      9  H   UNL     1       6.479   2.178  15.007  0.00  0.00    +0.000 HD
BRANCH   4  11
ATOM     10  O   UNL     1       7.250   4.443  12.063  0.00  0.00    +0.000 OA
ATOM     11  C   UNL     1       6.549   3.760  12.793  0.00  0.00    +0.000 C 
BRANCH  11  12
ATOM     12  OXT UNL     1       6.030   2.573  12.406  0.00  0.00    +0.000 OA
ATOM     13  HXT UNL     1       6.381   2.255  11.555  0.00  0.00    +0.000 HD
ENDBRANCH  11  12
ENDBRANCH   4  11
ENDBRANCH   1   6
BRANCH   1  14
ATOM     14  N   UNL     1       3.574   6.499  17.261  0.00  0.00    +0.000 N 
ATOM     15  H   UNL     1       3.222   6.098  16.393  0.00  0.00    +0.000 HD
BRANCH  14  16
ATOM     16  C   UNL     1       2.825   6.126  18.423  0.00  0.00    +0.000 A 
ATOM     17  C   UNL     1       2.647   7.086  19.421  0.00  0.00    +0.000 A 
ATOM     18  C   UNL     1       1.948   6.766  20.582  0.00  0.00    +0.000 A 
ATOM     19  C   UNL     1       1.430   5.483  20.749  0.00  0.00    +0.000 A 
ATOM     20  C   UNL     1       1.593   4.509  19.751  0.00  0.00    +0.000 A 
ATOM     21  C   UNL     1       2.316   4.821  18.578  0.00  0.00    +0.000 A 
ATOM     22  C   UNL     1       2.469   3.790  17.480  0.00  0.00    +0.000 C 
ATOM     23  C   UNL     1       2.177   2.357  17.921  0.00  0.00    +0.000 C 
ATOM     24  C   UNL     1       0.887   2.304  18.724  0.00  0.00    +0.000 C 
ATOM     25  C   UNL     1       1.039   3.125  20.000  0.00  0.00    +0.000 C 
ENDBRANCH  14  16
ENDBRANCH   1  14
TORSDOF 5
ENDMDL
MODEL 2
REMARK VINA RESULT:      -7.9      0.872      1.048
REMARK  Name = 
REMARK  5 active torsions:
REMARK  status: ('A' for Active; 'I' for Inactive)
REMARK    1  A    between atoms: C_2  and  OXT_3
REMARK    2  A    between atoms: C_2  and  CA_4
REMARK    3  A    between atoms: C_6  and  S_7
REMARK    4  A    between atoms: S_7  and  N_10
REMARK    5  A    between atoms: N_10  and  C_11
REMARK                            x       y       z     vdW  Elec       q    Type
REMARK                         _______ _______ _______ _____ _____    ______ ____
ROOT
ATOM      1  S   UNL     1       5.467   5.755  17.185  0.00  0.00    +0.000 S 
ATOM      2  O   UNL     1       5.601   4.662  18.128  0.00  0.00    +0.000 OA
ATOM      3  O   UNL     1       6.219   6.979  17.328  0.00  0.00    +0.000 OA
ENDROOT
BRANCH   1   6
ATOM      4  CA  UNL     1       5.975   4.002  13.687  0.00  0.00    +0.000 A 
ATOM      5  C   UNL     1       5.187   4.356  14.772  0.00  0.00    +0.000 A 
ATOM      6  C   UNL     1       6.003   5.074  15.689  0.00  0.00    +0.000 A 
ATOM      7  C   UNL     1       7.272   5.130  15.155  0.00  0.00    +0.000 A 
ATOM      8  N   UNL     1       7.239   4.506  13.937  0.00  0.00    +0.000 N 
ATOM      9  H   UNL     1       8.021   4.407  13.300  0.00  0.00    +0.000 HD
BRANCH   4  11
ATOM     10  O   UNL     1       4.634   3.397  11.842  0.00  0.00    +0.000 OA
ATOM     11  C   UNL     1       5.681   3.296  12.463  0.00  0.00    +0.000 C 
BRANCH  11  12
ATOM     12  OXT UNL     1       6.706   2.520  12.044  0.00  0.00    +0.000 OA
ATOM     13  HXT UNL     1       7.463   2.512  12.657  0.00  0.00    +0.000 HD
ENDBRANCH  11  12
ENDBRANCH   4  11
ENDBRANCH   1   6
BRANCH   1  14
ATOM     14  N   UNL     1       3.804   6.067  17.066  0.00  0.00    +0.000 N 
ATOM     15  H   UNL     1       3.447   5.590  16.239  0.00  0.00    +0.000 HD
BRANCH  14  16
ATOM     16  C   UNL     1       3.022   5.855  18.246  0.00  0.00    +0.000 A 
ATOM     17  C   UNL     1       2.926   6.903  19.163  0.00  0.00    +0.000 A 
ATOM     18  C   UNL     1       2.199   6.738  20.339  0.00  0.00    +0.000 A 
ATOM     19  C   UNL     1       1.571   5.523  20.602  0.00  0.00    +0.000 A 
ATOM     20  C   UNL     1       1.651   4.462  19.686  0.00  0.00    +0.000 A 
ATOM     21  C   UNL     1       2.401   4.615  18.499  0.00  0.00    +0.000 A 
ATOM     22  C   UNL     1       2.466   3.491  17.488  0.00  0.00    +0.000 C 
ATOM     23  C   UNL     1       2.049   2.128  18.038  0.00  0.00    +0.000 C 
ATOM     24  C   UNL     1       0.758   2.251  18.831  0.00  0.00    +0.000 C 
ATOM     25  C   UNL     1       0.978   3.155  20.039  0.00  0.00    +0.000 C 
ENDBRANCH  14  16
ENDBRANCH   1  14
TORSDOF 5
ENDMDL
MODEL 3
REMARK VINA RESULT:      -7.8      1.801      2.239
REMARK  Name = 
REMARK  5 active torsions:
REMARK  status: ('A' for Active; 'I' for Inactive)
REMARK    1  A    between atoms: C_2  and  OXT_3
REMARK    2  A    between atoms: C_2  and  CA_4
REMARK    3  A    between atoms: C_6  and  S_7
REMARK    4  A    between atoms: S_7  and  N_10
REMARK    5  A    between atoms: N_10  and  C_11
REMARK                            x       y       z     vdW  Elec       q    Type
REMARK                         _______ _______ _______ _____ _____    ______ ____
ROOT
ATOM      1  S   UNL     1       7.313   4.816  17.512  0.00  0.00    +0.000 S 
ATOM      2  O   UNL     1       8.499   4.017  17.750  0.00  0.00    +0.000 OA
ATOM      3  O   UNL     1       7.281   6.231  17.796  0.00  0.00    +0.000 OA
ENDROOT
BRANCH   1   6
ATOM      4  CA  UNL     1       6.321   3.976  13.786  0.00  0.00    +0.000 A 
ATOM      5  C   UNL     1       6.284   3.715  15.148  0.00  0.00    +0.000 A 
ATOM      6  C   UNL     1       7.075   4.699  15.803  0.00  0.00    +0.000 A 
ATOM      7  C   UNL     1       7.591   5.527  14.831  0.00  0.00    +0.000 A 
ATOM      8  N   UNL     1       7.110   5.101  13.623  0.00  0.00    +0.000 N 
ATOM      9  H   UNL     1       7.301   5.528  12.724  0.00  0.00    +0.000 HD
BRANCH   4  11
ATOM     10  O   UNL     1       4.568   3.584  12.257  0.00  0.00    +0.000 OA
ATOM     11  C   UNL     1       5.694   3.332  12.657  0.00  0.00    +0.000 C 
BRANCH  11  12
ATOM     12  OXT UNL     1       6.499   2.429  12.054  0.00  0.00    +0.000 OA
ATOM     13  HXT UNL     1       6.213   2.195  11.153  0.00  0.00    +0.000 HD
ENDBRANCH  11  12
ENDBRANCH   4  11
ENDBRANCH   1   6
BRANCH   1  14
ATOM     14  N   UNL     1       6.041   4.005  18.287  0.00  0.00    +0.000 N 
ATOM     15  H   UNL     1       6.346   3.754  19.226  0.00  0.00    +0.000 HD
BRANCH  14  16
ATOM     16  C   UNL     1       4.754   4.630  18.238  0.00  0.00    +0.000 A 
ATOM     17  C   UNL     1       4.702   5.998  17.964  0.00  0.00    +0.000 A 
ATOM     18  C   UNL     1       3.477   6.658  17.931  0.00  0.00    +0.000 A 
ATOM     19  C   UNL     1       2.301   5.952  18.177  0.00  0.00    +0.000 A 
ATOM     20  C   UNL     1       2.335   4.575  18.447  0.00  0.00    +0.000 A 
ATOM     21  C   UNL     1       3.576   3.901  18.499  0.00  0.00    +0.000 A 
ATOM     22  C   UNL     1       3.623   2.410  18.754  0.00  0.00    +0.000 C 
ATOM     23  C   UNL     1       2.338   1.834  19.346  0.00  0.00    +0.000 C 
ATOM     24  C   UNL     1       1.128   2.353  18.587  0.00  0.00    +0.000 C 
ATOM     25  C   UNL     1       1.032   3.867  18.739  0.00  0.00    +0.000 C 
ENDBRANCH  14  16
ENDBRANCH   1  14
TORSDOF 5
ENDMDL
MODEL 4
REMARK VINA RESULT:      -7.7      2.822      4.774
REMARK  Name = 
REMARK  5 active torsions:
REMARK  status: ('A' for Active; 'I' for Inactive)
REMARK    1  A    between atoms: C_2  and  OXT_3
REMARK    2  A    between atoms: C_2  and  CA_4
REMARK    3  A    between atoms: C_6  and  S_7
REMARK    4  A    between atoms: S_7  and  N_10
REMARK    5  A    between atoms: N_10  and  C_11
REMARK                            x       y       z     vdW  Elec       q    Type
REMARK                         _______ _______ _______ _____ _____    ______ ____
ROOT
ATOM      1  S   UNL     1       2.662   4.758  19.596  0.00  0.00    +0.000 S 
ATOM      2  O   UNL     1       1.481   4.883  18.764  0.00  0.00    +0.000 OA
ATOM      3  O   UNL     1       2.782   3.722  20.595  0.00  0.00    +0.000 OA
ENDROOT
BRANCH   1   6
ATOM      4  CA  UNL     1       5.905   4.586  17.354  0.00  0.00    +0.000 A 
ATOM      5  C   UNL     1       5.141   5.170  18.355  0.00  0.00    +0.000 A 
ATOM      6  C   UNL     1       3.929   4.435  18.464  0.00  0.00    +0.000 A 
ATOM      7  C   UNL     1       3.968   3.432  17.520  0.00  0.00    +0.000 A 
ATOM      8  N   UNL     1       5.173   3.514  16.876  0.00  0.00    +0.000 N 
ATOM      9  H   UNL     1       5.497   2.894  16.143  0.00  0.00    +0.000 HD
BRANCH   4  11
ATOM     10  O   UNL     1       7.457   5.798  16.056  0.00  0.00    +0.000 OA
ATOM     11  C   UNL     1       7.216   4.888  16.833  0.00  0.00    +0.000 C 
BRANCH  11  12
ATOM     12  OXT UNL     1       8.176   4.071  17.321  0.00  0.00    +0.000 OA
ATOM     13  HXT UNL     1       9.047   4.202  16.904  0.00  0.00    +0.000 HD
ENDBRANCH  11  12
ENDBRANCH   4  11
ENDBRANCH   1   6
BRANCH   1  14
ATOM     14  N   UNL     1       2.923   6.293  20.270  0.00  0.00    +0.000 N 
ATOM     15  H   UNL     1       3.920   6.396  20.453  0.00  0.00    +0.000 HD
BRANCH  14  16
ATOM     16  C   UNL     1       2.337   7.405  19.586  0.00  0.00    +0.000 A 
ATOM     17  C   UNL     1       2.641   7.576  18.234  0.00  0.00    +0.000 A 
ATOM     18  C   UNL     1       2.116   8.656  17.531  0.00  0.00    +0.000 A 
ATOM     19  C   UNL     1       1.291   9.572  18.179  0.00  0.00    +0.000 A 
ATOM     20  C   UNL     1       0.968   9.410  19.536  0.00  0.00    +0.000 A 
ATOM     21  C   UNL     1       1.510   8.326  20.261  0.00  0.00    +0.000 A 
ATOM     22  C   UNL     1       1.143   8.122  21.715  0.00  0.00    +0.000 C 
ATOM     23  C   UNL     1       0.537   9.352  22.388  0.00  0.00    +0.000 C 
ATOM     24  C   UNL     1      -0.532   9.967  21.499  0.00  0.00    +0.000 C 
ATOM     25  C   UNL     1       0.095  10.452  20.196  0.00  0.00    +0.000 C 
ENDBRANCH  14  16
ENDBRANCH   1  14
TORSDOF 5
ENDMDL
MODEL 5
REMARK VINA RESULT:      -7.7      1.785      2.414
REMARK  Name = 
REMARK  5 active torsions:
REMARK  status: ('A' for Active; 'I' for Inactive)
REMARK    1  A    between atoms: C_2  and  OXT_3
REMARK    2  A    between atoms: C_2  and  CA_4
REMARK    3  A    between atoms: C_6  and  S_7
REMARK    4  A    between atoms: S_7  and  N_10
REMARK    5  A    between atoms: N_10  and  C_11
REMARK                            x       y       z     vdW  Elec       q    Type
REMARK                         _______ _______ _______ _____ _____    ______ ____
ROOT
ATOM      1  S   UNL     1       6.843   5.011  16.523  0.00  0.00    +0.000 S 
ATOM      2  O   UNL     1       8.056   4.354  16.969  0.00  0.00    +0.000 OA
ATOM      3  O   UNL     1       6.707   6.449  16.538  0.00  0.00    +0.000 OA
ENDROOT
BRANCH   1   6
ATOM      4  CA  UNL     1       5.995   3.594  12.939  0.00  0.00    +0.000 A 
ATOM      5  C   UNL     1       5.783   3.658  14.309  0.00  0.00    +0.000 A 
ATOM      6  C   UNL     1       6.728   4.569  14.855  0.00  0.00    +0.000 A 
ATOM      7  C   UNL     1       7.505   5.031  13.815  0.00  0.00    +0.000 A 
ATOM      8  N   UNL     1       7.039   4.459  12.662  0.00  0.00    +0.000 N 
ATOM      9  H   UNL     1       7.400   4.624  11.730  0.00  0.00    +0.000 HD
BRANCH   4  11
ATOM     10  O   UNL     1       4.281   3.209  11.365  0.00  0.00    +0.000 OA
ATOM     11  C   UNL     1       5.329   2.864  11.887  0.00  0.00    +0.000 C 
BRANCH  11  12
ATOM     12  OXT UNL     1       6.006   1.758  11.506  0.00  0.00    +0.000 OA
ATOM     13  HXT UNL     1       6.866   1.655  11.952  0.00  0.00    +0.000 HD
ENDBRANCH  11  12
ENDBRANCH   4  11
ENDBRANCH   1   6
BRANCH   1  14
ATOM     14  N   UNL     1       5.572   4.266  17.363  0.00  0.00    +0.000 N 
ATOM     15  H   UNL     1       5.972   3.660  18.078  0.00  0.00    +0.000 HD
BRANCH  14  16
ATOM     16  C   UNL     1       4.527   5.120  17.840  0.00  0.00    +0.000 A 
ATOM     17  C   UNL     1       4.436   6.405  17.302  0.00  0.00    +0.000 A 
ATOM     18  C   UNL     1       3.453   7.283  17.750  0.00  0.00    +0.000 A 
ATOM     19  C   UNL     1       2.563   6.880  18.744  0.00  0.00    +0.000 A 
ATOM     20  C   UNL     1       2.636   5.589  19.290  0.00  0.00    +0.000 A 
ATOM     21  C   UNL     1       3.641   4.698  18.852  0.00  0.00    +0.000 A 
ATOM     22  C   UNL     1       3.708   3.292  19.409  0.00  0.00    +0.000 C 
ATOM     23  C   UNL     1       2.929   3.094  20.708  0.00  0.00    +0.000 C 
ATOM     24  C   UNL     1       1.545   3.711  20.593  0.00  0.00    +0.000 C 
ATOM     25  C   UNL     1       1.666   5.217  20.388  0.00  0.00    +0.000 C 
ENDBRANCH  14  16
ENDBRANCH   1  14
TORSDOF 5
ENDMDL
MODEL 6
REMARK VINA RESULT:      -7.6      1.774      2.206
REMARK  Name = 
REMARK  5 active torsions:
REMARK  status: ('A' for Active; 'I' for Inactive)
REMARK    1  A    between atoms: C_2  and  OXT_3
REMARK    2  A    between atoms: C_2  and  CA_4
REMARK    3  A    between atoms: C_6  and  S_7
REMARK    4  A    between atoms: S_7  and  N_10
REMARK    5  A    between atoms: N_10  and  C_11
REMARK                            x       y       z     vdW  Elec       q    Type
REMARK                         _______ _______ _______ _____ _____    ______ ____
ROOT
ATOM      1  S   UNL     1       6.117   5.673  15.679  0.00  0.00    +0.000 S 
ATOM      2  O   UNL     1       7.473   5.944  16.115  0.00  0.00    +0.000 OA
ATOM      3  O   UNL     1       5.196   6.736  15.355  0.00  0.00    +0.000 OA
ENDROOT
BRANCH   1   6
ATOM      4  CA  UNL     1       5.950   3.358  12.488  0.00  0.00    +0.000 A 
ATOM      5  C   UNL     1       5.455   3.792  13.708  0.00  0.00    +0.000 A 
ATOM      6  C   UNL     1       6.329   4.800  14.201  0.00  0.00    +0.000 A 
ATOM      7  C   UNL     1       7.345   4.949  13.283  0.00  0.00    +0.000 A 
ATOM      8  N   UNL     1       7.094   4.096  12.243  0.00  0.00    +0.000 N 
ATOM      9  H   UNL     1       7.660   3.996  11.407  0.00  0.00    +0.000 HD
BRANCH   4  11
ATOM     10  O   UNL     1       6.091   1.387  11.198  0.00  0.00    +0.000 OA
ATOM     11  C   UNL     1       5.471   2.383  11.537  0.00  0.00    +0.000 C 
BRANCH  11  12
ATOM     12  OXT UNL     1       4.234   2.667  11.072  0.00  0.00    +0.000 OA
ATOM     13  HXT UNL     1       3.643   3.045  11.747  0.00  0.00    +0.000 HD
ENDBRANCH  11  12
ENDBRANCH   4  11
ENDBRANCH   1   6
BRANCH   1  14
ATOM     14  N   UNL     1       5.457   4.619  16.833  0.00  0.00    +0.000 N 
ATOM     15  H   UNL     1       6.210   4.290  17.435  0.00  0.00    +0.000 HD
BRANCH  14  16
ATOM     16  C   UNL     1       4.303   5.083  17.543  0.00  0.00    +0.000 A 
ATOM     17  C   UNL     1       4.172   6.457  17.750  0.00  0.00    +0.000 A 
ATOM     18  C   UNL     1       3.081   6.957  18.456  0.00  0.00    +0.000 A 
ATOM     19  C   UNL     1       2.123   6.082  18.964  0.00  0.00    +0.000 A 
ATOM     20  C   UNL     1       2.237   4.698  18.758  0.00  0.00    +0.000 A 
ATOM     21  C   UNL     1       3.349   4.182  18.057  0.00  0.00    +0.000 A 
ATOM     22  C   UNL     1       3.464   2.695  17.799  0.00  0.00    +0.000 C 
ATOM     23  C   UNL     1       2.567   1.833  18.686  0.00  0.00    +0.000 C 
ATOM     24  C   UNL     1       1.160   2.405  18.729  0.00  0.00    +0.000 C 
ATOM     25  C   UNL     1       1.185   3.793  19.359  0.00  0.00    +0.000 C 
ENDBRANCH  14  16
ENDBRANCH   1  14
TORSDOF 5
ENDMDL
MODEL 7
REMARK VINA RESULT:      -7.6      1.765      2.264
REMARK  Name = 
REMARK  5 active torsions:
REMARK  status: ('A' for Active; 'I' for Inactive)
REMARK    1  A    between atoms: C_2  and  OXT_3
REMARK    2  A    between atoms: C_2  and  CA_4
REMARK    3  A    between atoms: C_6  and  S_7
REMARK    4  A    between atoms: S_7  and  N_10
REMARK    5  A    between atoms: N_10  and  C_11
REMARK                            x       y       z     vdW  Elec       q    Type
REMARK                         _______ _______ _______ _____ _____    ______ ____
ROOT
ATOM      1  S   UNL     1       6.990   4.904  17.951  0.00  0.00    +0.000 S 
ATOM      2  O   UNL     1       8.236   4.249  18.299  0.00  0.00    +0.000 OA
ATOM      3  O   UNL     1       6.826   6.335  18.066  0.00  0.00    +0.000 OA
ENDROOT
BRANCH   1   6
ATOM      4  CA  UNL     1       7.110   4.652  14.015  0.00  0.00    +0.000 A 
ATOM      5  C   UNL     1       7.512   5.221  15.214  0.00  0.00    +0.000 A 
ATOM      6  C   UNL     1       6.808   4.569  16.264  0.00  0.00    +0.000 A 
ATOM      7  C   UNL     1       5.981   3.631  15.685  0.00  0.00    +0.000 A 
ATOM      8  N   UNL     1       6.191   3.670  14.333  0.00  0.00    +0.000 N 
ATOM      9  H   UNL     1       5.738   3.079  13.645  0.00  0.00    +0.000 HD
BRANCH   4  11
ATOM     10  O   UNL     1       7.203   4.176  11.706  0.00  0.00    +0.000 OA
ATOM     11  C   UNL     1       7.503   4.894  12.647  0.00  0.00    +0.000 C 
BRANCH  11  12
ATOM     12  OXT UNL     1       8.221   6.030  12.499  0.00  0.00    +0.000 OA
ATOM     13  HXT UNL     1       9.046   5.905  11.996  0.00  0.00    +0.000 HD
ENDBRANCH  11  12
ENDBRANCH   4  11
ENDBRANCH   1   6
BRANCH   1  14
ATOM     14  N   UNL     1       5.774   4.077  18.796  0.00  0.00    +0.000 N 
ATOM     15  H   UNL     1       6.146   3.802  19.704  0.00  0.00    +0.000 HD
BRANCH  14  16
ATOM     16  C   UNL     1       4.490   4.706  18.856  0.00  0.00    +0.000 A 
ATOM     17  C   UNL     1       4.305   5.886  18.134  0.00  0.00    +0.000 A 
ATOM     18  C   UNL     1       3.083   6.550  18.180  0.00  0.00    +0.000 A 
ATOM     19  C   UNL     1       2.044   6.039  18.955  0.00  0.00    +0.000 A 
ATOM     20  C   UNL     1       2.210   4.849  19.681  0.00  0.00    +0.000 A 
ATOM     21  C   UNL     1       3.453   4.178  19.652  0.00  0.00    +0.000 A 
ATOM     22  C   UNL     1       3.634   2.876  20.403  0.00  0.00    +0.000 C 
ATOM     23  C   UNL     1       2.572   2.614  21.469  0.00  0.00    +0.000 C 
ATOM     24  C   UNL     1       1.184   2.886  20.910  0.00  0.00    +0.000 C 
ATOM     25  C   UNL     1       1.060   4.357  20.529  0.00  0.00    +0.000 C 
ENDBRANCH  14  16
ENDBRANCH   1  14
TORSDOF 5
ENDMDL
MODEL 8
REMARK VINA RESULT:      -7.6      3.120      6.423
REMARK  Name = 
REMARK  5 active torsions:
REMARK  status: ('A' for Active; 'I' for Inactive)
REMARK    1  A    between atoms: C_2  and  OXT_3
REMARK    2  A    between atoms: C_2  and  CA_4
REMARK    3  A    between atoms: C_6  and  S_7
REMARK    4  A    between atoms: S_7  and  N_10
REMARK    5  A    between atoms: N_10  and  C_11
REMARK                            x       y       z     vdW  Elec       q    Type
REMARK                         _______ _______ _______ _____ _____    ______ ____
ROOT
ATOM      1  S   UNL     1       2.902   3.230  18.464  0.00  0.00    +0.000 S 
ATOM      2  O   UNL     1       2.636   2.495  19.685  0.00  0.00    +0.000 OA
ATOM      3  O   UNL     1       2.084   3.066  17.284  0.00  0.00    +0.000 OA
ENDROOT
BRANCH   1   6
ATOM      4  CA  UNL     1       2.301   7.117  18.790  0.00  0.00    +0.000 A 
ATOM      5  C   UNL     1       2.438   5.962  18.034  0.00  0.00    +0.000 A 
ATOM      6  C   UNL     1       2.690   4.883  18.927  0.00  0.00    +0.000 A 
ATOM      7  C   UNL     1       2.717   5.402  20.203  0.00  0.00    +0.000 A 
ATOM      8  N   UNL     1       2.455   6.742  20.112  0.00  0.00    +0.000 N 
ATOM      9  H   UNL     1       2.390   7.388  20.891  0.00  0.00    +0.000 HD
BRANCH   4  11
ATOM     10  O   UNL     1       2.254   8.973  17.335  0.00  0.00    +0.000 OA
ATOM     11  C   UNL     1       2.016   8.485  18.428  0.00  0.00    +0.000 C 
BRANCH  11  12
ATOM     12  OXT UNL     1       1.422   9.179  19.424  0.00  0.00    +0.000 OA
ATOM     13  HXT UNL     1       1.001   8.612  20.095  0.00  0.00    +0.000 HD
ENDBRANCH  11  12
ENDBRANCH   4  11
ENDBRANCH   1   6
BRANCH   1  14
ATOM     14  N   UNL     1       4.542   2.978  18.114  0.00  0.00    +0.000 N 
ATOM     15  H   UNL     1       4.677   1.990  17.907  0.00  0.00    +0.000 HD
BRANCH  14  16
ATOM     16  C   UNL     1       5.140   3.862  17.159  0.00  0.00    +0.000 A 
ATOM     17  C   UNL     1       4.788   3.709  15.817  0.00  0.00    +0.000 A 
ATOM     18  C   UNL     1       5.361   4.526  14.846  0.00  0.00    +0.000 A 
ATOM     19  C   UNL     1       6.292   5.494  15.216  0.00  0.00    +0.000 A 
ATOM     20  C   UNL     1       6.651   5.666  16.562  0.00  0.00    +0.000 A 
ATOM     21  C   UNL     1       6.087   4.830  17.551  0.00  0.00    +0.000 A 
ATOM     22  C   UNL     1       6.440   5.028  19.009  0.00  0.00    +0.000 C 
ATOM     23  C   UNL     1       7.703   5.856  19.241  0.00  0.00    +0.000 C 
ATOM     24  C   UNL     1       7.683   7.104  18.374  0.00  0.00    +0.000 C 
ATOM     25  C   UNL     1       7.691   6.710  16.901  0.00  0.00    +0.000 C 
ENDBRANCH  14  16
ENDBRANCH   1  14
TORSDOF 5
ENDMDL
MODEL 9
REMARK VINA RESULT:      -7.6      1.831      2.320
REMARK  Name = 
REMARK  5 active torsions:
REMARK  status: ('A' for Active; 'I' for Inactive)
REMARK    1  A    between atoms: C_2  and  OXT_3
REMARK    2  A    between atoms: C_2  and  CA_4
REMARK    3  A    between atoms: C_6  and  S_7
REMARK    4  A    between atoms: S_7  and  N_10
REMARK    5  A    between atoms: N_10  and  C_11
REMARK                            x       y       z     vdW  Elec       q    Type
REMARK                         _______ _______ _______ _____ _____    ______ ____
ROOT
ATOM      1  S   UNL     1       7.073   4.794  17.556  0.00  0.00    +0.000 S 
ATOM      2  O   UNL     1       8.276   4.050  17.872  0.00  0.00    +0.000 OA
ATOM      3  O   UNL     1       6.945   6.199  17.863  0.00  0.00    +0.000 OA
ENDROOT
BRANCH   1   6
ATOM      4  CA  UNL     1       6.405   4.006  13.747  0.00  0.00    +0.000 A 
ATOM      5  C   UNL     1       6.262   3.719  15.096  0.00  0.00    +0.000 A 
ATOM      6  C   UNL     1       6.978   4.704  15.831  0.00  0.00    +0.000 A 
ATOM      7  C   UNL     1       7.555   5.560  14.919  0.00  0.00    +0.000 A 
ATOM      8  N   UNL     1       7.182   5.148  13.668  0.00  0.00    +0.000 N 
ATOM      9  H   UNL     1       7.437   5.595  12.795  0.00  0.00    +0.000 HD
BRANCH   4  11
ATOM     10  O   UNL     1       6.542   2.666  11.810  0.00  0.00    +0.000 OA
ATOM     11  C   UNL     1       5.885   3.372  12.559  0.00  0.00    +0.000 C 
BRANCH  11  12
ATOM     12  OXT UNL     1       4.569   3.613  12.369  0.00  0.00    +0.000 OA
ATOM     13  HXT UNL     1       4.004   3.272  13.085  0.00  0.00    +0.000 HD
ENDBRANCH  11  12
ENDBRANCH   4  11
ENDBRANCH   1   6
BRANCH   1  14
ATOM     14  N   UNL     1       5.786   3.903  18.210  0.00  0.00    +0.000 N 
ATOM     15  H   UNL     1       6.128   3.401  19.029  0.00  0.00    +0.000 HD
BRANCH  14  16
ATOM     16  C   UNL     1       4.559   4.607  18.426  0.00  0.00    +0.000 A 
ATOM     17  C   UNL     1       4.355   5.796  17.723  0.00  0.00    +0.000 A 
ATOM     18  C   UNL     1       3.190   6.532  17.917  0.00  0.00    +0.000 A 
ATOM     19  C   UNL     1       2.228   6.083  18.820  0.00  0.00    +0.000 A 
ATOM     20  C   UNL     1       2.414   4.886  19.528  0.00  0.00    +0.000 A 
ATOM     21  C   UNL     1       3.601   4.142  19.350  0.00  0.00    +0.000 A 
ATOM     22  C   UNL     1       3.798   2.832  20.082  0.00  0.00    +0.000 C 
ATOM     23  C   UNL     1       2.863   2.634  21.274  0.00  0.00    +0.000 C 
ATOM     24  C   UNL     1       1.436   2.988  20.892  0.00  0.00    +0.000 C 
ATOM     25  C   UNL     1       1.352   4.464  20.518  0.00  0.00    +0.000 C 
ENDBRANCH  14  16
ENDBRANCH   1  14
TORSDOF 5
ENDMDL
