MODEL 1
REMARK VINA RESULT:      -7.9      0.000      0.000
REMARK  Name = 
REMARK  3 active torsions:
REMARK  status: ('A' for Active; 'I' for Inactive)
REMARK    1  A    between atoms: C_2  and  C_3
REMARK    2  A    between atoms: C_3  and  N_4
REMARK    3  A    between atoms: N_11  and  C_12
REMARK                            x       y       z     vdW  Elec       q    Type
REMARK                         _______ _______ _______ _____ _____    ______ ____
ROOT
ATOM      1  N   UNL     1       3.948   3.417  17.386  0.00  0.00    +0.000 N 
ATOM      2  C   UNL     1       5.160   4.088  17.294  0.00  0.00    +0.000 A 
ATOM      3  N   UNL     1       5.753   4.541  18.381  0.00  0.00    +0.000 NA
ATOM      4  C   UNL     1       6.891   5.167  18.184  0.00  0.00    +0.000 A 
ATOM      5 CL   UNL     1       7.691   5.726  19.591  0.00  0.00    +0.000 Cl
ATOM      6  N   UNL     1       7.482   5.420  17.032  0.00  0.00    +0.000 NA
ATOM      7  C   UNL     1       6.834   4.908  16.001  0.00  0.00    +0.000 A 
ATOM      8  N   UNL     1       7.477   5.077  14.806  0.00  0.00    +0.000 N 
ATOM      9  C   UNL     1       6.921   4.657  13.553  0.00  0.00    +0.000 C 
ATOM     10  N   UNL     1       5.675   4.260  16.082  0.00  0.00    +0.000 NA
ATOM     11  H   UNL     1       3.516   3.432  16.470  0.00  0.00    +0.000 HD
ATOM     12  H   UNL     1       8.185   5.793  14.829  0.00  0.00    +0.000 HD
ENDROOT
BRANCH   1  13
ATOM     13  C   UNL     1       3.038   3.675  18.501  0.00  0.00    +0.000 C 
ATOM     14  C   UNL     1       3.655   3.209  19.843  0.00  0.00    +0.000 C 
ATOM     15  C   UNL     1       2.695   3.361  21.027  0.00  0.00    +0.000 C 
ATOM     16  C   UNL     1       1.358   2.678  20.769  0.00  0.00    +0.000 C 
ATOM     17  C   UNL     1       0.697   3.184  19.491  0.00  0.00    +0.000 C 
ATOM     18  C   UNL     1       1.629   3.033  18.287  0.00  0.00    +0.000 C 
BRANCH  13  20
ATOM     19  C   UNL     1       2.557   6.452  18.677  0.00  0.00    +0.000 C 
ATOM     20  C   UNL     1       2.779   5.170  18.596  0.00  0.00    +0.000 C 
ENDBRANCH  13  20
ENDBRANCH   1  13
TORSDOF 2
ENDMDL
MODEL 2
REMARK VINA RESULT:      -7.8      0.840      1.957
REMARK  Name = 
REMARK  3 active torsions:
REMARK  status: ('A' for Active; 'I' for Inactive)
REMARK    1  A    between atoms: C_2  and  C_3
REMARK    2  A    between atoms: C_3  and  N_4
REMARK    3  A    between atoms: N_11  and  C_12
REMARK                            x       y       z     vdW  Elec       q    Type
REMARK                         _______ _______ _______ _____ _____    ______ ____
ROOT
ATOM      1  N   UNL     1       4.365   3.028  17.498  0.00  0.00    +0.000 N 
ATOM      2  C   UNL     1       5.471   3.855  17.360  0.00  0.00    +0.000 A 
ATOM      3  N   UNL     1       6.076   4.341  18.426  0.00  0.00    +0.000 NA
ATOM      4  C   UNL     1       7.108   5.118  18.185  0.00  0.00    +0.000 A 
ATOM      5 CL   UNL     1       7.926   5.724  19.561  0.00  0.00    +0.000 Cl
ATOM      6  N   UNL     1       7.579   5.489  17.009  0.00  0.00    +0.000 NA
ATOM      7  C   UNL     1       6.932   4.935  16.001  0.00  0.00    +0.000 A 
ATOM      8  N   UNL     1       7.463   5.231  14.775  0.00  0.00    +0.000 N 
ATOM      9  C   UNL     1       6.879   4.789  13.543  0.00  0.00    +0.000 C 
ATOM     10  N   UNL     1       5.874   4.138  16.126  0.00  0.00    +0.000 NA
ATOM     11  H   UNL     1       3.871   3.020  16.615  0.00  0.00    +0.000 HD
ATOM     12  H   UNL     1       8.073   6.032  14.786  0.00  0.00    +0.000 HD
ENDROOT
BRANCH   1  13
ATOM     13  C   UNL     1       3.510   3.124  18.680  0.00  0.00    +0.000 C 
ATOM     14  C   UNL     1       2.124   2.484  18.418  0.00  0.00    +0.000 C 
ATOM     15  C   UNL     1       1.154   2.655  19.592  0.00  0.00    +0.000 C 
ATOM     16  C   UNL     1       1.017   4.112  20.012  0.00  0.00    +0.000 C 
ATOM     17  C   UNL     1       2.366   4.737  20.352  0.00  0.00    +0.000 C 
ATOM     18  C   UNL     1       3.352   4.593  19.191  0.00  0.00    +0.000 C 
BRANCH  13  20
ATOM     19  C   UNL     1       4.725   1.733  20.817  0.00  0.00    +0.000 C 
ATOM     20  C   UNL     1       4.164   2.375  19.830  0.00  0.00    +0.000 C 
ENDBRANCH  13  20
ENDBRANCH   1  13
TORSDOF 2
ENDMDL
MODEL 3
REMARK VINA RESULT:      -7.6      2.168      2.892
REMARK  Name = 
REMARK  3 active torsions:
REMARK  status: ('A' for Active; 'I' for Inactive)
REMARK    1  A    between atoms: C_2  and  C_3
REMARK    2  A    between atoms: C_3  and  N_4
REMARK    3  A    between atoms: N_11  and  C_12
REMARK                            x       y       z     vdW  Elec       q    Type
REMARK                         _______ _______ _______ _____ _____    ______ ____
ROOT
ATOM      1  N   UNL     1       4.195   5.704  18.537  0.00  0.00    +0.000 N 
ATOM      2  C   UNL     1       5.242   5.771  17.629  0.00  0.00    +0.000 A 
ATOM      3  N   UNL     1       5.341   4.882  16.660  0.00  0.00    +0.000 NA
ATOM      4  C   UNL     1       6.372   5.032  15.859  0.00  0.00    +0.000 A 
ATOM      5 CL   UNL     1       6.491   3.907  14.574  0.00  0.00    +0.000 Cl
ATOM      6  N   UNL     1       7.326   5.941  15.936  0.00  0.00    +0.000 NA
ATOM      7  C   UNL     1       7.133   6.804  16.915  0.00  0.00    +0.000 A 
ATOM      8  N   UNL     1       8.058   7.811  16.955  0.00  0.00    +0.000 N 
ATOM      9  C   UNL     1       8.075   8.817  17.976  0.00  0.00    +0.000 C 
ATOM     10  N   UNL     1       6.129   6.748  17.787  0.00  0.00    +0.000 NA
ATOM     11  H   UNL     1       4.456   6.245  19.352  0.00  0.00    +0.000 HD
ATOM     12  H   UNL     1       8.895   7.606  16.434  0.00  0.00    +0.000 HD
ENDROOT
BRANCH   1  13
ATOM     13  C   UNL     1       3.547   4.426  18.829  0.00  0.00    +0.000 C 
ATOM     14  C   UNL     1       4.549   3.421  19.448  0.00  0.00    +0.000 C 
ATOM     15  C   UNL     1       3.943   2.032  19.673  0.00  0.00    +0.000 C 
ATOM     16  C   UNL     1       3.315   1.471  18.404  0.00  0.00    +0.000 C 
ATOM     17  C   UNL     1       2.266   2.413  17.822  0.00  0.00    +0.000 C 
ATOM     18  C   UNL     1       2.847   3.806  17.575  0.00  0.00    +0.000 C 
BRANCH  13  20
ATOM     19  C   UNL     1       1.467   4.848  20.692  0.00  0.00    +0.000 C 
ATOM     20  C   UNL     1       2.427   4.653  19.832  0.00  0.00    +0.000 C 
ENDBRANCH  13  20
ENDBRANCH   1  13
TORSDOF 2
ENDMDL
MODEL 4
REMARK VINA RESULT:      -7.3      2.073      3.042
REMARK  Name = 
REMARK  3 active torsions:
REMARK  status: ('A' for Active; 'I' for Inactive)
REMARK    1  A    between atoms: C_2  and  C_3
REMARK    2  A    between atoms: C_3  and  N_4
REMARK    3  A    between atoms: N_11  and  C_12
REMARK                            x       y       z     vdW  Elec       q    Type
REMARK                         _______ _______ _______ _____ _____    ______ ____
ROOT
ATOM      1  N   UNL     1       3.850   5.912  18.666  0.00  0.00    +0.000 N 
ATOM      2  C   UNL     1       4.894   5.809  17.758  0.00  0.00    +0.000 A 
ATOM      3  N   UNL     1       4.908   4.837  16.867  0.00  0.00    +0.000 NA
ATOM      4  C   UNL     1       5.943   4.826  16.059  0.00  0.00    +0.000 A 
ATOM      5 CL   UNL     1       5.954   3.592  14.873  0.00  0.00    +0.000 Cl
ATOM      6  N   UNL     1       6.975   5.649  16.061  0.00  0.00    +0.000 NA
ATOM      7  C   UNL     1       6.866   6.605  16.965  0.00  0.00    +0.000 A 
ATOM      8  N   UNL     1       7.878   7.524  16.922  0.00  0.00    +0.000 N 
ATOM      9  C   UNL     1       7.990   8.607  17.855  0.00  0.00    +0.000 C 
ATOM     10  N   UNL     1       5.865   6.713  17.836  0.00  0.00    +0.000 NA
ATOM     11  H   UNL     1       4.162   6.494  19.433  0.00  0.00    +0.000 HD
ATOM     12  H   UNL     1       8.691   7.202  16.422  0.00  0.00    +0.000 HD
ENDROOT
BRANCH   1  13
ATOM     13  C   UNL     1       3.091   4.727  19.062  0.00  0.00    +0.000 C 
ATOM     14  C   UNL     1       2.199   4.222  17.901  0.00  0.00    +0.000 C 
ATOM     15  C   UNL     1       1.304   3.045  18.302  0.00  0.00    +0.000 C 
ATOM     16  C   UNL     1       0.472   3.356  19.539  0.00  0.00    +0.000 C 
ATOM     17  C   UNL     1       1.341   3.779  20.719  0.00  0.00    +0.000 C 
ATOM     18  C   UNL     1       2.238   4.963  20.351  0.00  0.00    +0.000 C 
BRANCH  13  20
ATOM     19  C   UNL     1       4.891   2.661  19.745  0.00  0.00    +0.000 C 
ATOM     20  C   UNL     1       4.060   3.615  19.430  0.00  0.00    +0.000 C 
ENDBRANCH  13  20
ENDBRANCH   1  13
TORSDOF 2
ENDMDL
MODEL 5
REMARK VINA RESULT:      -7.3      2.088      2.863
REMARK  Name = 
REMARK  3 active torsions:
REMARK  status: ('A' for Active; 'I' for Inactive)
REMARK    1  A    between atoms: C_2  and  C_3
REMARK    2  A    between atoms: C_3  and  N_4
REMARK    3  A    between atoms: N_11  and  C_12
REMARK                            x       y       z     vdW  Elec       q    Type
REMARK                         _______ _______ _______ _____ _____    ______ ____
ROOT
ATOM      1  N   UNL     1       3.972   5.979  18.852  0.00  0.00    +0.000 N 
ATOM      2  C   UNL     1       4.987   5.869  17.913  0.00  0.00    +0.000 A 
ATOM      3  N   UNL     1       4.982   4.881  17.040  0.00  0.00    +0.000 NA
ATOM      4  C   UNL     1       5.990   4.864  16.199  0.00  0.00    +0.000 A 
ATOM      5 CL   UNL     1       5.975   3.608  15.036  0.00  0.00    +0.000 Cl
ATOM      6  N   UNL     1       7.014   5.696  16.152  0.00  0.00    +0.000 NA
ATOM      7  C   UNL     1       6.924   6.668  17.041  0.00  0.00    +0.000 A 
ATOM      8  N   UNL     1       7.925   7.595  16.949  0.00  0.00    +0.000 N 
ATOM      9  C   UNL     1       8.057   8.697  17.857  0.00  0.00    +0.000 C 
ATOM     10  N   UNL     1       5.952   6.783  17.942  0.00  0.00    +0.000 NA
ATOM     11  H   UNL     1       4.304   6.578  19.598  0.00  0.00    +0.000 HD
ATOM     12  H   UNL     1       8.724   7.272  16.428  0.00  0.00    +0.000 HD
ENDROOT
BRANCH   1  13
ATOM     13  C   UNL     1       3.239   4.794  19.295  0.00  0.00    +0.000 C 
ATOM     14  C   UNL     1       2.468   5.075  20.609  0.00  0.00    +0.000 C 
ATOM     15  C   UNL     1       1.770   3.832  21.171  0.00  0.00    +0.000 C 
ATOM     16  C   UNL     1       2.731   2.662  21.336  0.00  0.00    +0.000 C 
ATOM     17  C   UNL     1       3.441   2.319  20.031  0.00  0.00    +0.000 C 
ATOM     18  C   UNL     1       4.160   3.541  19.452  0.00  0.00    +0.000 C 
BRANCH  13  20
ATOM     19  C   UNL     1       1.358   4.077  17.315  0.00  0.00    +0.000 C 
ATOM     20  C   UNL     1       2.226   4.408  18.229  0.00  0.00    +0.000 C 
ENDBRANCH  13  20
ENDBRANCH   1  13
TORSDOF 2
ENDMDL
MODEL 6
REMARK VINA RESULT:      -7.1      0.716      1.838
REMARK  Name = 
REMARK  3 active torsions:
REMARK  status: ('A' for Active; 'I' for Inactive)
REMARK    1  A    between atoms: C_2  and  C_3
REMARK    2  A    between atoms: C_3  and  N_4
REMARK    3  A    between atoms: N_11  and  C_12
REMARK                            x       y       z     vdW  Elec       q    Type
REMARK                         _______ _______ _______ _____ _____    ______ ____
ROOT
ATOM      1  N   UNL     1       3.965   3.186  17.663  0.00  0.00    +0.000 N 
ATOM      2  C   UNL     1       5.143   3.910  17.555  0.00  0.00    +0.000 A 
ATOM      3  N   UNL     1       5.740   4.376  18.634  0.00  0.00    +0.000 NA
ATOM      4  C   UNL     1       6.845   5.053  18.420  0.00  0.00    +0.000 A 
ATOM      5 CL   UNL     1       7.651   5.631  19.816  0.00  0.00    +0.000 Cl
ATOM      6  N   UNL     1       7.399   5.346  17.259  0.00  0.00    +0.000 NA
ATOM      7  C   UNL     1       6.752   4.819  16.236  0.00  0.00    +0.000 A 
ATOM      8  N   UNL     1       7.360   5.029  15.030  0.00  0.00    +0.000 N 
ATOM      9  C   UNL     1       6.795   4.600  13.784  0.00  0.00    +0.000 C 
ATOM     10  N   UNL     1       5.624   4.119  16.333  0.00  0.00    +0.000 NA
ATOM     11  H   UNL     1       3.512   3.192  16.758  0.00  0.00    +0.000 HD
ATOM     12  H   UNL     1       8.037   5.775  15.047  0.00  0.00    +0.000 HD
ENDROOT
BRANCH   1  13
ATOM     13  C   UNL     1       3.070   3.391  18.801  0.00  0.00    +0.000 C 
ATOM     14  C   UNL     1       2.764   4.895  19.005  0.00  0.00    +0.000 C 
ATOM     15  C   UNL     1       1.915   5.170  20.251  0.00  0.00    +0.000 C 
ATOM     16  C   UNL     1       2.526   4.557  21.504  0.00  0.00    +0.000 C 
ATOM     17  C   UNL     1       2.760   3.058  21.350  0.00  0.00    +0.000 C 
ATOM     18  C   UNL     1       3.618   2.754  20.120  0.00  0.00    +0.000 C 
BRANCH  13  20
ATOM     19  C   UNL     1       0.628   2.061  18.307  0.00  0.00    +0.000 C 
ATOM     20  C   UNL     1       1.755   2.675  18.535  0.00  0.00    +0.000 C 
ENDBRANCH  13  20
ENDBRANCH   1  13
TORSDOF 2
ENDMDL
MODEL 7
REMARK VINA RESULT:      -6.9      1.208      2.260
REMARK  Name = 
REMARK  3 active torsions:
REMARK  status: ('A' for Active; 'I' for Inactive)
REMARK    1  A    between atoms: C_2  and  C_3
REMARK    2  A    between atoms: C_3  and  N_4
REMARK    3  A    between atoms: N_11  and  C_12
REMARK                            x       y       z     vdW  Elec       q    Type
REMARK                         _______ _______ _______ _____ _____    ______ ____
ROOT
ATOM      1  N   UNL     1       3.987   3.432  17.074  0.00  0.00    +0.000 N 
ATOM      2  C   UNL     1       5.076   4.158  16.613  0.00  0.00    +0.000 A 
ATOM      3  N   UNL     1       5.697   5.004  17.410  0.00  0.00    +0.000 NA
ATOM      4  C   UNL     1       6.710   5.645  16.874  0.00  0.00    +0.000 A 
ATOM      5 CL   UNL     1       7.549   6.719  17.910  0.00  0.00    +0.000 Cl
ATOM      6  N   UNL     1       7.150   5.562  15.632  0.00  0.00    +0.000 NA
ATOM      7  C   UNL     1       6.489   4.674  14.914  0.00  0.00    +0.000 A 
ATOM      8  N   UNL     1       6.988   4.503  13.652  0.00  0.00    +0.000 N 
ATOM      9  C   UNL     1       6.384   3.636  12.684  0.00  0.00    +0.000 C 
ATOM     10  N   UNL     1       5.447   3.971  15.351  0.00  0.00    +0.000 NA
ATOM     11  H   UNL     1       3.473   3.097  16.268  0.00  0.00    +0.000 HD
ATOM     12  H   UNL     1       7.585   5.256  13.352  0.00  0.00    +0.000 HD
ENDROOT
BRANCH   1  13
ATOM     13  C   UNL     1       3.156   3.948  18.161  0.00  0.00    +0.000 C 
ATOM     14  C   UNL     1       2.655   5.379  17.847  0.00  0.00    +0.000 C 
ATOM     15  C   UNL     1       1.868   6.005  19.004  0.00  0.00    +0.000 C 
ATOM     16  C   UNL     1       2.650   5.970  20.310  0.00  0.00    +0.000 C 
ATOM     17  C   UNL     1       3.085   4.555  20.677  0.00  0.00    +0.000 C 
ATOM     18  C   UNL     1       3.885   3.909  19.544  0.00  0.00    +0.000 C 
BRANCH  13  20
ATOM     19  C   UNL     1       0.900   2.279  18.475  0.00  0.00    +0.000 C 
ATOM     20  C   UNL     1       1.942   3.050  18.330  0.00  0.00    +0.000 C 
ENDBRANCH  13  20
ENDBRANCH   1  13
TORSDOF 2
ENDMDL
MODEL 8
REMARK VINA RESULT:      -6.6      1.462      1.896
REMARK  Name = 
REMARK  3 active torsions:
REMARK  status: ('A' for Active; 'I' for Inactive)
REMARK    1  A    between atoms: C_2  and  C_3
REMARK    2  A    between atoms: C_3  and  N_4
REMARK    3  A    between atoms: N_11  and  C_12
REMARK                            x       y       z     vdW  Elec       q    Type
REMARK                         _______ _______ _______ _____ _____    ______ ____
ROOT
ATOM      1  N   UNL     1       4.696   2.891  16.681  0.00  0.00    +0.000 N 
ATOM      2  C   UNL     1       5.571   3.840  16.170  0.00  0.00    +0.000 A 
ATOM      3  N   UNL     1       6.018   4.814  16.937  0.00  0.00    +0.000 NA
ATOM      4  C   UNL     1       6.834   5.662  16.355  0.00  0.00    +0.000 A 
ATOM      5 CL   UNL     1       7.452   6.910  17.351  0.00  0.00    +0.000 Cl
ATOM      6  N   UNL     1       7.226   5.667  15.095  0.00  0.00    +0.000 NA
ATOM      7  C   UNL     1       6.754   4.644  14.408  0.00  0.00    +0.000 A 
ATOM      8  N   UNL     1       7.222   4.576  13.125  0.00  0.00    +0.000 N 
ATOM      9  C   UNL     1       6.788   3.584  12.186  0.00  0.00    +0.000 C 
ATOM     10  N   UNL     1       5.919   3.727  14.892  0.00  0.00    +0.000 NA
ATOM     11  H   UNL     1       4.237   2.439  15.899  0.00  0.00    +0.000 HD
ATOM     12  H   UNL     1       7.619   5.442  12.797  0.00  0.00    +0.000 HD
ENDROOT
BRANCH   1  13
ATOM     13  C   UNL     1       3.819   3.217  17.804  0.00  0.00    +0.000 C 
ATOM     14  C   UNL     1       3.256   1.934  18.463  0.00  0.00    +0.000 C 
ATOM     15  C   UNL     1       2.246   2.227  19.577  0.00  0.00    +0.000 C 
ATOM     16  C   UNL     1       1.123   3.141  19.105  0.00  0.00    +0.000 C 
ATOM     17  C   UNL     1       1.657   4.447  18.525  0.00  0.00    +0.000 C 
ATOM     18  C   UNL     1       2.660   4.185  17.399  0.00  0.00    +0.000 C 
BRANCH  13  20
ATOM     19  C   UNL     1       5.299   4.625  19.754  0.00  0.00    +0.000 C 
ATOM     20  C   UNL     1       4.616   3.975  18.854  0.00  0.00    +0.000 C 
ENDBRANCH  13  20
ENDBRANCH   1  13
TORSDOF 2
ENDMDL
MODEL 9
REMARK VINA RESULT:      -6.6      0.949      1.003
REMARK  Name = 
REMARK  3 active torsions:
REMARK  status: ('A' for Active; 'I' for Inactive)
REMARK    1  A    between atoms: C_2  and  C_3
REMARK    2  A    between atoms: C_3  and  N_4
REMARK    3  A    between atoms: N_11  and  C_12
REMARK                            x       y       z     vdW  Elec       q    Type
REMARK                         _______ _______ _______ _____ _____    ______ ____
ROOT
ATOM      1  N   UNL     1       4.276   3.139  17.274  0.00  0.00    +0.000 N 
ATOM      2  C   UNL     1       5.421   3.920  17.229  0.00  0.00    +0.000 A 
ATOM      3  N   UNL     1       5.943   4.401  18.341  0.00  0.00    +0.000 NA
ATOM      4  C   UNL     1       7.022   5.133  18.188  0.00  0.00    +0.000 A 
ATOM      5 CL   UNL     1       7.731   5.732  19.626  0.00  0.00    +0.000 Cl
ATOM      6  N   UNL     1       7.617   5.465  17.057  0.00  0.00    +0.000 NA
ATOM      7  C   UNL     1       7.046   4.919  15.999  0.00  0.00    +0.000 A 
ATOM      8  N   UNL     1       7.700   5.173  14.826  0.00  0.00    +0.000 N 
ATOM      9  C   UNL     1       7.217   4.732  13.550  0.00  0.00    +0.000 C 
ATOM     10  N   UNL     1       5.950   4.165  16.035  0.00  0.00    +0.000 NA
ATOM     11  H   UNL     1       3.867   3.134  16.348  0.00  0.00    +0.000 HD
ATOM     12  H   UNL     1       8.338   5.950  14.882  0.00  0.00    +0.000 HD
ENDROOT
BRANCH   1  13
ATOM     13  C   UNL     1       3.317   3.288  18.369  0.00  0.00    +0.000 C 
ATOM     14  C   UNL     1       3.950   4.042  19.565  0.00  0.00    +0.000 C 
ATOM     15  C   UNL     1       3.019   4.129  20.778  0.00  0.00    +0.000 C 
ATOM     16  C   UNL     1       2.504   2.759  21.202  0.00  0.00    +0.000 C 
ATOM     17  C   UNL     1       1.806   2.033  20.056  0.00  0.00    +0.000 C 
ATOM     18  C   UNL     1       2.718   1.920  18.833  0.00  0.00    +0.000 C 
BRANCH  13  20
ATOM     19  C   UNL     1       1.103   4.787  17.462  0.00  0.00    +0.000 C 
ATOM     20  C   UNL     1       2.125   4.095  17.881  0.00  0.00    +0.000 C 
ENDBRANCH  13  20
ENDBRANCH   1  13
TORSDOF 2
ENDMDL
