MODEL 1
REMARK VINA RESULT:      -6.9      0.000      0.000
REMARK  Name = 
REMARK  7 active torsions:
REMARK  status: ('A' for Active; 'I' for Inactive)
REMARK    1  A    between atoms: C_1  and  O_2
REMARK    2  A    between atoms: O_2  and  C_3
REMARK    3  A    between atoms: C_6  and  C_7
REMARK    4  A    between atoms: N_9  and  C_10
REMARK    5  A    between atoms: N_9  and  C_13
REMARK    6  A    between atoms: C_10  and  C_11
REMARK    7  A    between atoms: C_11  and  N_12
REMARK                            x       y       z     vdW  Elec       q    Type
REMARK                         _______ _______ _______ _____ _____    ______ ____
ROOT
ATOM      1  C   UNL     1       5.048   4.388  17.125  0.00  0.00    +0.000 C 
ATOM      2  O   UNL     1       5.355   3.639  16.204  0.00  0.00    +0.000 OA
ATOM      3  N   UNL     1       3.815   4.196  17.719  0.00  0.00    +0.000 N 
ENDROOT
BRANCH   3   4
ATOM      4  C   UNL     1       3.214   5.154  18.585  0.00  0.00    +0.000 A 
ATOM      5  C   UNL     1       2.879   6.414  18.063  0.00  0.00    +0.000 A 
ATOM      6  C   UNL     1       2.227   7.362  18.857  0.00  0.00    +0.000 A 
ATOM      7  C   UNL     1       1.897   7.050  20.180  0.00  0.00    +0.000 A 
ATOM      8 CL   UNL     1       1.087   8.249  21.176  0.00  0.00    +0.000 Cl
ATOM      9  C   UNL     1       2.206   5.790  20.701  0.00  0.00    +0.000 A 
ATOM     10  C   UNL     1       2.848   4.835  19.902  0.00  0.00    +0.000 A 
ENDBRANCH   3   4
BRANCH   1  14
ATOM     11  C   UNL     1       7.996   7.391  18.332  0.00  0.00    +0.000 A 
ATOM     12  C   UNL     1       7.902   6.139  18.954  0.00  0.00    +0.000 A 
ATOM     13  C   UNL     1       6.958   5.205  18.526  0.00  0.00    +0.000 A 
ATOM     14  C   UNL     1       6.079   5.462  17.448  0.00  0.00    +0.000 A 
ATOM     15  C   UNL     1       6.205   6.721  16.810  0.00  0.00    +0.000 A 
ATOM     16  C   UNL     1       7.147   7.669  17.255  0.00  0.00    +0.000 A 
BRANCH  11  18
ATOM     17  C   UNL     1       8.789   9.702  18.458  0.00  0.00    +0.000 C 
ATOM     18  O   UNL     1       8.863   8.352  18.756  0.00  0.00    +0.000 OA
ENDBRANCH  11  18
ENDBRANCH   1  14
BRANCH   3  19
ATOM     19  C   UNL     1       2.926   3.114  17.259  0.00  0.00    +0.000 C 
BRANCH  19  20
ATOM     20  C   UNL     1       3.056   1.802  18.063  0.00  0.00    +0.000 C 
BRANCH  20  21
ATOM     21  N   UNL     1       1.824   1.437  18.753  0.00  0.00    +0.000 NA
ATOM     22  H   UNL     1       1.104   2.173  18.563  0.00  0.00    +0.000 HD
ATOM     23  H   UNL     1       2.004   1.442  19.783  0.00  0.00    +0.000 HD
ENDBRANCH  20  21
ENDBRANCH  19  20
ENDBRANCH   3  19
TORSDOF 6
ENDMDL
MODEL 2
REMARK VINA RESULT:      -6.9      0.276      1.092
REMARK  Name = 
REMARK  7 active torsions:
REMARK  status: ('A' for Active; 'I' for Inactive)
REMARK    1  A    between atoms: C_1  and  O_2
REMARK    2  A    between atoms: O_2  and  C_3
REMARK    3  A    between atoms: C_6  and  C_7
REMARK    4  A    between atoms: N_9  and  C_10
REMARK    5  A    between atoms: N_9  and  C_13
REMARK    6  A    between atoms: C_10  and  C_11
REMARK    7  A    between atoms: C_11  and  N_12
REMARK                            x       y       z     vdW  Elec       q    Type
REMARK                         _______ _______ _______ _____ _____    ______ ____
ROOT
ATOM      1  C   UNL     1       4.847   4.426  17.101  0.00  0.00    +0.000 C 
ATOM      2  O   UNL     1       5.156   3.624  16.227  0.00  0.00    +0.000 OA
ATOM      3  N   UNL     1       3.581   4.319  17.646  0.00  0.00    +0.000 N 
ENDROOT
BRANCH   3   4
ATOM      4  C   UNL     1       2.991   5.341  18.443  0.00  0.00    +0.000 A 
ATOM      5  C   UNL     1       2.669   5.050  19.778  0.00  0.00    +0.000 A 
ATOM      6  C   UNL     1       2.150   6.041  20.616  0.00  0.00    +0.000 A 
ATOM      7  C   UNL     1       1.958   7.336  20.124  0.00  0.00    +0.000 A 
ATOM      8 CL   UNL     1       1.295   8.575  21.179  0.00  0.00    +0.000 Cl
ATOM      9  C   UNL     1       2.297   7.641  18.802  0.00  0.00    +0.000 A 
ATOM     10  C   UNL     1       2.829   6.651  17.965  0.00  0.00    +0.000 A 
ENDBRANCH   3   4
BRANCH   1  14
ATOM     11  C   UNL     1       7.885   7.335  18.316  0.00  0.00    +0.000 A 
ATOM     12  C   UNL     1       7.712   6.111  18.975  0.00  0.00    +0.000 A 
ATOM     13  C   UNL     1       6.741   5.205  18.543  0.00  0.00    +0.000 A 
ATOM     14  C   UNL     1       5.914   5.464  17.426  0.00  0.00    +0.000 A 
ATOM     15  C   UNL     1       6.121   6.693  16.751  0.00  0.00    +0.000 A 
ATOM     16  C   UNL     1       7.089   7.613  17.200  0.00  0.00    +0.000 A 
BRANCH  11  18
ATOM     17  C   UNL     1       8.709   9.631  18.495  0.00  0.00    +0.000 C 
ATOM     18  O   UNL     1       8.781   8.270  18.739  0.00  0.00    +0.000 OA
ENDBRANCH  11  18
ENDBRANCH   1  14
BRANCH   3  19
ATOM     19  C   UNL     1       2.661   3.261  17.191  0.00  0.00    +0.000 C 
BRANCH  19  20
ATOM     20  C   UNL     1       2.660   1.997  18.078  0.00  0.00    +0.000 C 
BRANCH  20  21
ATOM     21  N   UNL     1       1.373   1.759  18.721  0.00  0.00    +0.000 NA
ATOM     22  H   UNL     1       1.538   1.244  19.618  0.00  0.00    +0.000 HD
ATOM     23  H   UNL     1       0.805   1.131  18.107  0.00  0.00    +0.000 HD
ENDBRANCH  20  21
ENDBRANCH  19  20
ENDBRANCH   3  19
TORSDOF 6
ENDMDL
MODEL 3
REMARK VINA RESULT:      -6.8      0.968      1.034
REMARK  Name = 
REMARK  7 active torsions:
REMARK  status: ('A' for Active; 'I' for Inactive)
REMARK    1  A    between atoms: C_1  and  O_2
REMARK    2  A    between atoms: O_2  and  C_3
REMARK    3  A    between atoms: C_6  and  C_7
REMARK    4  A    between atoms: N_9  and  C_10
REMARK    5  A    between atoms: N_9  and  C_13
REMARK    6  A    between atoms: C_10  and  C_11
REMARK    7  A    between atoms: C_11  and  N_12
REMARK                            x       y       z     vdW  Elec       q    Type
REMARK                         _______ _______ _______ _____ _____    ______ ____
ROOT
ATOM      1  C   UNL     1       4.106   4.558  17.518  0.00  0.00    +0.000 C 
ATOM      2  O   UNL     1       4.243   3.633  16.726  0.00  0.00    +0.000 OA
ATOM      3  N   UNL     1       2.868   4.708  18.116  0.00  0.00    +0.000 N 
ENDROOT
BRANCH   3   4
ATOM      4  C   UNL     1       2.484   5.886  18.817  0.00  0.00    +0.000 A 
ATOM      5  C   UNL     1       2.374   7.089  18.101  0.00  0.00    +0.000 A 
ATOM      6  C   UNL     1       1.935   8.255  18.734  0.00  0.00    +0.000 A 
ATOM      7  C   UNL     1       1.593   8.223  20.090  0.00  0.00    +0.000 A 
ATOM      8 CL   UNL     1       1.053   9.694  20.882  0.00  0.00    +0.000 Cl
ATOM      9  C   UNL     1       1.678   7.024  20.806  0.00  0.00    +0.000 A 
ATOM     10  C   UNL     1       2.105   5.852  20.168  0.00  0.00    +0.000 A 
ENDBRANCH   3   4
BRANCH   1  14
ATOM     11  C   UNL     1       7.617   7.053  18.305  0.00  0.00    +0.000 A 
ATOM     12  C   UNL     1       7.302   5.933  19.085  0.00  0.00    +0.000 A 
ATOM     13  C   UNL     1       6.181   5.155  18.789  0.00  0.00    +0.000 A 
ATOM     14  C   UNL     1       5.335   5.441  17.692  0.00  0.00    +0.000 A 
ATOM     15  C   UNL     1       5.683   6.559  16.894  0.00  0.00    +0.000 A 
ATOM     16  C   UNL     1       6.804   7.353  17.206  0.00  0.00    +0.000 A 
BRANCH  11  18
ATOM     17  C   UNL     1       8.665   9.253  18.515  0.00  0.00    +0.000 C 
ATOM     18  O   UNL     1       8.667   7.871  18.594  0.00  0.00    +0.000 OA
ENDBRANCH  11  18
ENDBRANCH   1  14
BRANCH   3  19
ATOM     19  C   UNL     1       1.774   3.768  17.810  0.00  0.00    +0.000 C 
BRANCH  19  20
ATOM     20  C   UNL     1       1.709   2.545  18.750  0.00  0.00    +0.000 C 
BRANCH  20  21
ATOM     21  N   UNL     1       2.617   1.476  18.352  0.00  0.00    +0.000 NA
ATOM     22  H   UNL     1       2.317   0.590  18.823  0.00  0.00    +0.000 HD
ATOM     23  H   UNL     1       3.575   1.703  18.706  0.00  0.00    +0.000 HD
ENDBRANCH  20  21
ENDBRANCH  19  20
ENDBRANCH   3  19
TORSDOF 6
ENDMDL
MODEL 4
REMARK VINA RESULT:      -6.8      0.542      1.583
REMARK  Name = 
REMARK  7 active torsions:
REMARK  status: ('A' for Active; 'I' for Inactive)
REMARK    1  A    between atoms: C_1  and  O_2
REMARK    2  A    between atoms: O_2  and  C_3
REMARK    3  A    between atoms: C_6  and  C_7
REMARK    4  A    between atoms: N_9  and  C_10
REMARK    5  A    between atoms: N_9  and  C_13
REMARK    6  A    between atoms: C_10  and  C_11
REMARK    7  A    between atoms: C_11  and  N_12
REMARK                            x       y       z     vdW  Elec       q    Type
REMARK                         _______ _______ _______ _____ _____    ______ ____
ROOT
ATOM      1  C   UNL     1       4.842   4.451  17.258  0.00  0.00    +0.000 C 
ATOM      2  O   UNL     1       5.199   3.706  16.353  0.00  0.00    +0.000 OA
ATOM      3  N   UNL     1       3.545   4.318  17.718  0.00  0.00    +0.000 N 
ENDROOT
BRANCH   3   4
ATOM      4  C   UNL     1       2.912   5.290  18.544  0.00  0.00    +0.000 A 
ATOM      5  C   UNL     1       2.511   4.915  19.836  0.00  0.00    +0.000 A 
ATOM      6  C   UNL     1       1.947   5.853  20.707  0.00  0.00    +0.000 A 
ATOM      7  C   UNL     1       1.789   7.179  20.290  0.00  0.00    +0.000 A 
ATOM      8 CL   UNL     1       1.070   8.350  21.383  0.00  0.00    +0.000 Cl
ATOM      9  C   UNL     1       2.206   7.566  19.013  0.00  0.00    +0.000 A 
ATOM     10  C   UNL     1       2.783   6.630  18.145  0.00  0.00    +0.000 A 
ENDBRANCH   3   4
BRANCH   1  14
ATOM     11  C   UNL     1       7.888   7.419  18.297  0.00  0.00    +0.000 A 
ATOM     12  C   UNL     1       6.963   7.622  17.264  0.00  0.00    +0.000 A 
ATOM     13  C   UNL     1       5.997   6.655  16.977  0.00  0.00    +0.000 A 
ATOM     14  C   UNL     1       5.892   5.454  17.716  0.00  0.00    +0.000 A 
ATOM     15  C   UNL     1       6.815   5.276  18.777  0.00  0.00    +0.000 A 
ATOM     16  C   UNL     1       7.800   6.245  19.052  0.00  0.00    +0.000 A 
BRANCH  11  18
ATOM     17  C   UNL     1       8.764   9.689  18.545  0.00  0.00    +0.000 C 
ATOM     18  O   UNL     1       8.881   8.310  18.571  0.00  0.00    +0.000 OA
ENDBRANCH  11  18
ENDBRANCH   1  14
BRANCH   3  19
ATOM     19  C   UNL     1       2.648   3.301  17.138  0.00  0.00    +0.000 C 
BRANCH  19  20
ATOM     20  C   UNL     1       2.589   1.981  17.937  0.00  0.00    +0.000 C 
BRANCH  20  21
ATOM     21  N   UNL     1       3.909   1.425  18.211  0.00  0.00    +0.000 NA
ATOM     22  H   UNL     1       4.623   1.992  17.695  0.00  0.00    +0.000 HD
ATOM     23  H   UNL     1       3.949   0.455  17.823  0.00  0.00    +0.000 HD
ENDBRANCH  20  21
ENDBRANCH  19  20
ENDBRANCH   3  19
TORSDOF 6
ENDMDL
MODEL 5
REMARK VINA RESULT:      -6.7      2.282      3.152
REMARK  Name = 
REMARK  7 active torsions:
REMARK  status: ('A' for Active; 'I' for Inactive)
REMARK    1  A    between atoms: C_1  and  O_2
REMARK    2  A    between atoms: O_2  and  C_3
REMARK    3  A    between atoms: C_6  and  C_7
REMARK    4  A    between atoms: N_9  and  C_10
REMARK    5  A    between atoms: N_9  and  C_13
REMARK    6  A    between atoms: C_10  and  C_11
REMARK    7  A    between atoms: C_11  and  N_12
REMARK                            x       y       z     vdW  Elec       q    Type
REMARK                         _______ _______ _______ _____ _____    ______ ____
ROOT
ATOM      1  C   UNL     1       4.048   3.509  18.908  0.00  0.00    +0.000 C 
ATOM      2  O   UNL     1       4.135   2.296  19.060  0.00  0.00    +0.000 OA
ATOM      3  N   UNL     1       3.058   4.170  19.610  0.00  0.00    +0.000 N 
ENDROOT
BRANCH   3   4
ATOM      4  C   UNL     1       2.657   5.504  19.315  0.00  0.00    +0.000 A 
ATOM      5  C   UNL     1       2.260   6.336  20.374  0.00  0.00    +0.000 A 
ATOM      6  C   UNL     1       1.922   7.673  20.140  0.00  0.00    +0.000 A 
ATOM      7  C   UNL     1       1.989   8.188  18.841  0.00  0.00    +0.000 A 
ATOM      8 CL   UNL     1       1.553   9.865  18.552  0.00  0.00    +0.000 Cl
ATOM      9  C   UNL     1       2.404   7.373  17.784  0.00  0.00    +0.000 A 
ATOM     10  C   UNL     1       2.756   6.037  18.020  0.00  0.00    +0.000 A 
ENDBRANCH   3   4
BRANCH   1  14
ATOM     11  C   UNL     1       6.831   4.998  15.873  0.00  0.00    +0.000 A 
ATOM     12  C   UNL     1       5.636   4.347  15.541  0.00  0.00    +0.000 A 
ATOM     13  C   UNL     1       4.769   3.903  16.541  0.00  0.00    +0.000 A 
ATOM     14  C   UNL     1       5.038   4.103  17.914  0.00  0.00    +0.000 A 
ATOM     15  C   UNL     1       6.237   4.789  18.235  0.00  0.00    +0.000 A 
ATOM     16  C   UNL     1       7.118   5.221  17.225  0.00  0.00    +0.000 A 
BRANCH  11  18
ATOM     17  C   UNL     1       7.644   5.151  13.572  0.00  0.00    +0.000 C 
ATOM     18  O   UNL     1       7.731   5.396  14.931  0.00  0.00    +0.000 OA
ENDBRANCH  11  18
ENDBRANCH   1  14
BRANCH   3  19
ATOM     19  C   UNL     1       2.164   3.427  20.517  0.00  0.00    +0.000 C 
BRANCH  19  20
ATOM     20  C   UNL     1       0.844   2.962  19.865  0.00  0.00    +0.000 C 
BRANCH  20  21
ATOM     21  N   UNL     1       1.051   1.975  18.811  0.00  0.00    +0.000 NA
ATOM     22  H   UNL     1       1.831   2.303  18.194  0.00  0.00    +0.000 HD
ATOM     23  H   UNL     1       0.189   1.933  18.220  0.00  0.00    +0.000 HD
ENDBRANCH  20  21
ENDBRANCH  19  20
ENDBRANCH   3  19
TORSDOF 6
ENDMDL
MODEL 6
REMARK VINA RESULT:      -6.7      2.294      3.042
REMARK  Name = 
REMARK  7 active torsions:
REMARK  status: ('A' for Active; 'I' for Inactive)
REMARK    1  A    between atoms: C_1  and  O_2
REMARK    2  A    between atoms: O_2  and  C_3
REMARK    3  A    between atoms: C_6  and  C_7
REMARK    4  A    between atoms: N_9  and  C_10
REMARK    5  A    between atoms: N_9  and  C_13
REMARK    6  A    between atoms: C_10  and  C_11
REMARK    7  A    between atoms: C_11  and  N_12
REMARK                            x       y       z     vdW  Elec       q    Type
REMARK                         _______ _______ _______ _____ _____    ______ ____
ROOT
ATOM      1  C   UNL     1       4.008   3.498  18.733  0.00  0.00    +0.000 C 
ATOM      2  O   UNL     1       4.024   2.275  18.804  0.00  0.00    +0.000 OA
ATOM      3  N   UNL     1       3.076   4.169  19.502  0.00  0.00    +0.000 N 
ENDROOT
BRANCH   3   4
ATOM      4  C   UNL     1       2.751   5.542  19.304  0.00  0.00    +0.000 A 
ATOM      5  C   UNL     1       2.776   6.057  17.998  0.00  0.00    +0.000 A 
ATOM      6  C   UNL     1       2.400   7.380  17.748  0.00  0.00    +0.000 A 
ATOM      7  C   UNL     1       1.988   8.196  18.807  0.00  0.00    +0.000 A 
ATOM      8 CL   UNL     1       1.527   9.861  18.488  0.00  0.00    +0.000 Cl
ATOM      9  C   UNL     1       1.938   7.685  20.108  0.00  0.00    +0.000 A 
ATOM     10  C   UNL     1       2.302   6.355  20.356  0.00  0.00    +0.000 A 
ENDBRANCH   3   4
BRANCH   1  14
ATOM     11  C   UNL     1       6.830   5.005  15.744  0.00  0.00    +0.000 A 
ATOM     12  C   UNL     1       5.627   4.379  15.392  0.00  0.00    +0.000 A 
ATOM     13  C   UNL     1       4.748   3.928  16.379  0.00  0.00    +0.000 A 
ATOM     14  C   UNL     1       5.013   4.097  17.757  0.00  0.00    +0.000 A 
ATOM     15  C   UNL     1       6.220   4.759  18.098  0.00  0.00    +0.000 A 
ATOM     16  C   UNL     1       7.113   5.197  17.101  0.00  0.00    +0.000 A 
BRANCH  11  18
ATOM     17  C   UNL     1       7.669   5.173  13.453  0.00  0.00    +0.000 C 
ATOM     18  O   UNL     1       7.741   5.408  14.815  0.00  0.00    +0.000 OA
ENDBRANCH  11  18
ENDBRANCH   1  14
BRANCH   3  19
ATOM     19  C   UNL     1       2.156   3.423  20.380  0.00  0.00    +0.000 C 
BRANCH  19  20
ATOM     20  C   UNL     1       0.823   3.026  19.709  0.00  0.00    +0.000 C 
BRANCH  20  21
ATOM     21  N   UNL     1       0.976   1.944  18.742  0.00  0.00    +0.000 NA
ATOM     22  H   UNL     1       1.976   1.913  18.432  0.00  0.00    +0.000 HD
ATOM     23  H   UNL     1       0.399   2.168  17.899  0.00  0.00    +0.000 HD
ENDBRANCH  20  21
ENDBRANCH  19  20
ENDBRANCH   3  19
TORSDOF 6
ENDMDL
MODEL 7
REMARK VINA RESULT:      -6.6      2.927      5.344
REMARK  Name = 
REMARK  7 active torsions:
REMARK  status: ('A' for Active; 'I' for Inactive)
REMARK    1  A    between atoms: C_1  and  O_2
REMARK    2  A    between atoms: O_2  and  C_3
REMARK    3  A    between atoms: C_6  and  C_7
REMARK    4  A    between atoms: N_9  and  C_10
REMARK    5  A    between atoms: N_9  and  C_13
REMARK    6  A    between atoms: C_10  and  C_11
REMARK    7  A    between atoms: C_11  and  N_12
REMARK                            x       y       z     vdW  Elec       q    Type
REMARK                         _______ _______ _______ _____ _____    ______ ____
ROOT
ATOM      1  C   UNL     1       4.008   4.520  17.280  0.00  0.00    +0.000 C 
ATOM      2  O   UNL     1       3.386   3.516  16.951  0.00  0.00    +0.000 OA
ATOM      3  N   UNL     1       5.258   4.708  16.722  0.00  0.00    +0.000 N 
ENDROOT
BRANCH   3   4
ATOM      4  C   UNL     1       6.197   5.655  17.223  0.00  0.00    +0.000 A 
ATOM      5  C   UNL     1       6.179   6.959  16.703  0.00  0.00    +0.000 A 
ATOM      6  C   UNL     1       7.035   7.939  17.212  0.00  0.00    +0.000 A 
ATOM      7  C   UNL     1       7.914   7.621  18.253  0.00  0.00    +0.000 A 
ATOM      8 CL   UNL     1       8.996   8.854  18.880  0.00  0.00    +0.000 Cl
ATOM      9  C   UNL     1       7.923   6.331  18.792  0.00  0.00    +0.000 A 
ATOM     10  C   UNL     1       7.054   5.351  18.292  0.00  0.00    +0.000 A 
ENDBRANCH   3   4
BRANCH   1  14
ATOM     11  C   UNL     1       1.834   6.818  20.307  0.00  0.00    +0.000 A 
ATOM     12  C   UNL     1       2.142   5.462  20.473  0.00  0.00    +0.000 A 
ATOM     13  C   UNL     1       2.852   4.771  19.489  0.00  0.00    +0.000 A 
ATOM     14  C   UNL     1       3.306   5.400  18.307  0.00  0.00    +0.000 A 
ATOM     15  C   UNL     1       3.013   6.780  18.167  0.00  0.00    +0.000 A 
ATOM     16  C   UNL     1       2.281   7.470  19.153  0.00  0.00    +0.000 A 
BRANCH  11  18
ATOM     17  C   UNL     1       0.790   8.862  21.151  0.00  0.00    +0.000 C 
ATOM     18  O   UNL     1       1.095   7.514  21.216  0.00  0.00    +0.000 OA
ENDBRANCH  11  18
ENDBRANCH   1  14
BRANCH   3  19
ATOM     19  C   UNL     1       5.797   3.734  15.755  0.00  0.00    +0.000 C 
BRANCH  19  20
ATOM     20  C   UNL     1       5.931   4.277  14.316  0.00  0.00    +0.000 C 
BRANCH  20  21
ATOM     21  N   UNL     1       6.341   3.254  13.361  0.00  0.00    +0.000 NA
ATOM     22  H   UNL     1       5.556   3.093  12.687  0.00  0.00    +0.000 HD
ATOM     23  H   UNL     1       6.492   2.357  13.878  0.00  0.00    +0.000 HD
ENDBRANCH  20  21
ENDBRANCH  19  20
ENDBRANCH   3  19
TORSDOF 6
ENDMDL
MODEL 8
REMARK VINA RESULT:      -6.6      2.913      5.334
REMARK  Name = 
REMARK  7 active torsions:
REMARK  status: ('A' for Active; 'I' for Inactive)
REMARK    1  A    between atoms: C_1  and  O_2
REMARK    2  A    between atoms: O_2  and  C_3
REMARK    3  A    between atoms: C_6  and  C_7
REMARK    4  A    between atoms: N_9  and  C_10
REMARK    5  A    between atoms: N_9  and  C_13
REMARK    6  A    between atoms: C_10  and  C_11
REMARK    7  A    between atoms: C_11  and  N_12
REMARK                            x       y       z     vdW  Elec       q    Type
REMARK                         _______ _______ _______ _____ _____    ______ ____
ROOT
ATOM      1  C   UNL     1       4.012   4.463  17.207  0.00  0.00    +0.000 C 
ATOM      2  O   UNL     1       3.401   3.460  16.854  0.00  0.00    +0.000 OA
ATOM      3  N   UNL     1       5.273   4.660  16.676  0.00  0.00    +0.000 N 
ENDROOT
BRANCH   3   4
ATOM      4  C   UNL     1       6.199   5.603  17.206  0.00  0.00    +0.000 A 
ATOM      5  C   UNL     1       6.206   6.905  16.680  0.00  0.00    +0.000 A 
ATOM      6  C   UNL     1       7.050   7.883  17.215  0.00  0.00    +0.000 A 
ATOM      7  C   UNL     1       7.888   7.565  18.288  0.00  0.00    +0.000 A 
ATOM      8 CL   UNL     1       8.955   8.795  18.948  0.00  0.00    +0.000 Cl
ATOM      9  C   UNL     1       7.872   6.277  18.832  0.00  0.00    +0.000 A 
ATOM     10  C   UNL     1       7.016   5.301  18.305  0.00  0.00    +0.000 A 
ENDBRANCH   3   4
BRANCH   1  14
ATOM     11  C   UNL     1       2.068   7.186  20.030  0.00  0.00    +0.000 A 
ATOM     12  C   UNL     1       2.390   7.567  18.721  0.00  0.00    +0.000 A 
ATOM     13  C   UNL     1       2.995   6.660  17.848  0.00  0.00    +0.000 A 
ATOM     14  C   UNL     1       3.287   5.330  18.228  0.00  0.00    +0.000 A 
ATOM     15  C   UNL     1       2.929   4.950  19.546  0.00  0.00    +0.000 A 
ATOM     16  C   UNL     1       2.335   5.872  20.430  0.00  0.00    +0.000 A 
BRANCH  11  18
ATOM     17  C   UNL     1       0.794   9.187  20.626  0.00  0.00    +0.000 C 
ATOM     18  O   UNL     1       1.530   8.055  20.931  0.00  0.00    +0.000 OA
ENDBRANCH  11  18
ENDBRANCH   1  14
BRANCH   3  19
ATOM     19  C   UNL     1       5.835   3.697  15.710  0.00  0.00    +0.000 C 
BRANCH  19  20
ATOM     20  C   UNL     1       5.957   4.242  14.271  0.00  0.00    +0.000 C 
BRANCH  20  21
ATOM     21  N   UNL     1       6.309   3.209  13.303  0.00  0.00    +0.000 NA
ATOM     22  H   UNL     1       7.169   3.514  12.788  0.00  0.00    +0.000 HD
ATOM     23  H   UNL     1       5.539   3.136  12.599  0.00  0.00    +0.000 HD
ENDBRANCH  20  21
ENDBRANCH  19  20
ENDBRANCH   3  19
TORSDOF 6
ENDMDL
MODEL 9
REMARK VINA RESULT:      -6.5      2.901      5.469
REMARK  Name = 
REMARK  7 active torsions:
REMARK  status: ('A' for Active; 'I' for Inactive)
REMARK    1  A    between atoms: C_1  and  O_2
REMARK    2  A    between atoms: O_2  and  C_3
REMARK    3  A    between atoms: C_6  and  C_7
REMARK    4  A    between atoms: N_9  and  C_10
REMARK    5  A    between atoms: N_9  and  C_13
REMARK    6  A    between atoms: C_10  and  C_11
REMARK    7  A    between atoms: C_11  and  N_12
REMARK                            x       y       z     vdW  Elec       q    Type
REMARK                         _______ _______ _______ _____ _____    ______ ____
ROOT
ATOM      1  C   UNL     1       4.015   4.344  17.318  0.00  0.00    +0.000 C 
ATOM      2  O   UNL     1       3.496   3.290  16.970  0.00  0.00    +0.000 OA
ATOM      3  N   UNL     1       5.241   4.665  16.765  0.00  0.00    +0.000 N 
ENDROOT
BRANCH   3   4
ATOM      4  C   UNL     1       6.082   5.690  17.284  0.00  0.00    +0.000 A 
ATOM      5  C   UNL     1       6.989   5.363  18.305  0.00  0.00    +0.000 A 
ATOM      6  C   UNL     1       7.881   6.320  18.798  0.00  0.00    +0.000 A 
ATOM      7  C   UNL     1       7.875   7.613  18.265  0.00  0.00    +0.000 A 
ATOM      8 CL   UNL     1       8.990   8.815  18.897  0.00  0.00    +0.000 Cl
ATOM      9  C   UNL     1       6.990   7.942  17.233  0.00  0.00    +0.000 A 
ATOM     10  C   UNL     1       6.106   6.979  16.729  0.00  0.00    +0.000 A 
ENDBRANCH   3   4
BRANCH   1  14
ATOM     11  C   UNL     1       1.908   6.845  20.229  0.00  0.00    +0.000 A 
ATOM     12  C   UNL     1       2.317   7.330  18.980  0.00  0.00    +0.000 A 
ATOM     13  C   UNL     1       2.972   6.492  18.075  0.00  0.00    +0.000 A 
ATOM     14  C   UNL     1       3.231   5.132  18.360  0.00  0.00    +0.000 A 
ATOM     15  C   UNL     1       2.786   4.648  19.616  0.00  0.00    +0.000 A 
ATOM     16  C   UNL     1       2.141   5.500  20.534  0.00  0.00    +0.000 A 
BRANCH  11  18
ATOM     17  C   UNL     1       1.064   8.997  21.030  0.00  0.00    +0.000 C 
ATOM     18  O   UNL     1       1.318   7.643  21.163  0.00  0.00    +0.000 OA
ENDBRANCH  11  18
ENDBRANCH   1  14
BRANCH   3  19
ATOM     19  C   UNL     1       5.873   3.767  15.781  0.00  0.00    +0.000 C 
BRANCH  19  20
ATOM     20  C   UNL     1       5.690   4.206  14.313  0.00  0.00    +0.000 C 
BRANCH  20  21
ATOM     21  N   UNL     1       6.361   3.319  13.369  0.00  0.00    +0.000 NA
ATOM     22  H   UNL     1       6.178   3.665  12.398  0.00  0.00    +0.000 HD
ATOM     23  H   UNL     1       5.932   2.369  13.442  0.00  0.00    +0.000 HD
ENDBRANCH  20  21
ENDBRANCH  19  20
ENDBRANCH   3  19
TORSDOF 6
ENDMDL
