MODEL 1
REMARK VINA RESULT:      -6.3      0.000      0.000
REMARK  Name = 
REMARK  6 active torsions:
REMARK  status: ('A' for Active; 'I' for Inactive)
REMARK    1  A    between atoms: C_1  and  N_2
REMARK    2  A    between atoms: N_2  and  C_3
REMARK    3  A    between atoms: C_3  and  N_5
REMARK    4  A    between atoms: N_5  and  C_6
REMARK    5  A    between atoms: C_9  and  C_10
REMARK    6  A    between atoms: C_13  and  S_14
REMARK                            x       y       z     vdW  Elec       q    Type
REMARK                         _______ _______ _______ _____ _____    ______ ____
ROOT
ATOM      1  C   UNL     1       3.093   4.915  18.600  0.00  0.00    +0.000 A 
ATOM      2  C   UNL     1       3.562   3.747  17.997  0.00  0.00    +0.000 A 
ATOM      3  C   UNL     1       4.517   3.811  16.978  0.00  0.00    +0.000 A 
ATOM      4  C   UNL     1       5.025   5.043  16.542  0.00  0.00    +0.000 A 
ATOM      5  C   UNL     1       4.534   6.213  17.142  0.00  0.00    +0.000 A 
ATOM      6  C   UNL     1       3.567   6.150  18.151  0.00  0.00    +0.000 A 
ENDROOT
BRANCH   4   7
ATOM      7  C   UNL     1       6.027   5.081  15.488  0.00  0.00    +0.000 A 
ATOM      8  N   UNL     1       7.167   5.739  15.420  0.00  0.00    +0.000 NA
ATOM      9  N   UNL     1       7.722   5.431  14.193  0.00  0.00    +0.000 NA
ATOM     10  C   UNL     1       6.880   4.612  13.598  0.00  0.00    +0.000 A 
ATOM     11  O   UNL     1       5.780   4.340  14.363  0.00  0.00    +0.000 OA
BRANCH  10  12
ATOM     12  S   UNL     1       7.124   3.949  12.019  0.00  0.00    +0.000 S 
ATOM     13  H   UNL     1       5.826   3.805  11.724  0.00  0.00    +0.000 HD
ENDBRANCH  10  12
ENDBRANCH   4   7
BRANCH   1  14
ATOM     14  N   UNL     1       2.084   4.914  19.581  0.00  0.00    +0.000 N 
ATOM     15  H   UNL     1       1.770   5.821  19.897  0.00  0.00    +0.000 HD
BRANCH  14  16
ATOM     16  C   UNL     1       1.612   3.871  20.337  0.00  0.00    +0.000 C 
ATOM     17  S   UNL     1       2.220   3.309  21.788  0.00  0.00    +0.000 S 
BRANCH  16  19
ATOM     18  C   UNL     1       0.448   2.239  18.836  0.00  0.00    +0.000 C 
ATOM     19  N   UNL     1       0.482   3.274  19.844  0.00  0.00    +0.000 N 
ATOM     20  H   UNL     1      -0.325   3.366  20.453  0.00  0.00    +0.000 HD
ENDBRANCH  16  19
ENDBRANCH  14  16
ENDBRANCH   1  14
TORSDOF 5
ENDMDL
MODEL 2
REMARK VINA RESULT:      -6.1      0.996      1.954
REMARK  Name = 
REMARK  6 active torsions:
REMARK  status: ('A' for Active; 'I' for Inactive)
REMARK    1  A    between atoms: C_1  and  N_2
REMARK    2  A    between atoms: N_2  and  C_3
REMARK    3  A    between atoms: C_3  and  N_5
REMARK    4  A    between atoms: N_5  and  C_6
REMARK    5  A    between atoms: C_9  and  C_10
REMARK    6  A    between atoms: C_13  and  S_14
REMARK                            x       y       z     vdW  Elec       q    Type
REMARK                         _______ _______ _______ _____ _____    ______ ____
ROOT
ATOM      1  C   UNL     1       2.772   4.814  18.238  0.00  0.00    +0.000 A 
ATOM      2  C   UNL     1       3.368   6.033  17.911  0.00  0.00    +0.000 A 
ATOM      3  C   UNL     1       4.423   6.082  16.995  0.00  0.00    +0.000 A 
ATOM      4  C   UNL     1       4.903   4.915  16.386  0.00  0.00    +0.000 A 
ATOM      5  C   UNL     1       4.310   3.692  16.734  0.00  0.00    +0.000 A 
ATOM      6  C   UNL     1       3.265   3.641  17.663  0.00  0.00    +0.000 A 
ENDROOT
BRANCH   4   7
ATOM      7  C   UNL     1       5.995   4.995  15.427  0.00  0.00    +0.000 A 
ATOM      8  N   UNL     1       7.164   5.595  15.515  0.00  0.00    +0.000 NA
ATOM      9  N   UNL     1       7.810   5.369  14.315  0.00  0.00    +0.000 NA
ATOM     10  C   UNL     1       6.988   4.651  13.578  0.00  0.00    +0.000 A 
ATOM     11  O   UNL     1       5.814   4.370  14.221  0.00  0.00    +0.000 OA
BRANCH  10  12
ATOM     12  S   UNL     1       7.340   4.120  11.971  0.00  0.00    +0.000 S 
ATOM     13  H   UNL     1       6.564   3.029  12.009  0.00  0.00    +0.000 HD
ENDBRANCH  10  12
ENDBRANCH   4   7
BRANCH   1  14
ATOM     14  N   UNL     1       1.755   4.697  19.203  0.00  0.00    +0.000 N 
ATOM     15  H   UNL     1       0.813   4.870  18.880  0.00  0.00    +0.000 HD
BRANCH  14  16
ATOM     16  C   UNL     1       1.863   4.603  20.568  0.00  0.00    +0.000 C 
ATOM     17  S   UNL     1       1.759   3.224  21.504  0.00  0.00    +0.000 S 
BRANCH  16  19
ATOM     18  C   UNL     1       1.477   7.047  20.956  0.00  0.00    +0.000 C 
ATOM     19  N   UNL     1       2.139   5.786  21.201  0.00  0.00    +0.000 N 
ATOM     20  H   UNL     1       2.618   5.671  22.089  0.00  0.00    +0.000 HD
ENDBRANCH  16  19
ENDBRANCH  14  16
ENDBRANCH   1  14
TORSDOF 5
ENDMDL
MODEL 3
REMARK VINA RESULT:      -6.1      0.749      1.189
REMARK  Name = 
REMARK  6 active torsions:
REMARK  status: ('A' for Active; 'I' for Inactive)
REMARK    1  A    between atoms: C_1  and  N_2
REMARK    2  A    between atoms: N_2  and  C_3
REMARK    3  A    between atoms: C_3  and  N_5
REMARK    4  A    between atoms: N_5  and  C_6
REMARK    5  A    between atoms: C_9  and  C_10
REMARK    6  A    between atoms: C_13  and  S_14
REMARK                            x       y       z     vdW  Elec       q    Type
REMARK                         _______ _______ _______ _____ _____    ______ ____
ROOT
ATOM      1  C   UNL     1       3.423   4.699  19.179  0.00  0.00    +0.000 A 
ATOM      2  C   UNL     1       3.163   5.546  18.101  0.00  0.00    +0.000 A 
ATOM      3  C   UNL     1       4.067   5.637  17.038  0.00  0.00    +0.000 A 
ATOM      4  C   UNL     1       5.247   4.881  17.030  0.00  0.00    +0.000 A 
ATOM      5  C   UNL     1       5.509   4.046  18.127  0.00  0.00    +0.000 A 
ATOM      6  C   UNL     1       4.612   3.967  19.198  0.00  0.00    +0.000 A 
ENDROOT
BRANCH   4   7
ATOM      7  C   UNL     1       6.166   4.984  15.906  0.00  0.00    +0.000 A 
ATOM      8  N   UNL     1       7.298   5.649  15.789  0.00  0.00    +0.000 NA
ATOM      9  N   UNL     1       7.757   5.414  14.507  0.00  0.00    +0.000 NA
ATOM     10  C   UNL     1       6.871   4.628  13.932  0.00  0.00    +0.000 A 
ATOM     11  O   UNL     1       5.832   4.309  14.762  0.00  0.00    +0.000 OA
BRANCH  10  12
ATOM     12  S   UNL     1       6.993   4.060  12.303  0.00  0.00    +0.000 S 
ATOM     13  H   UNL     1       6.577   2.812  12.557  0.00  0.00    +0.000 HD
ENDBRANCH  10  12
ENDBRANCH   4   7
BRANCH   1  14
ATOM     14  N   UNL     1       2.583   4.621  20.306  0.00  0.00    +0.000 N 
ATOM     15  H   UNL     1       2.726   5.326  21.016  0.00  0.00    +0.000 HD
BRANCH  14  16
ATOM     16  C   UNL     1       1.749   3.603  20.696  0.00  0.00    +0.000 C 
ATOM     17  S   UNL     1       1.890   2.632  22.047  0.00  0.00    +0.000 S 
BRANCH  16  19
ATOM     18  C   UNL     1       0.565   2.483  18.795  0.00  0.00    +0.000 C 
ATOM     19  N   UNL     1       0.657   3.422  19.889  0.00  0.00    +0.000 N 
ATOM     20  H   UNL     1      -0.211   3.754  20.299  0.00  0.00    +0.000 HD
ENDBRANCH  16  19
ENDBRANCH  14  16
ENDBRANCH   1  14
TORSDOF 5
ENDMDL
MODEL 4
REMARK VINA RESULT:      -6.0      1.606      2.033
REMARK  Name = 
REMARK  6 active torsions:
REMARK  status: ('A' for Active; 'I' for Inactive)
REMARK    1  A    between atoms: C_1  and  N_2
REMARK    2  A    between atoms: N_2  and  C_3
REMARK    3  A    between atoms: C_3  and  N_5
REMARK    4  A    between atoms: N_5  and  C_6
REMARK    5  A    between atoms: C_9  and  C_10
REMARK    6  A    between atoms: C_13  and  S_14
REMARK                            x       y       z     vdW  Elec       q    Type
REMARK                         _______ _______ _______ _____ _____    ______ ____
ROOT
ATOM      1  C   UNL     1       4.450   3.770  19.209  0.00  0.00    +0.000 A 
ATOM      2  C   UNL     1       5.589   4.577  19.212  0.00  0.00    +0.000 A 
ATOM      3  C   UNL     1       6.259   4.861  18.018  0.00  0.00    +0.000 A 
ATOM      4  C   UNL     1       5.803   4.346  16.796  0.00  0.00    +0.000 A 
ATOM      5  C   UNL     1       4.668   3.521  16.805  0.00  0.00    +0.000 A 
ATOM      6  C   UNL     1       4.008   3.224  18.002  0.00  0.00    +0.000 A 
ENDROOT
BRANCH   4   7
ATOM      7  C   UNL     1       6.511   4.667  15.566  0.00  0.00    +0.000 A 
ATOM      8  N   UNL     1       7.437   5.574  15.327  0.00  0.00    +0.000 NA
ATOM      9  N   UNL     1       7.756   5.461  13.987  0.00  0.00    +0.000 NA
ATOM     10  C   UNL     1       7.000   4.498  13.503  0.00  0.00    +0.000 A 
ATOM     11  O   UNL     1       6.184   3.943  14.450  0.00  0.00    +0.000 OA
BRANCH  10  12
ATOM     12  S   UNL     1       7.021   3.987  11.852  0.00  0.00    +0.000 S 
ATOM     13  H   UNL     1       6.142   2.988  12.002  0.00  0.00    +0.000 HD
ENDBRANCH  10  12
ENDBRANCH   4   7
BRANCH   1  14
ATOM     14  N   UNL     1       3.779   3.395  20.387  0.00  0.00    +0.000 N 
ATOM     15  H   UNL     1       4.157   2.598  20.881  0.00  0.00    +0.000 HD
BRANCH  14  16
ATOM     16  C   UNL     1       2.556   3.806  20.855  0.00  0.00    +0.000 C 
ATOM     17  S   UNL     1       1.222   2.858  21.188  0.00  0.00    +0.000 S 
BRANCH  16  19
ATOM     18  C   UNL     1       1.919   6.145  20.226  0.00  0.00    +0.000 C 
ATOM     19  N   UNL     1       2.467   5.148  21.116  0.00  0.00    +0.000 N 
ATOM     20  H   UNL     1       2.512   5.374  22.105  0.00  0.00    +0.000 HD
ENDBRANCH  16  19
ENDBRANCH  14  16
ENDBRANCH   1  14
TORSDOF 5
ENDMDL
MODEL 5
REMARK VINA RESULT:      -6.0      1.473      1.687
REMARK  Name = 
REMARK  6 active torsions:
REMARK  status: ('A' for Active; 'I' for Inactive)
REMARK    1  A    between atoms: C_1  and  N_2
REMARK    2  A    between atoms: N_2  and  C_3
REMARK    3  A    between atoms: C_3  and  N_5
REMARK    4  A    between atoms: N_5  and  C_6
REMARK    5  A    between atoms: C_9  and  C_10
REMARK    6  A    between atoms: C_13  and  S_14
REMARK                            x       y       z     vdW  Elec       q    Type
REMARK                         _______ _______ _______ _____ _____    ______ ____
ROOT
ATOM      1  C   UNL     1       4.082   5.072  19.313  0.00  0.00    +0.000 A 
ATOM      2  C   UNL     1       5.476   5.141  19.313  0.00  0.00    +0.000 A 
ATOM      3  C   UNL     1       6.187   5.097  18.109  0.00  0.00    +0.000 A 
ATOM      4  C   UNL     1       5.519   4.985  16.882  0.00  0.00    +0.000 A 
ATOM      5  C   UNL     1       4.118   4.898  16.894  0.00  0.00    +0.000 A 
ATOM      6  C   UNL     1       3.409   4.926  18.099  0.00  0.00    +0.000 A 
ENDROOT
BRANCH   4   7
ATOM      7  C   UNL     1       6.281   4.953  15.643  0.00  0.00    +0.000 A 
ATOM      8  N   UNL     1       7.361   5.621  15.289  0.00  0.00    +0.000 NA
ATOM      9  N   UNL     1       7.661   5.222  14.001  0.00  0.00    +0.000 NA
ATOM     10  C   UNL     1       6.742   4.344  13.658  0.00  0.00    +0.000 A 
ATOM     11  O   UNL     1       5.831   4.119  14.654  0.00  0.00    +0.000 OA
BRANCH  10  12
ATOM     12  S   UNL     1       6.677   3.559  12.119  0.00  0.00    +0.000 S 
ATOM     13  H   UNL     1       6.885   4.663  11.389  0.00  0.00    +0.000 HD
ENDBRANCH  10  12
ENDBRANCH   4   7
BRANCH   1  14
ATOM     14  N   UNL     1       3.321   5.043  20.496  0.00  0.00    +0.000 N 
ATOM     15  H   UNL     1       3.753   4.592  21.292  0.00  0.00    +0.000 HD
BRANCH  14  16
ATOM     16  C   UNL     1       1.993   5.334  20.679  0.00  0.00    +0.000 C 
ATOM     17  S   UNL     1       1.295   6.841  20.848  0.00  0.00    +0.000 S 
BRANCH  16  19
ATOM     18  C   UNL     1       1.372   3.018  21.403  0.00  0.00    +0.000 C 
ATOM     19  N   UNL     1       1.163   4.243  20.666  0.00  0.00    +0.000 N 
ATOM     20  H   UNL     1       0.218   4.454  20.361  0.00  0.00    +0.000 HD
ENDBRANCH  16  19
ENDBRANCH  14  16
ENDBRANCH   1  14
TORSDOF 5
ENDMDL
MODEL 6
REMARK VINA RESULT:      -6.0      1.683      2.301
REMARK  Name = 
REMARK  6 active torsions:
REMARK  status: ('A' for Active; 'I' for Inactive)
REMARK    1  A    between atoms: C_1  and  N_2
REMARK    2  A    between atoms: N_2  and  C_3
REMARK    3  A    between atoms: C_3  and  N_5
REMARK    4  A    between atoms: N_5  and  C_6
REMARK    5  A    between atoms: C_9  and  C_10
REMARK    6  A    between atoms: C_13  and  S_14
REMARK                            x       y       z     vdW  Elec       q    Type
REMARK                         _______ _______ _______ _____ _____    ______ ____
ROOT
ATOM      1  C   UNL     1       4.031   5.485  18.932  0.00  0.00    +0.000 A 
ATOM      2  C   UNL     1       4.153   6.535  18.020  0.00  0.00    +0.000 A 
ATOM      3  C   UNL     1       4.853   6.354  16.823  0.00  0.00    +0.000 A 
ATOM      4  C   UNL     1       5.441   5.121  16.511  0.00  0.00    +0.000 A 
ATOM      5  C   UNL     1       5.328   4.077  17.442  0.00  0.00    +0.000 A 
ATOM      6  C   UNL     1       4.642   4.262  18.647  0.00  0.00    +0.000 A 
ENDROOT
BRANCH   4   7
ATOM      7  C   UNL     1       6.154   4.955  15.253  0.00  0.00    +0.000 A 
ATOM      8  N   UNL     1       7.228   5.566  14.795  0.00  0.00    +0.000 NA
ATOM      9  N   UNL     1       7.471   5.039  13.541  0.00  0.00    +0.000 NA
ATOM     10  C   UNL     1       6.527   4.149  13.321  0.00  0.00    +0.000 A 
ATOM     11  O   UNL     1       5.653   4.037  14.368  0.00  0.00    +0.000 OA
BRANCH  10  12
ATOM     12  S   UNL     1       6.390   3.220  11.869  0.00  0.00    +0.000 S 
ATOM     13  H   UNL     1       6.310   2.026  12.472  0.00  0.00    +0.000 HD
ENDBRANCH  10  12
ENDBRANCH   4   7
BRANCH   1  14
ATOM     14  N   UNL     1       3.399   5.631  20.181  0.00  0.00    +0.000 N 
ATOM     15  H   UNL     1       4.006   5.629  20.989  0.00  0.00    +0.000 HD
BRANCH  14  16
ATOM     16  C   UNL     1       2.064   5.553  20.490  0.00  0.00    +0.000 C 
ATOM     17  S   UNL     1       1.066   4.220  20.364  0.00  0.00    +0.000 S 
BRANCH  16  19
ATOM     18  C   UNL     1       1.540   7.998  20.367  0.00  0.00    +0.000 C 
ATOM     19  N   UNL     1       1.531   6.703  21.009  0.00  0.00    +0.000 N 
ATOM     20  H   UNL     1       0.838   6.541  21.733  0.00  0.00    +0.000 HD
ENDBRANCH  16  19
ENDBRANCH  14  16
ENDBRANCH   1  14
TORSDOF 5
ENDMDL
MODEL 7
REMARK VINA RESULT:      -6.0      1.202      1.202
REMARK  Name = 
REMARK  6 active torsions:
REMARK  status: ('A' for Active; 'I' for Inactive)
REMARK    1  A    between atoms: C_1  and  N_2
REMARK    2  A    between atoms: N_2  and  C_3
REMARK    3  A    between atoms: C_3  and  N_5
REMARK    4  A    between atoms: N_5  and  C_6
REMARK    5  A    between atoms: C_9  and  C_10
REMARK    6  A    between atoms: C_13  and  S_14
REMARK                            x       y       z     vdW  Elec       q    Type
REMARK                         _______ _______ _______ _____ _____    ______ ____
ROOT
ATOM      1  C   UNL     1       3.876   4.218  19.109  0.00  0.00    +0.000 A 
ATOM      2  C   UNL     1       3.626   3.523  17.925  0.00  0.00    +0.000 A 
ATOM      3  C   UNL     1       4.430   3.731  16.800  0.00  0.00    +0.000 A 
ATOM      4  C   UNL     1       5.501   4.635  16.836  0.00  0.00    +0.000 A 
ATOM      5  C   UNL     1       5.733   5.342  18.026  0.00  0.00    +0.000 A 
ATOM      6  C   UNL     1       4.918   5.145  19.147  0.00  0.00    +0.000 A 
ENDROOT
BRANCH   4   7
ATOM      7  C   UNL     1       6.331   4.824  15.656  0.00  0.00    +0.000 A 
ATOM      8  N   UNL     1       7.355   5.628  15.454  0.00  0.00    +0.000 NA
ATOM      9  N   UNL     1       7.765   5.417  14.151  0.00  0.00    +0.000 NA
ATOM     10  C   UNL     1       6.960   4.504  13.650  0.00  0.00    +0.000 A 
ATOM     11  O   UNL     1       6.023   4.076  14.550  0.00  0.00    +0.000 OA
BRANCH  10  12
ATOM     12  S   UNL     1       7.061   3.908  12.030  0.00  0.00    +0.000 S 
ATOM     13  H   UNL     1       8.397   3.944  11.949  0.00  0.00    +0.000 HD
ENDBRANCH  10  12
ENDBRANCH   4   7
BRANCH   1  14
ATOM     14  N   UNL     1       3.058   4.099  20.248  0.00  0.00    +0.000 N 
ATOM     15  H   UNL     1       3.288   3.349  20.885  0.00  0.00    +0.000 HD
BRANCH  14  16
ATOM     16  C   UNL     1       1.857   4.706  20.519  0.00  0.00    +0.000 C 
ATOM     17  S   UNL     1       1.569   6.334  20.751  0.00  0.00    +0.000 S 
BRANCH  16  19
ATOM     18  C   UNL     1       0.606   2.697  19.699  0.00  0.00    +0.000 C 
ATOM     19  N   UNL     1       0.782   3.857  20.544  0.00  0.00    +0.000 N 
ATOM     20  H   UNL     1       0.255   3.892  21.411  0.00  0.00    +0.000 HD
ENDBRANCH  16  19
ENDBRANCH  14  16
ENDBRANCH   1  14
TORSDOF 5
ENDMDL
MODEL 8
REMARK VINA RESULT:      -6.0      1.341      1.652
REMARK  Name = 
REMARK  6 active torsions:
REMARK  status: ('A' for Active; 'I' for Inactive)
REMARK    1  A    between atoms: C_1  and  N_2
REMARK    2  A    between atoms: N_2  and  C_3
REMARK    3  A    between atoms: C_3  and  N_5
REMARK    4  A    between atoms: N_5  and  C_6
REMARK    5  A    between atoms: C_9  and  C_10
REMARK    6  A    between atoms: C_13  and  S_14
REMARK                            x       y       z     vdW  Elec       q    Type
REMARK                         _______ _______ _______ _____ _____    ______ ____
ROOT
ATOM      1  C   UNL     1       4.253   4.245  19.303  0.00  0.00    +0.000 A 
ATOM      2  C   UNL     1       3.796   3.624  18.140  0.00  0.00    +0.000 A 
ATOM      3  C   UNL     1       4.484   3.788  16.933  0.00  0.00    +0.000 A 
ATOM      4  C   UNL     1       5.643   4.573  16.865  0.00  0.00    +0.000 A 
ATOM      5  C   UNL     1       6.084   5.209  18.036  0.00  0.00    +0.000 A 
ATOM      6  C   UNL     1       5.387   5.058  19.240  0.00  0.00    +0.000 A 
ENDROOT
BRANCH   4   7
ATOM      7  C   UNL     1       6.347   4.718  15.600  0.00  0.00    +0.000 A 
ATOM      8  N   UNL     1       7.306   5.550  15.248  0.00  0.00    +0.000 NA
ATOM      9  N   UNL     1       7.602   5.269  13.929  0.00  0.00    +0.000 NA
ATOM     10  C   UNL     1       6.800   4.290  13.567  0.00  0.00    +0.000 A 
ATOM     11  O   UNL     1       5.974   3.884  14.579  0.00  0.00    +0.000 OA
BRANCH  10  12
ATOM     12  S   UNL     1       6.777   3.590  11.986  0.00  0.00    +0.000 S 
ATOM     13  H   UNL     1       7.996   3.039  12.058  0.00  0.00    +0.000 HD
ENDBRANCH  10  12
ENDBRANCH   4   7
BRANCH   1  14
ATOM     14  N   UNL     1       3.563   4.172  20.528  0.00  0.00    +0.000 N 
ATOM     15  H   UNL     1       4.135   4.059  21.354  0.00  0.00    +0.000 HD
BRANCH  14  16
ATOM     16  C   UNL     1       2.221   4.006  20.756  0.00  0.00    +0.000 C 
ATOM     17  S   UNL     1       1.466   2.713  21.495  0.00  0.00    +0.000 S 
BRANCH  16  19
ATOM     18  C   UNL     1       1.687   6.452  20.685  0.00  0.00    +0.000 C 
ATOM     19  N   UNL     1       1.442   5.063  20.367  0.00  0.00    +0.000 N 
ATOM     20  H   UNL     1       0.851   4.862  19.566  0.00  0.00    +0.000 HD
ENDBRANCH  16  19
ENDBRANCH  14  16
ENDBRANCH   1  14
TORSDOF 5
ENDMDL
MODEL 9
REMARK VINA RESULT:      -5.8      3.498      6.884
REMARK  Name = 
REMARK  6 active torsions:
REMARK  status: ('A' for Active; 'I' for Inactive)
REMARK    1  A    between atoms: C_1  and  N_2
REMARK    2  A    between atoms: N_2  and  C_3
REMARK    3  A    between atoms: C_3  and  N_5
REMARK    4  A    between atoms: N_5  and  C_6
REMARK    5  A    between atoms: C_9  and  C_10
REMARK    6  A    between atoms: C_13  and  S_14
REMARK                            x       y       z     vdW  Elec       q    Type
REMARK                         _______ _______ _______ _____ _____    ______ ____
ROOT
ATOM      1  C   UNL     1       4.559   4.716  17.544  0.00  0.00    +0.000 A 
ATOM      2  C   UNL     1       3.947   4.359  18.747  0.00  0.00    +0.000 A 
ATOM      3  C   UNL     1       3.148   5.278  19.434  0.00  0.00    +0.000 A 
ATOM      4  C   UNL     1       2.943   6.571  18.933  0.00  0.00    +0.000 A 
ATOM      5  C   UNL     1       3.578   6.926  17.733  0.00  0.00    +0.000 A 
ATOM      6  C   UNL     1       4.390   6.012  17.054  0.00  0.00    +0.000 A 
ENDROOT
BRANCH   4   7
ATOM      7  C   UNL     1       2.097   7.505  19.661  0.00  0.00    +0.000 A 
ATOM      8  N   UNL     1       1.558   7.410  20.860  0.00  0.00    +0.000 NA
ATOM      9  N   UNL     1       0.836   8.571  21.055  0.00  0.00    +0.000 NA
ATOM     10  C   UNL     1       0.980   9.289  19.961  0.00  0.00    +0.000 A 
ATOM     11  O   UNL     1       1.772   8.676  19.030  0.00  0.00    +0.000 OA
BRANCH  10  12
ATOM     12  S   UNL     1       0.247  10.835  19.714  0.00  0.00    +0.000 S 
ATOM     13  H   UNL     1       0.851  11.444  20.742  0.00  0.00    +0.000 HD
ENDBRANCH  10  12
ENDBRANCH   4   7
BRANCH   1  14
ATOM     14  N   UNL     1       5.428   3.856  16.848  0.00  0.00    +0.000 N 
ATOM     15  H   UNL     1       5.377   2.876  17.094  0.00  0.00    +0.000 HD
BRANCH  14  16
ATOM     16  C   UNL     1       6.494   4.168  16.042  0.00  0.00    +0.000 C 
ATOM     17  S   UNL     1       6.482   4.423  14.391  0.00  0.00    +0.000 S 
BRANCH  16  19
ATOM     18  C   UNL     1       7.825   4.759  18.079  0.00  0.00    +0.000 C 
ATOM     19  N   UNL     1       7.681   4.333  16.705  0.00  0.00    +0.000 N 
ATOM     20  H   UNL     1       8.456   3.831  16.284  0.00  0.00    +0.000 HD
ENDBRANCH  16  19
ENDBRANCH  14  16
ENDBRANCH   1  14
TORSDOF 5
ENDMDL
