MODEL 1
REMARK VINA RESULT:      -8.0      0.000      0.000
REMARK  Name = 
REMARK  2 active torsions:
REMARK  status: ('A' for Active; 'I' for Inactive)
REMARK    1  A    between atoms: C_2  and  O_5
REMARK    2  A    between atoms: O_5  and  C_6
REMARK                            x       y       z     vdW  Elec       q    Type
REMARK                         _______ _______ _______ _____ _____    ______ ____
ROOT
ATOM      1  C   UNL     1       2.629   2.549  19.487  0.00  0.00    +0.000 A 
ATOM      2  C   UNL     1       2.061   2.566  18.215  0.00  0.00    +0.000 A 
ATOM      3  C   UNL     1       2.783   3.063  17.120  0.00  0.00    +0.000 A 
ATOM      4  C   UNL     1       4.111   3.500  17.298  0.00  0.00    +0.000 A 
ATOM      5  C   UNL     1       4.679   3.400  18.565  0.00  0.00    +0.000 A 
ATOM      6  C   UNL     1       3.968   2.921  19.673  0.00  0.00    +0.000 A 
ATOM      7  N   UNL     1       5.976   3.848  18.463  0.00  0.00    +0.000 N 
ATOM      8  C   UNL     1       6.248   4.271  17.183  0.00  0.00    +0.000 A 
ATOM      9  C   UNL     1       7.418   4.816  16.637  0.00  0.00    +0.000 A 
ATOM     10  C   UNL     1       7.396   5.175  15.285  0.00  0.00    +0.000 A 
ATOM     11  C   UNL     1       6.252   4.996  14.511  0.00  0.00    +0.000 A 
ATOM     12  C   UNL     1       5.094   4.445  15.070  0.00  0.00    +0.000 A 
ATOM     13  C   UNL     1       5.092   4.074  16.430  0.00  0.00    +0.000 A 
ATOM     14  H   UNL     1       6.633   3.881  19.227  0.00  0.00    +0.000 HD
ENDROOT
BRANCH   1  15
ATOM     15  O   UNL     1       1.991   2.137  20.621  0.00  0.00    +0.000 OA
BRANCH  15  17
ATOM     16  F   UNL     1       0.604   4.000  20.801  0.00  0.00    +0.000 F 
ATOM     17  C   UNL     1       1.392   3.121  21.454  0.00  0.00    +0.000 C 
ATOM     18  F   UNL     1       2.379   3.826  22.057  0.00  0.00    +0.000 F 
ATOM     19  F   UNL     1       0.664   2.512  22.415  0.00  0.00    +0.000 F 
ENDBRANCH  15  17
ENDBRANCH   1  15
TORSDOF 2
ENDMDL
MODEL 2
REMARK VINA RESULT:      -7.9      4.544      6.641
REMARK  Name = 
REMARK  2 active torsions:
REMARK  status: ('A' for Active; 'I' for Inactive)
REMARK    1  A    between atoms: C_2  and  O_5
REMARK    2  A    between atoms: O_5  and  C_6
REMARK                            x       y       z     vdW  Elec       q    Type
REMARK                         _______ _______ _______ _____ _____    ______ ____
ROOT
ATOM      1  C   UNL     1       5.268   5.624  15.740  0.00  0.00    +0.000 A 
ATOM      2  C   UNL     1       4.966   6.641  16.643  0.00  0.00    +0.000 A 
ATOM      3  C   UNL     1       4.113   6.398  17.731  0.00  0.00    +0.000 A 
ATOM      4  C   UNL     1       3.601   5.101  17.940  0.00  0.00    +0.000 A 
ATOM      5  C   UNL     1       3.982   4.087  17.067  0.00  0.00    +0.000 A 
ATOM      6  C   UNL     1       4.818   4.315  15.967  0.00  0.00    +0.000 A 
ATOM      7  N   UNL     1       3.384   2.928  17.509  0.00  0.00    +0.000 N 
ATOM      8  C   UNL     1       2.602   3.172  18.612  0.00  0.00    +0.000 A 
ATOM      9  C   UNL     1       1.805   2.301  19.369  0.00  0.00    +0.000 A 
ATOM     10  C   UNL     1       1.096   2.844  20.446  0.00  0.00    +0.000 A 
ATOM     11  C   UNL     1       1.178   4.201  20.753  0.00  0.00    +0.000 A 
ATOM     12  C   UNL     1       1.983   5.054  19.991  0.00  0.00    +0.000 A 
ATOM     13  C   UNL     1       2.709   4.531  18.902  0.00  0.00    +0.000 A 
ATOM     14  H   UNL     1       3.491   2.026  17.072  0.00  0.00    +0.000 HD
ENDROOT
BRANCH   1  15
ATOM     15  O   UNL     1       6.041   5.774  14.626  0.00  0.00    +0.000 OA
BRANCH  15  17
ATOM     16  F   UNL     1       6.602   3.660  13.821  0.00  0.00    +0.000 F 
ATOM     17  C   UNL     1       7.053   4.809  14.370  0.00  0.00    +0.000 C 
ATOM     18  F   UNL     1       7.647   4.493  15.546  0.00  0.00    +0.000 F 
ATOM     19  F   UNL     1       7.988   5.344  13.557  0.00  0.00    +0.000 F 
ENDBRANCH  15  17
ENDBRANCH   1  15
TORSDOF 2
ENDMDL
MODEL 3
REMARK VINA RESULT:      -7.7      4.424      6.495
REMARK  Name = 
REMARK  2 active torsions:
REMARK  status: ('A' for Active; 'I' for Inactive)
REMARK    1  A    between atoms: C_2  and  O_5
REMARK    2  A    between atoms: O_5  and  C_6
REMARK                            x       y       z     vdW  Elec       q    Type
REMARK                         _______ _______ _______ _____ _____    ______ ____
ROOT
ATOM      1  C   UNL     1       5.870   5.536  16.431  0.00  0.00    +0.000 A 
ATOM      2  C   UNL     1       4.817   6.426  16.634  0.00  0.00    +0.000 A 
ATOM      3  C   UNL     1       3.835   6.159  17.599  0.00  0.00    +0.000 A 
ATOM      4  C   UNL     1       3.943   5.007  18.405  0.00  0.00    +0.000 A 
ATOM      5  C   UNL     1       5.046   4.176  18.232  0.00  0.00    +0.000 A 
ATOM      6  C   UNL     1       6.027   4.419  17.263  0.00  0.00    +0.000 A 
ATOM      7  N   UNL     1       4.934   3.160  19.155  0.00  0.00    +0.000 N 
ATOM      8  C   UNL     1       3.777   3.289  19.886  0.00  0.00    +0.000 A 
ATOM      9  C   UNL     1       3.254   2.481  20.905  0.00  0.00    +0.000 A 
ATOM     10  C   UNL     1       2.027   2.857  21.464  0.00  0.00    +0.000 A 
ATOM     11  C   UNL     1       1.352   3.992  21.023  0.00  0.00    +0.000 A 
ATOM     12  C   UNL     1       1.892   4.792  20.010  0.00  0.00    +0.000 A 
ATOM     13  C   UNL     1       3.127   4.435  19.431  0.00  0.00    +0.000 A 
ATOM     14  H   UNL     1       5.601   2.412  19.267  0.00  0.00    +0.000 HD
ENDROOT
BRANCH   1  15
ATOM     15  O   UNL     1       6.841   5.680  15.483  0.00  0.00    +0.000 OA
BRANCH  15  17
ATOM     16  F   UNL     1       7.542   5.314  13.291  0.00  0.00    +0.000 F 
ATOM     17  C   UNL     1       6.754   4.892  14.302  0.00  0.00    +0.000 C 
ATOM     18  F   UNL     1       5.473   4.923  13.863  0.00  0.00    +0.000 F 
ATOM     19  F   UNL     1       7.067   3.611  14.594  0.00  0.00    +0.000 F 
ENDBRANCH  15  17
ENDBRANCH   1  15
TORSDOF 2
ENDMDL
MODEL 4
REMARK VINA RESULT:      -7.7      4.422      6.599
REMARK  Name = 
REMARK  2 active torsions:
REMARK  status: ('A' for Active; 'I' for Inactive)
REMARK    1  A    between atoms: C_2  and  O_5
REMARK    2  A    between atoms: O_5  and  C_6
REMARK                            x       y       z     vdW  Elec       q    Type
REMARK                         _______ _______ _______ _____ _____    ______ ____
ROOT
ATOM      1  C   UNL     1       6.484   4.509  16.672  0.00  0.00    +0.000 A 
ATOM      2  C   UNL     1       6.625   5.120  17.916  0.00  0.00    +0.000 A 
ATOM      3  C   UNL     1       5.593   5.053  18.864  0.00  0.00    +0.000 A 
ATOM      4  C   UNL     1       4.426   4.317  18.574  0.00  0.00    +0.000 A 
ATOM      5  C   UNL     1       4.345   3.653  17.354  0.00  0.00    +0.000 A 
ATOM      6  C   UNL     1       5.358   3.722  16.390  0.00  0.00    +0.000 A 
ATOM      7  N   UNL     1       3.140   2.987  17.337  0.00  0.00    +0.000 N 
ATOM      8  C   UNL     1       2.428   3.233  18.487  0.00  0.00    +0.000 A 
ATOM      9  C   UNL     1       1.160   2.786  18.882  0.00  0.00    +0.000 A 
ATOM     10  C   UNL     1       0.677   3.221  20.121  0.00  0.00    +0.000 A 
ATOM     11  C   UNL     1       1.430   4.068  20.931  0.00  0.00    +0.000 A 
ATOM     12  C   UNL     1       2.696   4.500  20.524  0.00  0.00    +0.000 A 
ATOM     13  C   UNL     1       3.206   4.074  19.280  0.00  0.00    +0.000 A 
ATOM     14  H   UNL     1       2.815   2.411  16.576  0.00  0.00    +0.000 HD
ENDROOT
BRANCH   1  15
ATOM     15  O   UNL     1       7.406   4.563  15.667  0.00  0.00    +0.000 OA
BRANCH  15  17
ATOM     16  F   UNL     1       6.569   3.715  13.664  0.00  0.00    +0.000 F 
ATOM     17  C   UNL     1       6.948   4.818  14.345  0.00  0.00    +0.000 C 
ATOM     18  F   UNL     1       7.954   5.401  13.651  0.00  0.00    +0.000 F 
ATOM     19  F   UNL     1       5.912   5.682  14.388  0.00  0.00    +0.000 F 
ENDBRANCH  15  17
ENDBRANCH   1  15
TORSDOF 2
ENDMDL
MODEL 5
REMARK VINA RESULT:      -7.6      4.755      6.647
REMARK  Name = 
REMARK  2 active torsions:
REMARK  status: ('A' for Active; 'I' for Inactive)
REMARK    1  A    between atoms: C_2  and  O_5
REMARK    2  A    between atoms: O_5  and  C_6
REMARK                            x       y       z     vdW  Elec       q    Type
REMARK                         _______ _______ _______ _____ _____    ______ ____
ROOT
ATOM      1  C   UNL     1       5.931   4.640  15.156  0.00  0.00    +0.000 A 
ATOM      2  C   UNL     1       5.510   5.926  15.488  0.00  0.00    +0.000 A 
ATOM      3  C   UNL     1       4.664   6.137  16.586  0.00  0.00    +0.000 A 
ATOM      4  C   UNL     1       4.280   5.047  17.393  0.00  0.00    +0.000 A 
ATOM      5  C   UNL     1       4.778   3.784  17.084  0.00  0.00    +0.000 A 
ATOM      6  C   UNL     1       5.610   3.552  15.981  0.00  0.00    +0.000 A 
ATOM      7  N   UNL     1       4.291   2.915  18.033  0.00  0.00    +0.000 N 
ATOM      8  C   UNL     1       3.466   3.568  18.917  0.00  0.00    +0.000 A 
ATOM      9  C   UNL     1       2.745   3.080  20.016  0.00  0.00    +0.000 A 
ATOM     10  C   UNL     1       1.962   3.991  20.733  0.00  0.00    +0.000 A 
ATOM     11  C   UNL     1       1.903   5.334  20.369  0.00  0.00    +0.000 A 
ATOM     12  C   UNL     1       2.634   5.806  19.273  0.00  0.00    +0.000 A 
ATOM     13  C   UNL     1       3.431   4.908  18.534  0.00  0.00    +0.000 A 
ATOM     14  H   UNL     1       4.496   1.928  18.066  0.00  0.00    +0.000 HD
ENDROOT
BRANCH   1  15
ATOM     15  O   UNL     1       6.708   4.326  14.079  0.00  0.00    +0.000 OA
BRANCH  15  17
ATOM     16  F   UNL     1       4.744   4.011  12.863  0.00  0.00    +0.000 F 
ATOM     17  C   UNL     1       6.075   3.788  12.925  0.00  0.00    +0.000 C 
ATOM     18  F   UNL     1       6.265   2.448  12.919  0.00  0.00    +0.000 F 
ATOM     19  F   UNL     1       6.654   4.299  11.817  0.00  0.00    +0.000 F 
ENDBRANCH  15  17
ENDBRANCH   1  15
TORSDOF 2
ENDMDL
MODEL 6
REMARK VINA RESULT:      -7.5      4.561      5.346
REMARK  Name = 
REMARK  2 active torsions:
REMARK  status: ('A' for Active; 'I' for Inactive)
REMARK    1  A    between atoms: C_2  and  O_5
REMARK    2  A    between atoms: O_5  and  C_6
REMARK                            x       y       z     vdW  Elec       q    Type
REMARK                         _______ _______ _______ _____ _____    ______ ____
ROOT
ATOM      1  C   UNL     1       3.758   4.160  18.758  0.00  0.00    +0.000 A 
ATOM      2  C   UNL     1       4.042   4.911  17.621  0.00  0.00    +0.000 A 
ATOM      3  C   UNL     1       3.566   6.225  17.496  0.00  0.00    +0.000 A 
ATOM      4  C   UNL     1       2.837   6.806  18.554  0.00  0.00    +0.000 A 
ATOM      5  C   UNL     1       2.633   6.059  19.710  0.00  0.00    +0.000 A 
ATOM      6  C   UNL     1       3.088   4.741  19.845  0.00  0.00    +0.000 A 
ATOM      7  N   UNL     1       1.940   6.858  20.591  0.00  0.00    +0.000 N 
ATOM      8  C   UNL     1       1.657   8.078  20.024  0.00  0.00    +0.000 A 
ATOM      9  C   UNL     1       0.960   9.179  20.542  0.00  0.00    +0.000 A 
ATOM     10  C   UNL     1       0.811  10.298  19.716  0.00  0.00    +0.000 A 
ATOM     11  C   UNL     1       1.336  10.316  18.426  0.00  0.00    +0.000 A 
ATOM     12  C   UNL     1       2.034   9.212  17.927  0.00  0.00    +0.000 A 
ATOM     13  C   UNL     1       2.199   8.072  18.740  0.00  0.00    +0.000 A 
ATOM     14  H   UNL     1       1.661   6.581  21.519  0.00  0.00    +0.000 HD
ENDROOT
BRANCH   1  15
ATOM     15  O   UNL     1       4.129   2.861  18.949  0.00  0.00    +0.000 OA
BRANCH  15  17
ATOM     16  F   UNL     1       2.617   2.080  17.356  0.00  0.00    +0.000 F 
ATOM     17  C   UNL     1       3.238   1.835  18.530  0.00  0.00    +0.000 C 
ATOM     18  F   UNL     1       2.279   1.691  19.476  0.00  0.00    +0.000 F 
ATOM     19  F   UNL     1       3.910   0.668  18.433  0.00  0.00    +0.000 F 
ENDBRANCH  15  17
ENDBRANCH   1  15
TORSDOF 2
ENDMDL
MODEL 7
REMARK VINA RESULT:      -7.5      4.485      6.270
REMARK  Name = 
REMARK  2 active torsions:
REMARK  status: ('A' for Active; 'I' for Inactive)
REMARK    1  A    between atoms: C_2  and  O_5
REMARK    2  A    between atoms: O_5  and  C_6
REMARK                            x       y       z     vdW  Elec       q    Type
REMARK                         _______ _______ _______ _____ _____    ______ ____
ROOT
ATOM      1  C   UNL     1       6.550   6.545  17.172  0.00  0.00    +0.000 A 
ATOM      2  C   UNL     1       5.315   6.995  16.712  0.00  0.00    +0.000 A 
ATOM      3  C   UNL     1       4.148   6.260  16.965  0.00  0.00    +0.000 A 
ATOM      4  C   UNL     1       4.219   5.082  17.737  0.00  0.00    +0.000 A 
ATOM      5  C   UNL     1       5.454   4.696  18.249  0.00  0.00    +0.000 A 
ATOM      6  C   UNL     1       6.631   5.410  17.993  0.00  0.00    +0.000 A 
ATOM      7  N   UNL     1       5.245   3.554  18.988  0.00  0.00    +0.000 N 
ATOM      8  C   UNL     1       3.926   3.171  18.934  0.00  0.00    +0.000 A 
ATOM      9  C   UNL     1       3.277   2.071  19.512  0.00  0.00    +0.000 A 
ATOM     10  C   UNL     1       1.907   1.926  19.267  0.00  0.00    +0.000 A 
ATOM     11  C   UNL     1       1.215   2.841  18.477  0.00  0.00    +0.000 A 
ATOM     12  C   UNL     1       1.877   3.937  17.913  0.00  0.00    +0.000 A 
ATOM     13  C   UNL     1       3.258   4.106  18.146  0.00  0.00    +0.000 A 
ATOM     14  H   UNL     1       5.966   3.054  19.486  0.00  0.00    +0.000 HD
ENDROOT
BRANCH   1  15
ATOM     15  O   UNL     1       7.745   7.159  16.932  0.00  0.00    +0.000 OA
BRANCH  15  17
ATOM     16  F   UNL     1       7.057   9.089  18.042  0.00  0.00    +0.000 F 
ATOM     17  C   UNL     1       8.095   8.287  17.724  0.00  0.00    +0.000 C 
ATOM     18  F   UNL     1       8.990   9.032  17.032  0.00  0.00    +0.000 F 
ATOM     19  F   UNL     1       8.688   7.868  18.862  0.00  0.00    +0.000 F 
ENDBRANCH  15  17
ENDBRANCH   1  15
TORSDOF 2
ENDMDL
MODEL 8
REMARK VINA RESULT:      -7.4      4.573      6.628
REMARK  Name = 
REMARK  2 active torsions:
REMARK  status: ('A' for Active; 'I' for Inactive)
REMARK    1  A    between atoms: C_2  and  O_5
REMARK    2  A    between atoms: O_5  and  C_6
REMARK                            x       y       z     vdW  Elec       q    Type
REMARK                         _______ _______ _______ _____ _____    ______ ____
ROOT
ATOM      1  C   UNL     1       6.258   4.997  16.319  0.00  0.00    +0.000 A 
ATOM      2  C   UNL     1       5.825   6.164  16.944  0.00  0.00    +0.000 A 
ATOM      3  C   UNL     1       4.766   6.129  17.864  0.00  0.00    +0.000 A 
ATOM      4  C   UNL     1       4.171   4.895  18.197  0.00  0.00    +0.000 A 
ATOM      5  C   UNL     1       4.676   3.735  17.615  0.00  0.00    +0.000 A 
ATOM      6  C   UNL     1       5.721   3.754  16.683  0.00  0.00    +0.000 A 
ATOM      7  N   UNL     1       3.958   2.680  18.130  0.00  0.00    +0.000 N 
ATOM      8  C   UNL     1       2.984   3.125  18.992  0.00  0.00    +0.000 A 
ATOM      9  C   UNL     1       2.020   2.412  19.717  0.00  0.00    +0.000 A 
ATOM     10  C   UNL     1       1.134   3.146  20.514  0.00  0.00    +0.000 A 
ATOM     11  C   UNL     1       1.209   4.535  20.581  0.00  0.00    +0.000 A 
ATOM     12  C   UNL     1       2.181   5.231  19.855  0.00  0.00    +0.000 A 
ATOM     13  C   UNL     1       3.086   4.514  19.046  0.00  0.00    +0.000 A 
ATOM     14  H   UNL     1       4.112   1.712  17.893  0.00  0.00    +0.000 HD
ENDROOT
BRANCH   1  15
ATOM     15  O   UNL     1       7.241   4.937  15.374  0.00  0.00    +0.000 OA
BRANCH  15  17
ATOM     16  F   UNL     1       5.628   5.255  13.721  0.00  0.00    +0.000 F 
ATOM     17  C   UNL     1       6.859   4.783  14.013  0.00  0.00    +0.000 C 
ATOM     18  F   UNL     1       6.871   3.462  13.714  0.00  0.00    +0.000 F 
ATOM     19  F   UNL     1       7.761   5.400  13.221  0.00  0.00    +0.000 F 
ENDBRANCH  15  17
ENDBRANCH   1  15
TORSDOF 2
ENDMDL
MODEL 9
REMARK VINA RESULT:      -7.3      1.260      1.356
REMARK  Name = 
REMARK  2 active torsions:
REMARK  status: ('A' for Active; 'I' for Inactive)
REMARK    1  A    between atoms: C_2  and  O_5
REMARK    2  A    between atoms: O_5  and  C_6
REMARK                            x       y       z     vdW  Elec       q    Type
REMARK                         _______ _______ _______ _____ _____    ______ ____
ROOT
ATOM      1  C   UNL     1       2.477   4.229  19.996  0.00  0.00    +0.000 A 
ATOM      2  C   UNL     1       1.849   4.634  18.820  0.00  0.00    +0.000 A 
ATOM      3  C   UNL     1       2.598   4.877  17.659  0.00  0.00    +0.000 A 
ATOM      4  C   UNL     1       3.991   4.659  17.669  0.00  0.00    +0.000 A 
ATOM      5  C   UNL     1       4.581   4.181  18.835  0.00  0.00    +0.000 A 
ATOM      6  C   UNL     1       3.851   3.949  20.007  0.00  0.00    +0.000 A 
ATOM      7  N   UNL     1       5.922   4.019  18.572  0.00  0.00    +0.000 N 
ATOM      8  C   UNL     1       6.220   4.414  17.289  0.00  0.00    +0.000 A 
ATOM      9  C   UNL     1       7.446   4.442  16.610  0.00  0.00    +0.000 A 
ATOM     10  C   UNL     1       7.447   4.918  15.295  0.00  0.00    +0.000 A 
ATOM     11  C   UNL     1       6.272   5.349  14.683  0.00  0.00    +0.000 A 
ATOM     12  C   UNL     1       5.056   5.308  15.373  0.00  0.00    +0.000 A 
ATOM     13  C   UNL     1       5.028   4.832  16.700  0.00  0.00    +0.000 A 
ATOM     14  H   UNL     1       6.599   3.675  19.235  0.00  0.00    +0.000 HD
ENDROOT
BRANCH   1  15
ATOM     15  O   UNL     1       1.844   4.021  21.187  0.00  0.00    +0.000 OA
BRANCH  15  17
ATOM     16  F   UNL     1       0.654   2.542  22.538  0.00  0.00    +0.000 F 
ATOM     17  C   UNL     1       1.622   2.681  21.608  0.00  0.00    +0.000 C 
ATOM     18  F   UNL     1       2.772   2.205  22.140  0.00  0.00    +0.000 F 
ATOM     19  F   UNL     1       1.310   1.921  20.536  0.00  0.00    +0.000 F 
ENDBRANCH  15  17
ENDBRANCH   1  15
TORSDOF 2
ENDMDL
