MODEL 1
REMARK VINA RESULT:      -6.9      0.000      0.000
REMARK  Name = 
REMARK  2 active torsions:
REMARK  status: ('A' for Active; 'I' for Inactive)
REMARK    1  A    between atoms: N_9  and  C_10
REMARK    2  A    between atoms: C_11  and  C_12
REMARK                            x       y       z     vdW  Elec       q    Type
REMARK                         _______ _______ _______ _____ _____    ______ ____
ROOT
ATOM      1  O   UNL     1       1.808   3.612  16.800  0.00  0.00    +0.000 OA
ATOM      2  C   UNL     1       2.624   3.529  17.720  0.00  0.00    +0.000 A 
ATOM      3  C   UNL     1       2.176   3.165  19.098  0.00  0.00    +0.000 A 
ATOM      4 CL   UNL     1       0.486   2.871  19.323  0.00  0.00    +0.000 Cl
ATOM      5  C   UNL     1       3.057   3.080  20.095  0.00  0.00    +0.000 A 
ATOM      6 CL   UNL     1       2.706   2.679  21.725  0.00  0.00    +0.000 Cl
ATOM      7  C   UNL     1       4.457   3.355  19.764  0.00  0.00    +0.000 A 
ATOM      8  N   UNL     1       4.909   3.670  18.599  0.00  0.00    +0.000 NA
ATOM      9  N   UNL     1       4.003   3.762  17.565  0.00  0.00    +0.000 N 
ENDROOT
BRANCH   9  10
ATOM     10  C   UNL     1       4.529   4.126  16.331  0.00  0.00    +0.000 C 
ATOM     11  C   UNL     1       5.653   3.614  15.801  0.00  0.00    +0.000 C 
BRANCH  11  12
ATOM     12  C   UNL     1       6.254   4.015  14.520  0.00  0.00    +0.000 A 
ATOM     13  C   UNL     1       7.270   4.983  14.541  0.00  0.00    +0.000 A 
ATOM     14  C   UNL     1       7.888   5.397  13.359  0.00  0.00    +0.000 A 
ATOM     15  C   UNL     1       7.504   4.842  12.142  0.00  0.00    +0.000 A 
ATOM     16  C   UNL     1       6.511   3.862  12.109  0.00  0.00    +0.000 A 
ATOM     17  C   UNL     1       5.893   3.447  13.293  0.00  0.00    +0.000 A 
ENDBRANCH  11  12
ENDBRANCH   9  10
TORSDOF 2
ENDMDL
MODEL 2
REMARK VINA RESULT:      -6.8      1.593      1.983
REMARK  Name = 
REMARK  2 active torsions:
REMARK  status: ('A' for Active; 'I' for Inactive)
REMARK    1  A    between atoms: N_9  and  C_10
REMARK    2  A    between atoms: C_11  and  C_12
REMARK                            x       y       z     vdW  Elec       q    Type
REMARK                         _______ _______ _______ _____ _____    ______ ____
ROOT
ATOM      1  O   UNL     1       3.567   6.555  18.135  0.00  0.00    +0.000 OA
ATOM      2  C   UNL     1       3.621   5.409  18.585  0.00  0.00    +0.000 A 
ATOM      3  C   UNL     1       2.837   5.037  19.802  0.00  0.00    +0.000 A 
ATOM      4 CL   UNL     1       1.869   6.277  20.522  0.00  0.00    +0.000 Cl
ATOM      5  C   UNL     1       2.898   3.799  20.292  0.00  0.00    +0.000 A 
ATOM      6 CL   UNL     1       2.066   3.216  21.674  0.00  0.00    +0.000 Cl
ATOM      7  C   UNL     1       3.758   2.849  19.583  0.00  0.00    +0.000 A 
ATOM      8  N   UNL     1       4.456   3.104  18.531  0.00  0.00    +0.000 NA
ATOM      9  N   UNL     1       4.399   4.383  18.019  0.00  0.00    +0.000 N 
ENDROOT
BRANCH   9  10
ATOM     10  C   UNL     1       5.183   4.621  16.898  0.00  0.00    +0.000 C 
ATOM     11  C   UNL     1       5.057   3.972  15.727  0.00  0.00    +0.000 C 
BRANCH  11  12
ATOM     12  C   UNL     1       5.903   4.174  14.542  0.00  0.00    +0.000 A 
ATOM     13  C   UNL     1       5.551   3.510  13.357  0.00  0.00    +0.000 A 
ATOM     14  C   UNL     1       6.308   3.669  12.194  0.00  0.00    +0.000 A 
ATOM     15  C   UNL     1       7.422   4.504  12.200  0.00  0.00    +0.000 A 
ATOM     16  C   UNL     1       7.771   5.188  13.364  0.00  0.00    +0.000 A 
ATOM     17  C   UNL     1       7.012   5.029  14.528  0.00  0.00    +0.000 A 
ENDBRANCH  11  12
ENDBRANCH   9  10
TORSDOF 2
ENDMDL
MODEL 3
REMARK VINA RESULT:      -6.8      1.576      1.588
REMARK  Name = 
REMARK  2 active torsions:
REMARK  status: ('A' for Active; 'I' for Inactive)
REMARK    1  A    between atoms: N_9  and  C_10
REMARK    2  A    between atoms: C_11  and  C_12
REMARK                            x       y       z     vdW  Elec       q    Type
REMARK                         _______ _______ _______ _____ _____    ______ ____
ROOT
ATOM      1  O   UNL     1       3.363   6.573  18.227  0.00  0.00    +0.000 OA
ATOM      2  C   UNL     1       3.459   5.423  18.660  0.00  0.00    +0.000 A 
ATOM      3  C   UNL     1       2.718   5.015  19.891  0.00  0.00    +0.000 A 
ATOM      4 CL   UNL     1       1.738   6.219  20.655  0.00  0.00    +0.000 Cl
ATOM      5  C   UNL     1       2.825   3.773  20.363  0.00  0.00    +0.000 A 
ATOM      6 CL   UNL     1       2.045   3.150  21.759  0.00  0.00    +0.000 Cl
ATOM      7  C   UNL     1       3.689   2.855  19.619  0.00  0.00    +0.000 A 
ATOM      8  N   UNL     1       4.351   3.142  18.552  0.00  0.00    +0.000 NA
ATOM      9  N   UNL     1       4.247   4.425  18.059  0.00  0.00    +0.000 N 
ENDROOT
BRANCH   9  10
ATOM     10  C   UNL     1       4.995   4.698  16.921  0.00  0.00    +0.000 C 
ATOM     11  C   UNL     1       5.021   3.924  15.822  0.00  0.00    +0.000 C 
BRANCH  11  12
ATOM     12  C   UNL     1       5.838   4.168  14.624  0.00  0.00    +0.000 A 
ATOM     13  C   UNL     1       6.947   5.019  14.743  0.00  0.00    +0.000 A 
ATOM     14  C   UNL     1       7.769   5.282  13.644  0.00  0.00    +0.000 A 
ATOM     15  C   UNL     1       7.497   4.687  12.415  0.00  0.00    +0.000 A 
ATOM     16  C   UNL     1       6.412   3.821  12.288  0.00  0.00    +0.000 A 
ATOM     17  C   UNL     1       5.589   3.557  13.388  0.00  0.00    +0.000 A 
ENDBRANCH  11  12
ENDBRANCH   9  10
TORSDOF 2
ENDMDL
MODEL 4
REMARK VINA RESULT:      -6.8      0.983      1.515
REMARK  Name = 
REMARK  2 active torsions:
REMARK  status: ('A' for Active; 'I' for Inactive)
REMARK    1  A    between atoms: N_9  and  C_10
REMARK    2  A    between atoms: C_11  and  C_12
REMARK                            x       y       z     vdW  Elec       q    Type
REMARK                         _______ _______ _______ _____ _____    ______ ____
ROOT
ATOM      1  O   UNL     1       2.570   2.463  16.864  0.00  0.00    +0.000 OA
ATOM      2  C   UNL     1       3.033   3.212  17.727  0.00  0.00    +0.000 A 
ATOM      3  C   UNL     1       2.275   3.473  18.988  0.00  0.00    +0.000 A 
ATOM      4 CL   UNL     1       0.747   2.681  19.164  0.00  0.00    +0.000 Cl
ATOM      5  C   UNL     1       2.772   4.286  19.919  0.00  0.00    +0.000 A 
ATOM      6 CL   UNL     1       2.029   4.690  21.412  0.00  0.00    +0.000 Cl
ATOM      7  C   UNL     1       4.076   4.891  19.640  0.00  0.00    +0.000 A 
ATOM      8  N   UNL     1       4.781   4.706  18.577  0.00  0.00    +0.000 NA
ATOM      9  N   UNL     1       4.272   3.868  17.609  0.00  0.00    +0.000 N 
ENDROOT
BRANCH   9  10
ATOM     10  C   UNL     1       5.054   3.713  16.471  0.00  0.00    +0.000 C 
ATOM     11  C   UNL     1       5.171   4.632  15.497  0.00  0.00    +0.000 C 
BRANCH  11  12
ATOM     12  C   UNL     1       5.955   4.474  14.263  0.00  0.00    +0.000 A 
ATOM     13  C   UNL     1       5.454   3.623  13.266  0.00  0.00    +0.000 A 
ATOM     14  C   UNL     1       6.146   3.439  12.067  0.00  0.00    +0.000 A 
ATOM     15  C   UNL     1       7.344   4.113  11.846  0.00  0.00    +0.000 A 
ATOM     16  C   UNL     1       7.843   4.979  12.818  0.00  0.00    +0.000 A 
ATOM     17  C   UNL     1       7.149   5.164  14.018  0.00  0.00    +0.000 A 
ENDBRANCH  11  12
ENDBRANCH   9  10
TORSDOF 2
ENDMDL
MODEL 5
REMARK VINA RESULT:      -6.6      1.580      2.097
REMARK  Name = 
REMARK  2 active torsions:
REMARK  status: ('A' for Active; 'I' for Inactive)
REMARK    1  A    between atoms: N_9  and  C_10
REMARK    2  A    between atoms: C_11  and  C_12
REMARK                            x       y       z     vdW  Elec       q    Type
REMARK                         _______ _______ _______ _____ _____    ______ ____
ROOT
ATOM      1  O   UNL     1       3.658   2.155  18.162  0.00  0.00    +0.000 OA
ATOM      2  C   UNL     1       3.415   3.352  18.329  0.00  0.00    +0.000 A 
ATOM      3  C   UNL     1       2.653   3.808  19.531  0.00  0.00    +0.000 A 
ATOM      4 CL   UNL     1       2.148   2.589  20.650  0.00  0.00    +0.000 Cl
ATOM      5  C   UNL     1       2.385   5.101  19.710  0.00  0.00    +0.000 A 
ATOM      6 CL   UNL     1       1.525   5.783  21.029  0.00  0.00    +0.000 Cl
ATOM      7  C   UNL     1       2.873   6.025  18.685  0.00  0.00    +0.000 A 
ATOM      8  N   UNL     1       3.535   5.699  17.629  0.00  0.00    +0.000 NA
ATOM      9  N   UNL     1       3.814   4.363  17.436  0.00  0.00    +0.000 N 
ENDROOT
BRANCH   9  10
ATOM     10  C   UNL     1       4.511   4.052  16.275  0.00  0.00    +0.000 C 
ATOM     11  C   UNL     1       5.319   4.904  15.620  0.00  0.00    +0.000 C 
BRANCH  11  12
ATOM     12  C   UNL     1       6.030   4.613  14.366  0.00  0.00    +0.000 A 
ATOM     13  C   UNL     1       5.457   3.688  13.481  0.00  0.00    +0.000 A 
ATOM     14  C   UNL     1       6.078   3.378  12.268  0.00  0.00    +0.000 A 
ATOM     15  C   UNL     1       7.275   3.998  11.922  0.00  0.00    +0.000 A 
ATOM     16  C   UNL     1       7.845   4.937  12.782  0.00  0.00    +0.000 A 
ATOM     17  C   UNL     1       7.222   5.248  13.996  0.00  0.00    +0.000 A 
ENDBRANCH  11  12
ENDBRANCH   9  10
TORSDOF 2
ENDMDL
MODEL 6
REMARK VINA RESULT:      -6.6      1.502      1.644
REMARK  Name = 
REMARK  2 active torsions:
REMARK  status: ('A' for Active; 'I' for Inactive)
REMARK    1  A    between atoms: N_9  and  C_10
REMARK    2  A    between atoms: C_11  and  C_12
REMARK                            x       y       z     vdW  Elec       q    Type
REMARK                         _______ _______ _______ _____ _____    ______ ____
ROOT
ATOM      1  O   UNL     1       3.597   1.971  17.996  0.00  0.00    +0.000 OA
ATOM      2  C   UNL     1       3.422   3.169  18.229  0.00  0.00    +0.000 A 
ATOM      3  C   UNL     1       2.657   3.599  19.438  0.00  0.00    +0.000 A 
ATOM      4 CL   UNL     1       2.049   2.351  20.469  0.00  0.00    +0.000 Cl
ATOM      5  C   UNL     1       2.463   4.894  19.689  0.00  0.00    +0.000 A 
ATOM      6 CL   UNL     1       1.611   5.550  21.025  0.00  0.00    +0.000 Cl
ATOM      7  C   UNL     1       3.033   5.845  18.732  0.00  0.00    +0.000 A 
ATOM      8  N   UNL     1       3.703   5.540  17.674  0.00  0.00    +0.000 NA
ATOM      9  N   UNL     1       3.905   4.203  17.408  0.00  0.00    +0.000 N 
ENDROOT
BRANCH   9  10
ATOM     10  C   UNL     1       4.613   3.919  16.247  0.00  0.00    +0.000 C 
ATOM     11  C   UNL     1       5.269   4.832  15.510  0.00  0.00    +0.000 C 
BRANCH  11  12
ATOM     12  C   UNL     1       5.986   4.564  14.255  0.00  0.00    +0.000 A 
ATOM     13  C   UNL     1       7.182   5.258  14.016  0.00  0.00    +0.000 A 
ATOM     14  C   UNL     1       7.915   5.039  12.847  0.00  0.00    +0.000 A 
ATOM     15  C   UNL     1       7.467   4.114  11.908  0.00  0.00    +0.000 A 
ATOM     16  C   UNL     1       6.292   3.401  12.143  0.00  0.00    +0.000 A 
ATOM     17  C   UNL     1       5.558   3.620  13.314  0.00  0.00    +0.000 A 
ENDBRANCH  11  12
ENDBRANCH   9  10
TORSDOF 2
ENDMDL
MODEL 7
REMARK VINA RESULT:      -6.4      5.561      6.237
REMARK  Name = 
REMARK  2 active torsions:
REMARK  status: ('A' for Active; 'I' for Inactive)
REMARK    1  A    between atoms: N_9  and  C_10
REMARK    2  A    between atoms: C_11  and  C_12
REMARK                            x       y       z     vdW  Elec       q    Type
REMARK                         _______ _______ _______ _____ _____    ______ ____
ROOT
ATOM      1  O   UNL     1       0.363  10.021  18.112  0.00  0.00    +0.000 OA
ATOM      2  C   UNL     1       0.537   9.657  19.276  0.00  0.00    +0.000 A 
ATOM      3  C   UNL     1      -0.234  10.290  20.389  0.00  0.00    +0.000 A 
ATOM      4 CL   UNL     1      -1.359  11.532  19.959  0.00  0.00    +0.000 Cl
ATOM      5  C   UNL     1      -0.044   9.900  21.650  0.00  0.00    +0.000 A 
ATOM      6 CL   UNL     1      -0.843  10.525  23.033  0.00  0.00    +0.000 Cl
ATOM      7  C   UNL     1       0.940   8.839  21.872  0.00  0.00    +0.000 A 
ATOM      8  N   UNL     1       1.634   8.251  20.959  0.00  0.00    +0.000 NA
ATOM      9  N   UNL     1       1.444   8.650  19.654  0.00  0.00    +0.000 N 
ENDROOT
BRANCH   9  10
ATOM     10  C   UNL     1       2.228   8.007  18.704  0.00  0.00    +0.000 C 
ATOM     11  C   UNL     1       2.642   6.731  18.795  0.00  0.00    +0.000 C 
BRANCH  11  12
ATOM     12  C   UNL     1       3.508   6.042  17.828  0.00  0.00    +0.000 A 
ATOM     13  C   UNL     1       4.385   6.819  17.057  0.00  0.00    +0.000 A 
ATOM     14  C   UNL     1       5.242   6.224  16.128  0.00  0.00    +0.000 A 
ATOM     15  C   UNL     1       5.239   4.841  15.967  0.00  0.00    +0.000 A 
ATOM     16  C   UNL     1       4.388   4.054  16.742  0.00  0.00    +0.000 A 
ATOM     17  C   UNL     1       3.531   4.651  17.673  0.00  0.00    +0.000 A 
ENDBRANCH  11  12
ENDBRANCH   9  10
TORSDOF 2
ENDMDL
MODEL 8
REMARK VINA RESULT:      -6.3      5.505      6.217
REMARK  Name = 
REMARK  2 active torsions:
REMARK  status: ('A' for Active; 'I' for Inactive)
REMARK    1  A    between atoms: N_9  and  C_10
REMARK    2  A    between atoms: C_11  and  C_12
REMARK                            x       y       z     vdW  Elec       q    Type
REMARK                         _______ _______ _______ _____ _____    ______ ____
ROOT
ATOM      1  O   UNL     1       0.487  10.081  18.046  0.00  0.00    +0.000 OA
ATOM      2  C   UNL     1       0.631   9.658  19.195  0.00  0.00    +0.000 A 
ATOM      3  C   UNL     1      -0.104  10.292  20.332  0.00  0.00    +0.000 A 
ATOM      4 CL   UNL     1      -1.146  11.618  19.951  0.00  0.00    +0.000 Cl
ATOM      5  C   UNL     1       0.056   9.839  21.575  0.00  0.00    +0.000 A 
ATOM      6 CL   UNL     1      -0.709  10.454  22.982  0.00  0.00    +0.000 Cl
ATOM      7  C   UNL     1       0.970   8.710  21.755  0.00  0.00    +0.000 A 
ATOM      8  N   UNL     1       1.630   8.118  20.820  0.00  0.00    +0.000 NA
ATOM      9  N   UNL     1       1.472   8.582  19.532  0.00  0.00    +0.000 N 
ENDROOT
BRANCH   9  10
ATOM     10  C   UNL     1       2.218   7.930  18.559  0.00  0.00    +0.000 C 
ATOM     11  C   UNL     1       2.898   6.787  18.757  0.00  0.00    +0.000 C 
BRANCH  11  12
ATOM     12  C   UNL     1       3.730   6.103  17.756  0.00  0.00    +0.000 A 
ATOM     13  C   UNL     1       3.598   4.713  17.626  0.00  0.00    +0.000 A 
ATOM     14  C   UNL     1       4.352   4.007  16.686  0.00  0.00    +0.000 A 
ATOM     15  C   UNL     1       5.242   4.685  15.858  0.00  0.00    +0.000 A 
ATOM     16  C   UNL     1       5.368   6.070  15.961  0.00  0.00    +0.000 A 
ATOM     17  C   UNL     1       4.611   6.777  16.901  0.00  0.00    +0.000 A 
ENDBRANCH  11  12
ENDBRANCH   9  10
TORSDOF 2
ENDMDL
MODEL 9
REMARK VINA RESULT:      -6.3      5.781      8.420
REMARK  Name = 
REMARK  2 active torsions:
REMARK  status: ('A' for Active; 'I' for Inactive)
REMARK    1  A    between atoms: N_9  and  C_10
REMARK    2  A    between atoms: C_11  and  C_12
REMARK                            x       y       z     vdW  Elec       q    Type
REMARK                         _______ _______ _______ _____ _____    ______ ____
ROOT
ATOM      1  O   UNL     1       3.384   7.388  17.900  0.00  0.00    +0.000 OA
ATOM      2  C   UNL     1       3.092   6.429  18.616  0.00  0.00    +0.000 A 
ATOM      3  C   UNL     1       3.556   5.053  18.264  0.00  0.00    +0.000 A 
ATOM      4 CL   UNL     1       4.507   4.888  16.829  0.00  0.00    +0.000 Cl
ATOM      5  C   UNL     1       3.236   4.014  19.035  0.00  0.00    +0.000 A 
ATOM      6 CL   UNL     1       3.685   2.380  18.769  0.00  0.00    +0.000 Cl
ATOM      7  C   UNL     1       2.424   4.296  20.221  0.00  0.00    +0.000 A 
ATOM      8  N   UNL     1       1.995   5.456  20.582  0.00  0.00    +0.000 NA
ATOM      9  N   UNL     1       2.321   6.535  19.788  0.00  0.00    +0.000 N 
ENDROOT
BRANCH   9  10
ATOM     10  C   UNL     1       1.820   7.763  20.202  0.00  0.00    +0.000 C 
ATOM     11  C   UNL     1       0.969   7.932  21.229  0.00  0.00    +0.000 C 
BRANCH  11  12
ATOM     12  C   UNL     1       0.390   9.214  21.657  0.00  0.00    +0.000 A 
ATOM     13  C   UNL     1       0.659  10.352  20.881  0.00  0.00    +0.000 A 
ATOM     14  C   UNL     1       0.129  11.597  21.228  0.00  0.00    +0.000 A 
ATOM     15  C   UNL     1      -0.685  11.717  22.350  0.00  0.00    +0.000 A 
ATOM     16  C   UNL     1      -0.980  10.590  23.118  0.00  0.00    +0.000 A 
ATOM     17  C   UNL     1      -0.450   9.344  22.769  0.00  0.00    +0.000 A 
ENDBRANCH  11  12
ENDBRANCH   9  10
TORSDOF 2
ENDMDL
