MODEL 1
REMARK VINA RESULT:      -8.1      0.000      0.000
REMARK  Name = 
REMARK  9 active torsions:
REMARK  status: ('A' for Active; 'I' for Inactive)
REMARK    1  A    between atoms: C_1  and  C_2
REMARK    2  A    between atoms: C_6  and  C_7
REMARK    3  A    between atoms: C_7  and  C_8
REMARK    4  A    between atoms: N_15  and  C_16
REMARK    5  A    between atoms: C_16  and  C_17
REMARK    6  A    between atoms: C_16  and  C_27
REMARK    7  A    between atoms: N_19  and  C_20
REMARK    8  A    between atoms: C_20  and  C_21
REMARK    9  A    between atoms: C_35  and  C_36
REMARK                            x       y       z     vdW  Elec       q    Type
REMARK                         _______ _______ _______ _____ _____    ______ ____
ROOT
ATOM      1  C   UNL     1      -2.754  14.880  25.151  0.00  0.00    +0.000 C 
ATOM      2  C   UNL     1      -2.245  14.095  23.970  0.00  0.00    +0.000 A 
ATOM      3  C   UNL     1      -0.922  14.296  23.535  0.00  0.00    +0.000 A 
ATOM      4  C   UNL     1      -0.449  13.597  22.414  0.00  0.00    +0.000 A 
ATOM      5  N   UNL     1       0.758  13.695  21.777  0.00  0.00    +0.000 NA
ATOM      6  C   UNL     1       0.704  12.873  20.744  0.00  0.00    +0.000 A 
ATOM      7  N   UNL     1      -0.483  12.153  20.760  0.00  0.00    +0.000 N 
ATOM      8  C   UNL     1      -1.259  12.667  21.787  0.00  0.00    +0.000 A 
ATOM      9  C   UNL     1      -2.573  12.419  22.217  0.00  0.00    +0.000 A 
ATOM     10  C   UNL     1      -3.079  13.193  23.278  0.00  0.00    +0.000 A 
ATOM     11  C   UNL     1      -4.537  13.055  23.632  0.00  0.00    +0.000 C 
ENDROOT
BRANCH   6  12
ATOM     12  C   UNL     1       1.796  12.773  19.712  0.00  0.00    +0.000 C 
BRANCH  12  13
ATOM     13  C   UNL     1       2.138  14.093  19.044  0.00  0.00    +0.000 A 
ATOM     14  C   UNL     1       1.270  15.198  19.081  0.00  0.00    +0.000 A 
ATOM     15  C   UNL     1       1.550  16.340  18.328  0.00  0.00    +0.000 A 
ATOM     16  C   UNL     1       2.715  16.395  17.573  0.00  0.00    +0.000 A 
ATOM     17  F   UNL     1       2.945  17.458  16.792  0.00  0.00    +0.000 F 
ATOM     18  C   UNL     1       3.636  15.358  17.607  0.00  0.00    +0.000 A 
ATOM     19  C   UNL     1       3.357  14.215  18.358  0.00  0.00    +0.000 A 
ENDBRANCH  12  13
ENDBRANCH   6  12
BRANCH   7  20
ATOM     20  C   UNL     1      -0.918  11.059  19.875  0.00  0.00    +0.000 C 
BRANCH  20  21
ATOM     21  C   UNL     1       0.162  10.023  19.543  0.00  0.00    +0.000 A 
ATOM     22  C   UNL     1       0.736   9.159  20.491  0.00  0.00    +0.000 A 
ATOM     23  C   UNL     1       1.737   8.254  20.123  0.00  0.00    +0.000 A 
ATOM     24  C   UNL     1       2.157   8.166  18.798  0.00  0.00    +0.000 A 
ATOM     25  C   UNL     1       1.557   8.964  17.832  0.00  0.00    +0.000 A 
ATOM     26  C   UNL     1       0.562   9.871  18.199  0.00  0.00    +0.000 A 
ENDBRANCH  20  21
BRANCH  20  27
ATOM     27  C   UNL     1      -1.704  11.582  18.657  0.00  0.00    +0.000 C 
ATOM     28  O   UNL     1      -1.282  12.467  17.912  0.00  0.00    +0.000 OA
ATOM     29  N   UNL     1      -2.891  10.919  18.394  0.00  0.00    +0.000 N 
ATOM     30  H   UNL     1      -3.262  10.255  19.061  0.00  0.00    +0.000 HD
BRANCH  29  31
ATOM     31  C   UNL     1      -3.702  11.248  17.241  0.00  0.00    +0.000 C 
BRANCH  31  32
ATOM     32  C   UNL     1      -5.103  11.653  17.628  0.00  0.00    +0.000 A 
ATOM     33  C   UNL     1      -5.745  11.085  18.730  0.00  0.00    +0.000 A 
ATOM     34  C   UNL     1      -7.018  11.529  19.070  0.00  0.00    +0.000 A 
ATOM     35  N   UNL     1      -7.688  12.482  18.390  0.00  0.00    +0.000 NA
ATOM     36  C   UNL     1      -7.058  13.015  17.321  0.00  0.00    +0.000 A 
ATOM     37  C   UNL     1      -5.789  12.634  16.904  0.00  0.00    +0.000 A 
ENDBRANCH  31  32
ENDBRANCH  29  31
ENDBRANCH  20  27
ENDBRANCH   7  20
TORSDOF 7
ENDMDL
MODEL 2
REMARK VINA RESULT:      -7.8      3.327      7.404
REMARK  Name = 
REMARK  9 active torsions:
REMARK  status: ('A' for Active; 'I' for Inactive)
REMARK    1  A    between atoms: C_1  and  C_2
REMARK    2  A    between atoms: C_6  and  C_7
REMARK    3  A    between atoms: C_7  and  C_8
REMARK    4  A    between atoms: N_15  and  C_16
REMARK    5  A    between atoms: C_16  and  C_17
REMARK    6  A    between atoms: C_16  and  C_27
REMARK    7  A    between atoms: N_19  and  C_20
REMARK    8  A    between atoms: C_20  and  C_21
REMARK    9  A    between atoms: C_35  and  C_36
REMARK                            x       y       z     vdW  Elec       q    Type
REMARK                         _______ _______ _______ _____ _____    ______ ____
ROOT
ATOM      1  C   UNL     1       2.704  16.560  19.926  0.00  0.00    +0.000 C 
ATOM      2  C   UNL     1       2.072  15.210  19.706  0.00  0.00    +0.000 A 
ATOM      3  C   UNL     1       0.975  15.103  18.832  0.00  0.00    +0.000 A 
ATOM      4  C   UNL     1       0.355  13.858  18.648  0.00  0.00    +0.000 A 
ATOM      5  N   UNL     1      -0.758  13.543  17.918  0.00  0.00    +0.000 NA
ATOM      6  C   UNL     1      -0.974  12.252  18.103  0.00  0.00    +0.000 A 
ATOM      7  N   UNL     1       0.050  11.693  18.855  0.00  0.00    +0.000 N 
ATOM      8  C   UNL     1       0.867  12.733  19.271  0.00  0.00    +0.000 A 
ATOM      9  C   UNL     1       1.980  12.801  20.124  0.00  0.00    +0.000 A 
ATOM     10  C   UNL     1       2.538  14.065  20.386  0.00  0.00    +0.000 A 
ATOM     11  C   UNL     1       3.620  14.168  21.430  0.00  0.00    +0.000 C 
ENDROOT
BRANCH   6  12
ATOM     12  C   UNL     1      -2.182  11.533  17.563  0.00  0.00    +0.000 C 
BRANCH  12  13
ATOM     13  C   UNL     1      -3.424  11.679  18.424  0.00  0.00    +0.000 A 
ATOM     14  C   UNL     1      -4.676  11.181  18.024  0.00  0.00    +0.000 A 
ATOM     15  C   UNL     1      -5.820  11.469  18.770  0.00  0.00    +0.000 A 
ATOM     16  C   UNL     1      -5.709  12.217  19.935  0.00  0.00    +0.000 A 
ATOM     17  F   UNL     1      -6.816  12.557  20.608  0.00  0.00    +0.000 F 
ATOM     18  C   UNL     1      -4.470  12.627  20.404  0.00  0.00    +0.000 A 
ATOM     19  C   UNL     1      -3.325  12.342  19.658  0.00  0.00    +0.000 A 
ENDBRANCH  12  13
ENDBRANCH   6  12
BRANCH   7  20
ATOM     20  C   UNL     1       0.279  10.282  19.209  0.00  0.00    +0.000 C 
BRANCH  20  21
ATOM     21  C   UNL     1       0.289   9.981  20.712  0.00  0.00    +0.000 A 
ATOM     22  C   UNL     1       1.301   9.252  21.358  0.00  0.00    +0.000 A 
ATOM     23  C   UNL     1       1.233   8.993  22.732  0.00  0.00    +0.000 A 
ATOM     24  C   UNL     1       0.176   9.487  23.491  0.00  0.00    +0.000 A 
ATOM     25  C   UNL     1      -0.802  10.266  22.886  0.00  0.00    +0.000 A 
ATOM     26  C   UNL     1      -0.738  10.521  21.515  0.00  0.00    +0.000 A 
ENDBRANCH  20  21
BRANCH  20  27
ATOM     27  C   UNL     1       1.457   9.675  18.424  0.00  0.00    +0.000 C 
ATOM     28  O   UNL     1       2.127  10.314  17.612  0.00  0.00    +0.000 OA
ATOM     29  N   UNL     1       1.780   8.371  18.760  0.00  0.00    +0.000 N 
ATOM     30  H   UNL     1       1.170   7.835  19.365  0.00  0.00    +0.000 HD
BRANCH  29  31
ATOM     31  C   UNL     1       2.909   7.691  18.161  0.00  0.00    +0.000 C 
BRANCH  31  32
ATOM     32  C   UNL     1       3.099   6.302  18.721  0.00  0.00    +0.000 A 
ATOM     33  C   UNL     1       4.003   5.407  18.148  0.00  0.00    +0.000 A 
ATOM     34  C   UNL     1       4.173   4.157  18.733  0.00  0.00    +0.000 A 
ATOM     35  N   UNL     1       3.504   3.742  19.829  0.00  0.00    +0.000 NA
ATOM     36  C   UNL     1       2.625   4.616  20.365  0.00  0.00    +0.000 A 
ATOM     37  C   UNL     1       2.387   5.885  19.851  0.00  0.00    +0.000 A 
ENDBRANCH  31  32
ENDBRANCH  29  31
ENDBRANCH  20  27
ENDBRANCH   7  20
TORSDOF 7
ENDMDL
MODEL 3
REMARK VINA RESULT:      -7.8      5.669     10.354
REMARK  Name = 
REMARK  9 active torsions:
REMARK  status: ('A' for Active; 'I' for Inactive)
REMARK    1  A    between atoms: C_1  and  C_2
REMARK    2  A    between atoms: C_6  and  C_7
REMARK    3  A    between atoms: C_7  and  C_8
REMARK    4  A    between atoms: N_15  and  C_16
REMARK    5  A    between atoms: C_16  and  C_17
REMARK    6  A    between atoms: C_16  and  C_27
REMARK    7  A    between atoms: N_19  and  C_20
REMARK    8  A    between atoms: C_20  and  C_21
REMARK    9  A    between atoms: C_35  and  C_36
REMARK                            x       y       z     vdW  Elec       q    Type
REMARK                         _______ _______ _______ _____ _____    ______ ____
ROOT
ATOM      1  C   UNL     1       2.095   2.732  21.445  0.00  0.00    +0.000 C 
ATOM      2  C   UNL     1       2.753   3.703  20.499  0.00  0.00    +0.000 A 
ATOM      3  C   UNL     1       2.170   4.969  20.305  0.00  0.00    +0.000 A 
ATOM      4  C   UNL     1       2.754   5.867  19.398  0.00  0.00    +0.000 A 
ATOM      5  N   UNL     1       2.320   7.101  19.000  0.00  0.00    +0.000 NA
ATOM      6  C   UNL     1       3.181   7.527  18.093  0.00  0.00    +0.000 A 
ATOM      7  N   UNL     1       4.238   6.634  17.974  0.00  0.00    +0.000 N 
ATOM      8  C   UNL     1       3.932   5.531  18.755  0.00  0.00    +0.000 A 
ATOM      9  C   UNL     1       4.555   4.288  18.951  0.00  0.00    +0.000 A 
ATOM     10  C   UNL     1       3.916   3.350  19.783  0.00  0.00    +0.000 A 
ATOM     11  C   UNL     1       4.486   1.958  19.863  0.00  0.00    +0.000 C 
ENDROOT
BRANCH   6  12
ATOM     12  C   UNL     1       2.996   8.803  17.314  0.00  0.00    +0.000 C 
BRANCH  12  13
ATOM     13  C   UNL     1       1.931   9.723  17.882  0.00  0.00    +0.000 A 
ATOM     14  C   UNL     1       0.576   9.353  17.945  0.00  0.00    +0.000 A 
ATOM     15  C   UNL     1      -0.391  10.282  18.331  0.00  0.00    +0.000 A 
ATOM     16  C   UNL     1      -0.003  11.566  18.693  0.00  0.00    +0.000 A 
ATOM     17  F   UNL     1      -0.938  12.478  18.989  0.00  0.00    +0.000 F 
ATOM     18  C   UNL     1       1.337  11.919  18.741  0.00  0.00    +0.000 A 
ATOM     19  C   UNL     1       2.306  10.992  18.353  0.00  0.00    +0.000 A 
ENDBRANCH  12  13
ENDBRANCH   6  12
BRANCH   7  20
ATOM     20  C   UNL     1       5.469   6.754  17.173  0.00  0.00    +0.000 C 
BRANCH  20  21
ATOM     21  C   UNL     1       5.644   5.685  16.088  0.00  0.00    +0.000 A 
ATOM     22  C   UNL     1       4.626   4.806  15.682  0.00  0.00    +0.000 A 
ATOM     23  C   UNL     1       4.865   3.837  14.702  0.00  0.00    +0.000 A 
ATOM     24  C   UNL     1       6.109   3.750  14.083  0.00  0.00    +0.000 A 
ATOM     25  C   UNL     1       7.110   4.652  14.421  0.00  0.00    +0.000 A 
ATOM     26  C   UNL     1       6.875   5.616  15.402  0.00  0.00    +0.000 A 
ENDBRANCH  20  21
BRANCH  20  27
ATOM     27  C   UNL     1       6.710   6.985  18.056  0.00  0.00    +0.000 C 
ATOM     28  O   UNL     1       7.135   6.150  18.854  0.00  0.00    +0.000 OA
ATOM     29  N   UNL     1       7.383   8.173  17.824  0.00  0.00    +0.000 N 
ATOM     30  H   UNL     1       6.976   8.882  17.228  0.00  0.00    +0.000 HD
BRANCH  29  31
ATOM     31  C   UNL     1       8.609   8.498  18.524  0.00  0.00    +0.000 C 
BRANCH  31  32
ATOM     32  C   UNL     1       8.843   9.986  18.599  0.00  0.00    +0.000 A 
ATOM     33  C   UNL     1       8.326  10.852  17.635  0.00  0.00    +0.000 A 
ATOM     34  C   UNL     1       8.532  12.220  17.780  0.00  0.00    +0.000 A 
ATOM     35  N   UNL     1       9.218  12.773  18.801  0.00  0.00    +0.000 NA
ATOM     36  C   UNL     1       9.721  11.921  19.721  0.00  0.00    +0.000 A 
ATOM     37  C   UNL     1       9.568  10.542  19.660  0.00  0.00    +0.000 A 
ENDBRANCH  31  32
ENDBRANCH  29  31
ENDBRANCH  20  27
ENDBRANCH   7  20
TORSDOF 7
ENDMDL
MODEL 4
REMARK VINA RESULT:      -7.7      3.026      6.706
REMARK  Name = 
REMARK  9 active torsions:
REMARK  status: ('A' for Active; 'I' for Inactive)
REMARK    1  A    between atoms: C_1  and  C_2
REMARK    2  A    between atoms: C_6  and  C_7
REMARK    3  A    between atoms: C_7  and  C_8
REMARK    4  A    between atoms: N_15  and  C_16
REMARK    5  A    between atoms: C_16  and  C_17
REMARK    6  A    between atoms: C_16  and  C_27
REMARK    7  A    between atoms: N_19  and  C_20
REMARK    8  A    between atoms: C_20  and  C_21
REMARK    9  A    between atoms: C_35  and  C_36
REMARK                            x       y       z     vdW  Elec       q    Type
REMARK                         _______ _______ _______ _____ _____    ______ ____
ROOT
ATOM      1  C   UNL     1       3.603  15.522  17.759  0.00  0.00    +0.000 C 
ATOM      2  C   UNL     1       2.783  14.308  18.108  0.00  0.00    +0.000 A 
ATOM      3  C   UNL     1       3.224  13.041  17.685  0.00  0.00    +0.000 A 
ATOM      4  C   UNL     1       2.448  11.907  17.972  0.00  0.00    +0.000 A 
ATOM      5  N   UNL     1       2.641  10.607  17.595  0.00  0.00    +0.000 NA
ATOM      6  C   UNL     1       1.612   9.924  18.066  0.00  0.00    +0.000 A 
ATOM      7  N   UNL     1       0.804  10.742  18.845  0.00  0.00    +0.000 N 
ATOM      8  C   UNL     1       1.295  12.033  18.727  0.00  0.00    +0.000 A 
ATOM      9  C   UNL     1       0.845  13.279  19.191  0.00  0.00    +0.000 A 
ATOM     10  C   UNL     1       1.569  14.426  18.817  0.00  0.00    +0.000 A 
ATOM     11  C   UNL     1       1.000  15.777  19.165  0.00  0.00    +0.000 C 
ENDROOT
BRANCH   6  12
ATOM     12  C   UNL     1       1.384   8.466  17.765  0.00  0.00    +0.000 C 
BRANCH  12  13
ATOM     13  C   UNL     1       2.517   7.559  18.208  0.00  0.00    +0.000 A 
ATOM     14  C   UNL     1       3.680   7.381  17.438  0.00  0.00    +0.000 A 
ATOM     15  C   UNL     1       4.628   6.424  17.803  0.00  0.00    +0.000 A 
ATOM     16  C   UNL     1       4.438   5.676  18.958  0.00  0.00    +0.000 A 
ATOM     17  F   UNL     1       5.309   4.707  19.266  0.00  0.00    +0.000 F 
ATOM     18  C   UNL     1       3.352   5.911  19.789  0.00  0.00    +0.000 A 
ATOM     19  C   UNL     1       2.401   6.865  19.424  0.00  0.00    +0.000 A 
ENDBRANCH  12  13
ENDBRANCH   6  12
BRANCH   7  20
ATOM     20  C   UNL     1      -0.378  10.386  19.647  0.00  0.00    +0.000 C 
BRANCH  20  21
ATOM     21  C   UNL     1      -1.727  10.744  19.013  0.00  0.00    +0.000 A 
ATOM     22  C   UNL     1      -2.503  11.851  19.396  0.00  0.00    +0.000 A 
ATOM     23  C   UNL     1      -3.739  12.104  18.790  0.00  0.00    +0.000 A 
ATOM     24  C   UNL     1      -4.205  11.281  17.768  0.00  0.00    +0.000 A 
ATOM     25  C   UNL     1      -3.424  10.220  17.328  0.00  0.00    +0.000 A 
ATOM     26  C   UNL     1      -2.194   9.964  17.934  0.00  0.00    +0.000 A 
ENDBRANCH  20  21
BRANCH  20  27
ATOM     27  C   UNL     1      -0.225  10.814  21.119  0.00  0.00    +0.000 C 
ATOM     28  O   UNL     1       0.803  10.633  21.771  0.00  0.00    +0.000 OA
ATOM     29  N   UNL     1      -1.301  11.511  21.645  0.00  0.00    +0.000 N 
ATOM     30  H   UNL     1      -2.167  11.577  21.126  0.00  0.00    +0.000 HD
BRANCH  29  31
ATOM     31  C   UNL     1      -1.274  12.043  22.991  0.00  0.00    +0.000 C 
BRANCH  31  32
ATOM     32  C   UNL     1      -2.435  12.969  23.259  0.00  0.00    +0.000 A 
ATOM     33  C   UNL     1      -3.665  12.481  23.703  0.00  0.00    +0.000 A 
ATOM     34  C   UNL     1      -4.686  13.383  23.980  0.00  0.00    +0.000 A 
ATOM     35  N   UNL     1      -4.567  14.719  23.838  0.00  0.00    +0.000 NA
ATOM     36  C   UNL     1      -3.375  15.175  23.398  0.00  0.00    +0.000 A 
ATOM     37  C   UNL     1      -2.298  14.352  23.094  0.00  0.00    +0.000 A 
ENDBRANCH  31  32
ENDBRANCH  29  31
ENDBRANCH  20  27
ENDBRANCH   7  20
TORSDOF 7
ENDMDL
MODEL 5
REMARK VINA RESULT:      -7.6      2.780      5.636
REMARK  Name = 
REMARK  9 active torsions:
REMARK  status: ('A' for Active; 'I' for Inactive)
REMARK    1  A    between atoms: C_1  and  C_2
REMARK    2  A    between atoms: C_6  and  C_7
REMARK    3  A    between atoms: C_7  and  C_8
REMARK    4  A    between atoms: N_15  and  C_16
REMARK    5  A    between atoms: C_16  and  C_17
REMARK    6  A    between atoms: C_16  and  C_27
REMARK    7  A    between atoms: N_19  and  C_20
REMARK    8  A    between atoms: C_20  and  C_21
REMARK    9  A    between atoms: C_35  and  C_36
REMARK                            x       y       z     vdW  Elec       q    Type
REMARK                         _______ _______ _______ _____ _____    ______ ____
ROOT
ATOM      1  C   UNL     1       4.202  16.161  18.384  0.00  0.00    +0.000 C 
ATOM      2  C   UNL     1       3.176  15.074  18.570  0.00  0.00    +0.000 A 
ATOM      3  C   UNL     1       3.482  13.766  18.149  0.00  0.00    +0.000 A 
ATOM      4  C   UNL     1       2.521  12.753  18.284  0.00  0.00    +0.000 A 
ATOM      5  N   UNL     1       2.573  11.449  17.875  0.00  0.00    +0.000 NA
ATOM      6  C   UNL     1       1.404  10.914  18.180  0.00  0.00    +0.000 A 
ATOM      7  N   UNL     1       0.626  11.822  18.887  0.00  0.00    +0.000 N 
ATOM      8  C   UNL     1       1.308  13.028  18.891  0.00  0.00    +0.000 A 
ATOM      9  C   UNL     1       0.985  14.315  19.352  0.00  0.00    +0.000 A 
ATOM     10  C   UNL     1       1.910  15.351  19.125  0.00  0.00    +0.000 A 
ATOM     11  C   UNL     1       1.500  16.762  19.460  0.00  0.00    +0.000 C 
ENDROOT
BRANCH   6  12
ATOM     12  C   UNL     1       1.010   9.515  17.786  0.00  0.00    +0.000 C 
BRANCH  12  13
ATOM     13  C   UNL     1       2.033   8.457  18.156  0.00  0.00    +0.000 A 
ATOM     14  C   UNL     1       3.077   8.088  17.290  0.00  0.00    +0.000 A 
ATOM     15  C   UNL     1       3.905   7.008  17.602  0.00  0.00    +0.000 A 
ATOM     16  C   UNL     1       3.718   6.324  18.796  0.00  0.00    +0.000 A 
ATOM     17  F   UNL     1       4.461   5.242  19.059  0.00  0.00    +0.000 F 
ATOM     18  C   UNL     1       2.764   6.739  19.714  0.00  0.00    +0.000 A 
ATOM     19  C   UNL     1       1.934   7.817  19.403  0.00  0.00    +0.000 A 
ENDBRANCH  12  13
ENDBRANCH   6  12
BRANCH   7  20
ATOM     20  C   UNL     1      -0.690  11.624  19.517  0.00  0.00    +0.000 C 
BRANCH  20  21
ATOM     21  C   UNL     1      -0.663  10.900  20.868  0.00  0.00    +0.000 A 
ATOM     22  C   UNL     1      -0.017   9.671  21.085  0.00  0.00    +0.000 A 
ATOM     23  C   UNL     1      -0.055   9.053  22.340  0.00  0.00    +0.000 A 
ATOM     24  C   UNL     1      -0.703   9.666  23.409  0.00  0.00    +0.000 A 
ATOM     25  C   UNL     1      -1.292  10.912  23.234  0.00  0.00    +0.000 A 
ATOM     26  C   UNL     1      -1.260  11.527  21.982  0.00  0.00    +0.000 A 
ENDBRANCH  20  21
BRANCH  20  27
ATOM     27  C   UNL     1      -1.731  11.083  18.518  0.00  0.00    +0.000 C 
ATOM     28  O   UNL     1      -1.717   9.929  18.088  0.00  0.00    +0.000 OA
ATOM     29  N   UNL     1      -2.754  11.960  18.199  0.00  0.00    +0.000 N 
ATOM     30  H   UNL     1      -2.705  12.927  18.494  0.00  0.00    +0.000 HD
BRANCH  29  31
ATOM     31  C   UNL     1      -3.845  11.569  17.332  0.00  0.00    +0.000 C 
BRANCH  31  32
ATOM     32  C   UNL     1      -5.184  12.011  17.869  0.00  0.00    +0.000 A 
ATOM     33  C   UNL     1      -6.106  12.678  17.061  0.00  0.00    +0.000 A 
ATOM     34  C   UNL     1      -7.344  13.020  17.594  0.00  0.00    +0.000 A 
ATOM     35  N   UNL     1      -7.715  12.753  18.863  0.00  0.00    +0.000 NA
ATOM     36  C   UNL     1      -6.809  12.116  19.635  0.00  0.00    +0.000 A 
ATOM     37  C   UNL     1      -5.548  11.736  19.192  0.00  0.00    +0.000 A 
ENDBRANCH  31  32
ENDBRANCH  29  31
ENDBRANCH  20  27
ENDBRANCH   7  20
TORSDOF 7
ENDMDL
MODEL 6
REMARK VINA RESULT:      -7.6      3.026      6.457
REMARK  Name = 
REMARK  9 active torsions:
REMARK  status: ('A' for Active; 'I' for Inactive)
REMARK    1  A    between atoms: C_1  and  C_2
REMARK    2  A    between atoms: C_6  and  C_7
REMARK    3  A    between atoms: C_7  and  C_8
REMARK    4  A    between atoms: N_15  and  C_16
REMARK    5  A    between atoms: C_16  and  C_17
REMARK    6  A    between atoms: C_16  and  C_27
REMARK    7  A    between atoms: N_19  and  C_20
REMARK    8  A    between atoms: C_20  and  C_21
REMARK    9  A    between atoms: C_35  and  C_36
REMARK                            x       y       z     vdW  Elec       q    Type
REMARK                         _______ _______ _______ _____ _____    ______ ____
ROOT
ATOM      1  C   UNL     1       3.349  16.136  19.010  0.00  0.00    +0.000 C 
ATOM      2  C   UNL     1       2.586  14.839  19.086  0.00  0.00    +0.000 A 
ATOM      3  C   UNL     1       3.089  13.710  18.414  0.00  0.00    +0.000 A 
ATOM      4  C   UNL     1       2.368  12.507  18.447  0.00  0.00    +0.000 A 
ATOM      5  N   UNL     1       2.624  11.324  17.809  0.00  0.00    +0.000 NA
ATOM      6  C   UNL     1       1.627  10.511  18.113  0.00  0.00    +0.000 A 
ATOM      7  N   UNL     1       0.778  11.110  19.034  0.00  0.00    +0.000 N 
ATOM      8  C   UNL     1       1.207  12.418  19.195  0.00  0.00    +0.000 A 
ATOM      9  C   UNL     1       0.696  13.518  19.904  0.00  0.00    +0.000 A 
ATOM     10  C   UNL     1       1.366  14.750  19.788  0.00  0.00    +0.000 A 
ATOM     11  C   UNL     1       0.731  15.970  20.402  0.00  0.00    +0.000 C 
ENDROOT
BRANCH   6  12
ATOM     12  C   UNL     1       1.470   9.139  17.511  0.00  0.00    +0.000 C 
BRANCH  12  13
ATOM     13  C   UNL     1       2.293   8.065  18.198  0.00  0.00    +0.000 A 
ATOM     14  C   UNL     1       3.407   7.466  17.585  0.00  0.00    +0.000 A 
ATOM     15  C   UNL     1       4.043   6.379  18.185  0.00  0.00    +0.000 A 
ATOM     16  C   UNL     1       3.595   5.916  19.416  0.00  0.00    +0.000 A 
ATOM     17  F   UNL     1       4.156   4.826  19.955  0.00  0.00    +0.000 F 
ATOM     18  C   UNL     1       2.566   6.560  20.088  0.00  0.00    +0.000 A 
ATOM     19  C   UNL     1       1.927   7.646  19.488  0.00  0.00    +0.000 A 
ENDBRANCH  12  13
ENDBRANCH   6  12
BRANCH   7  20
ATOM     20  C   UNL     1      -0.389  10.539  19.728  0.00  0.00    +0.000 C 
BRANCH  20  21
ATOM     21  C   UNL     1      -1.740  10.809  19.057  0.00  0.00    +0.000 A 
ATOM     22  C   UNL     1      -2.583  11.881  19.395  0.00  0.00    +0.000 A 
ATOM     23  C   UNL     1      -3.817  12.053  18.757  0.00  0.00    +0.000 A 
ATOM     24  C   UNL     1      -4.216  11.181  17.747  0.00  0.00    +0.000 A 
ATOM     25  C   UNL     1      -3.370  10.153  17.351  0.00  0.00    +0.000 A 
ATOM     26  C   UNL     1      -2.142   9.978  17.989  0.00  0.00    +0.000 A 
ENDBRANCH  20  21
BRANCH  20  27
ATOM     27  C   UNL     1      -0.354  10.824  21.241  0.00  0.00    +0.000 C 
ATOM     28  O   UNL     1       0.536  10.410  21.985  0.00  0.00    +0.000 OA
ATOM     29  N   UNL     1      -1.352  11.664  21.706  0.00  0.00    +0.000 N 
ATOM     30  H   UNL     1      -2.120  11.926  21.101  0.00  0.00    +0.000 HD
BRANCH  29  31
ATOM     31  C   UNL     1      -1.406  12.082  23.091  0.00  0.00    +0.000 C 
BRANCH  31  32
ATOM     32  C   UNL     1      -2.605  12.954  23.375  0.00  0.00    +0.000 A 
ATOM     33  C   UNL     1      -2.569  14.331  23.155  0.00  0.00    +0.000 A 
ATOM     34  C   UNL     1      -3.718  15.080  23.388  0.00  0.00    +0.000 A 
ATOM     35  N   UNL     1      -4.879  14.556  23.830  0.00  0.00    +0.000 NA
ATOM     36  C   UNL     1      -4.895  13.223  24.049  0.00  0.00    +0.000 A 
ATOM     37  C   UNL     1      -3.798  12.395  23.846  0.00  0.00    +0.000 A 
ENDBRANCH  31  32
ENDBRANCH  29  31
ENDBRANCH  20  27
ENDBRANCH   7  20
TORSDOF 7
ENDMDL
MODEL 7
REMARK VINA RESULT:      -7.3      3.330      7.490
REMARK  Name = 
REMARK  9 active torsions:
REMARK  status: ('A' for Active; 'I' for Inactive)
REMARK    1  A    between atoms: C_1  and  C_2
REMARK    2  A    between atoms: C_6  and  C_7
REMARK    3  A    between atoms: C_7  and  C_8
REMARK    4  A    between atoms: N_15  and  C_16
REMARK    5  A    between atoms: C_16  and  C_17
REMARK    6  A    between atoms: C_16  and  C_27
REMARK    7  A    between atoms: N_19  and  C_20
REMARK    8  A    between atoms: C_20  and  C_21
REMARK    9  A    between atoms: C_35  and  C_36
REMARK                            x       y       z     vdW  Elec       q    Type
REMARK                         _______ _______ _______ _____ _____    ______ ____
ROOT
ATOM      1  C   UNL     1      -4.590  10.601  16.435  0.00  0.00    +0.000 C 
ATOM      2  C   UNL     1      -3.295  10.698  17.200  0.00  0.00    +0.000 A 
ATOM      3  C   UNL     1      -2.199   9.917  16.789  0.00  0.00    +0.000 A 
ATOM      4  C   UNL     1      -1.000   9.972  17.516  0.00  0.00    +0.000 A 
ATOM      5  N   UNL     1       0.150   9.251  17.346  0.00  0.00    +0.000 NA
ATOM      6  C   UNL     1       0.972   9.624  18.311  0.00  0.00    +0.000 A 
ATOM      7  N   UNL     1       0.416  10.664  19.044  0.00  0.00    +0.000 N 
ATOM      8  C   UNL     1      -0.880  10.841  18.586  0.00  0.00    +0.000 A 
ATOM      9  C   UNL     1      -1.945  11.657  19.001  0.00  0.00    +0.000 A 
ATOM     10  C   UNL     1      -3.177  11.528  18.334  0.00  0.00    +0.000 A 
ATOM     11  C   UNL     1      -4.368  12.271  18.881  0.00  0.00    +0.000 C 
ENDROOT
BRANCH   6  12
ATOM     12  C   UNL     1       2.310   8.976  18.551  0.00  0.00    +0.000 C 
BRANCH  12  13
ATOM     13  C   UNL     1       2.226   7.513  18.947  0.00  0.00    +0.000 A 
ATOM     14  C   UNL     1       1.821   7.105  20.231  0.00  0.00    +0.000 A 
ATOM     15  C   UNL     1       1.903   5.763  20.603  0.00  0.00    +0.000 A 
ATOM     16  C   UNL     1       2.347   4.822  19.682  0.00  0.00    +0.000 A 
ATOM     17  F   UNL     1       2.498   3.547  20.064  0.00  0.00    +0.000 F 
ATOM     18  C   UNL     1       2.649   5.187  18.378  0.00  0.00    +0.000 A 
ATOM     19  C   UNL     1       2.570   6.529  18.005  0.00  0.00    +0.000 A 
ENDBRANCH  12  13
ENDBRANCH   6  12
BRANCH   7  20
ATOM     20  C   UNL     1       1.015  11.456  20.132  0.00  0.00    +0.000 C 
BRANCH  20  21
ATOM     21  C   UNL     1       0.077  11.765  21.305  0.00  0.00    +0.000 A 
ATOM     22  C   UNL     1      -0.380  13.054  21.625  0.00  0.00    +0.000 A 
ATOM     23  C   UNL     1      -1.216  13.266  22.726  0.00  0.00    +0.000 A 
ATOM     24  C   UNL     1      -1.641  12.194  23.506  0.00  0.00    +0.000 A 
ATOM     25  C   UNL     1      -1.256  10.903  23.169  0.00  0.00    +0.000 A 
ATOM     26  C   UNL     1      -0.418  10.690  22.073  0.00  0.00    +0.000 A 
ENDBRANCH  20  21
BRANCH  20  27
ATOM     27  C   UNL     1       1.796  12.671  19.597  0.00  0.00    +0.000 C 
ATOM     28  O   UNL     1       1.712  13.068  18.434  0.00  0.00    +0.000 OA
ATOM     29  N   UNL     1       2.539  13.357  20.543  0.00  0.00    +0.000 N 
ATOM     30  H   UNL     1       2.664  12.971  21.470  0.00  0.00    +0.000 HD
BRANCH  29  31
ATOM     31  C   UNL     1       3.267  14.563  20.206  0.00  0.00    +0.000 C 
BRANCH  31  32
ATOM     32  C   UNL     1       2.365  15.771  20.135  0.00  0.00    +0.000 A 
ATOM     33  C   UNL     1       2.257  16.528  18.969  0.00  0.00    +0.000 A 
ATOM     34  C   UNL     1       1.375  17.603  18.944  0.00  0.00    +0.000 A 
ATOM     35  N   UNL     1       0.612  17.973  19.993  0.00  0.00    +0.000 NA
ATOM     36  C   UNL     1       0.736  17.237  21.118  0.00  0.00    +0.000 A 
ATOM     37  C   UNL     1       1.590  16.148  21.238  0.00  0.00    +0.000 A 
ENDBRANCH  31  32
ENDBRANCH  29  31
ENDBRANCH  20  27
ENDBRANCH   7  20
TORSDOF 7
ENDMDL
MODEL 8
REMARK VINA RESULT:      -7.2      2.790      5.663
REMARK  Name = 
REMARK  9 active torsions:
REMARK  status: ('A' for Active; 'I' for Inactive)
REMARK    1  A    between atoms: C_1  and  C_2
REMARK    2  A    between atoms: C_6  and  C_7
REMARK    3  A    between atoms: C_7  and  C_8
REMARK    4  A    between atoms: N_15  and  C_16
REMARK    5  A    between atoms: C_16  and  C_17
REMARK    6  A    between atoms: C_16  and  C_27
REMARK    7  A    between atoms: N_19  and  C_20
REMARK    8  A    between atoms: C_20  and  C_21
REMARK    9  A    between atoms: C_35  and  C_36
REMARK                            x       y       z     vdW  Elec       q    Type
REMARK                         _______ _______ _______ _____ _____    ______ ____
ROOT
ATOM      1  C   UNL     1       3.345  17.084  18.445  0.00  0.00    +0.000 C 
ATOM      2  C   UNL     1       2.491  16.071  19.162  0.00  0.00    +0.000 A 
ATOM      3  C   UNL     1       1.352  15.558  18.515  0.00  0.00    +0.000 A 
ATOM      4  C   UNL     1       0.528  14.642  19.188  0.00  0.00    +0.000 A 
ATOM      5  N   UNL     1      -0.654  14.082  18.788  0.00  0.00    +0.000 NA
ATOM      6  C   UNL     1      -1.070  13.328  19.790  0.00  0.00    +0.000 A 
ATOM      7  N   UNL     1      -0.117  13.297  20.800  0.00  0.00    +0.000 N 
ATOM      8  C   UNL     1       0.878  14.197  20.452  0.00  0.00    +0.000 A 
ATOM      9  C   UNL     1       2.025  14.667  21.111  0.00  0.00    +0.000 A 
ATOM     10  C   UNL     1       2.794  15.659  20.477  0.00  0.00    +0.000 A 
ATOM     11  C   UNL     1       3.925  16.290  21.247  0.00  0.00    +0.000 C 
ENDROOT
BRANCH   6  12
ATOM     12  C   UNL     1      -2.403  12.628  19.797  0.00  0.00    +0.000 C 
BRANCH  12  13
ATOM     13  C   UNL     1      -2.583  11.632  18.666  0.00  0.00    +0.000 A 
ATOM     14  C   UNL     1      -1.585  10.706  18.315  0.00  0.00    +0.000 A 
ATOM     15  C   UNL     1      -1.727   9.913  17.176  0.00  0.00    +0.000 A 
ATOM     16  C   UNL     1      -2.883  10.013  16.411  0.00  0.00    +0.000 A 
ATOM     17  F   UNL     1      -2.985   9.308  15.277  0.00  0.00    +0.000 F 
ATOM     18  C   UNL     1      -3.925  10.841  16.799  0.00  0.00    +0.000 A 
ATOM     19  C   UNL     1      -3.784  11.637  17.936  0.00  0.00    +0.000 A 
ENDBRANCH  12  13
ENDBRANCH   6  12
BRANCH   7  20
ATOM     20  C   UNL     1      -0.107  12.507  22.042  0.00  0.00    +0.000 C 
BRANCH  20  21
ATOM     21  C   UNL     1       0.004  10.990  21.848  0.00  0.00    +0.000 A 
ATOM     22  C   UNL     1       0.723  10.385  20.805  0.00  0.00    +0.000 A 
ATOM     23  C   UNL     1       0.760   8.992  20.673  0.00  0.00    +0.000 A 
ATOM     24  C   UNL     1       0.113   8.179  21.599  0.00  0.00    +0.000 A 
ATOM     25  C   UNL     1      -0.549   8.753  22.676  0.00  0.00    +0.000 A 
ATOM     26  C   UNL     1      -0.591  10.142  22.806  0.00  0.00    +0.000 A 
ENDBRANCH  20  21
BRANCH  20  27
ATOM     27  C   UNL     1      -1.214  12.952  23.017  0.00  0.00    +0.000 C 
ATOM     28  O   UNL     1      -1.093  13.907  23.784  0.00  0.00    +0.000 OA
ATOM     29  N   UNL     1      -2.408  12.258  22.908  0.00  0.00    +0.000 N 
ATOM     30  H   UNL     1      -2.463  11.426  22.335  0.00  0.00    +0.000 HD
BRANCH  29  31
ATOM     31  C   UNL     1      -3.564  12.611  23.705  0.00  0.00    +0.000 C 
BRANCH  31  32
ATOM     32  C   UNL     1      -4.613  13.334  22.895  0.00  0.00    +0.000 A 
ATOM     33  C   UNL     1      -5.903  12.821  22.757  0.00  0.00    +0.000 A 
ATOM     34  C   UNL     1      -6.844  13.551  22.039  0.00  0.00    +0.000 A 
ATOM     35  N   UNL     1      -6.585  14.737  21.451  0.00  0.00    +0.000 NA
ATOM     36  C   UNL     1      -5.330  15.215  21.584  0.00  0.00    +0.000 A 
ATOM     37  C   UNL     1      -4.323  14.557  22.281  0.00  0.00    +0.000 A 
ENDBRANCH  31  32
ENDBRANCH  29  31
ENDBRANCH  20  27
ENDBRANCH   7  20
TORSDOF 7
ENDMDL
MODEL 9
REMARK VINA RESULT:      -7.2      3.270      8.115
REMARK  Name = 
REMARK  9 active torsions:
REMARK  status: ('A' for Active; 'I' for Inactive)
REMARK    1  A    between atoms: C_1  and  C_2
REMARK    2  A    between atoms: C_6  and  C_7
REMARK    3  A    between atoms: C_7  and  C_8
REMARK    4  A    between atoms: N_15  and  C_16
REMARK    5  A    between atoms: C_16  and  C_17
REMARK    6  A    between atoms: C_16  and  C_27
REMARK    7  A    between atoms: N_19  and  C_20
REMARK    8  A    between atoms: C_20  and  C_21
REMARK    9  A    between atoms: C_35  and  C_36
REMARK                            x       y       z     vdW  Elec       q    Type
REMARK                         _______ _______ _______ _____ _____    ______ ____
ROOT
ATOM      1  C   UNL     1      -4.613  10.581  16.325  0.00  0.00    +0.000 C 
ATOM      2  C   UNL     1      -3.339  10.737  17.114  0.00  0.00    +0.000 A 
ATOM      3  C   UNL     1      -2.207   9.991  16.739  0.00  0.00    +0.000 A 
ATOM      4  C   UNL     1      -1.026  10.100  17.489  0.00  0.00    +0.000 A 
ATOM      5  N   UNL     1       0.152   9.419  17.356  0.00  0.00    +0.000 NA
ATOM      6  C   UNL     1       0.939   9.838  18.332  0.00  0.00    +0.000 A 
ATOM      7  N   UNL     1       0.331  10.869  19.035  0.00  0.00    +0.000 N 
ATOM      8  C   UNL     1      -0.961  10.991  18.547  0.00  0.00    +0.000 A 
ATOM      9  C   UNL     1      -2.063  11.774  18.926  0.00  0.00    +0.000 A 
ATOM     10  C   UNL     1      -3.275  11.589  18.236  0.00  0.00    +0.000 A 
ATOM     11  C   UNL     1      -4.504  12.297  18.746  0.00  0.00    +0.000 C 
ENDROOT
BRANCH   6  12
ATOM     12  C   UNL     1       2.294   9.243  18.610  0.00  0.00    +0.000 C 
BRANCH  12  13
ATOM     13  C   UNL     1       2.261   7.765  18.956  0.00  0.00    +0.000 A 
ATOM     14  C   UNL     1       1.785   7.295  20.193  0.00  0.00    +0.000 A 
ATOM     15  C   UNL     1       1.912   5.947  20.531  0.00  0.00    +0.000 A 
ATOM     16  C   UNL     1       2.475   5.062  19.621  0.00  0.00    +0.000 A 
ATOM     17  F   UNL     1       2.667   3.785  19.976  0.00  0.00    +0.000 F 
ATOM     18  C   UNL     1       2.853   5.485  18.355  0.00  0.00    +0.000 A 
ATOM     19  C   UNL     1       2.729   6.833  18.015  0.00  0.00    +0.000 A 
ENDBRANCH  12  13
ENDBRANCH   6  12
BRANCH   7  20
ATOM     20  C   UNL     1       0.877  11.700  20.122  0.00  0.00    +0.000 C 
BRANCH  20  21
ATOM     21  C   UNL     1      -0.026  11.836  21.353  0.00  0.00    +0.000 A 
ATOM     22  C   UNL     1      -0.444  10.751  22.142  0.00  0.00    +0.000 A 
ATOM     23  C   UNL     1      -1.290  10.946  23.238  0.00  0.00    +0.000 A 
ATOM     24  C   UNL     1      -1.704  12.227  23.591  0.00  0.00    +0.000 A 
ATOM     25  C   UNL     1      -1.250  13.321  22.866  0.00  0.00    +0.000 A 
ATOM     26  C   UNL     1      -0.410  13.128  21.768  0.00  0.00    +0.000 A 
ENDBRANCH  20  21
BRANCH  20  27
ATOM     27  C   UNL     1       1.453  13.028  19.596  0.00  0.00    +0.000 C 
ATOM     28  O   UNL     1       1.120  13.530  18.522  0.00  0.00    +0.000 OA
ATOM     29  N   UNL     1       2.314  13.681  20.463  0.00  0.00    +0.000 N 
ATOM     30  H   UNL     1       2.641  13.217  21.300  0.00  0.00    +0.000 HD
BRANCH  29  31
ATOM     31  C   UNL     1       2.877  14.975  20.140  0.00  0.00    +0.000 C 
BRANCH  31  32
ATOM     32  C   UNL     1       4.287  14.866  19.614  0.00  0.00    +0.000 A 
ATOM     33  C   UNL     1       4.542  14.628  18.263  0.00  0.00    +0.000 A 
ATOM     34  C   UNL     1       5.861  14.584  17.824  0.00  0.00    +0.000 A 
ATOM     35  N   UNL     1       6.927  14.750  18.633  0.00  0.00    +0.000 NA
ATOM     36  C   UNL     1       6.665  14.970  19.939  0.00  0.00    +0.000 A 
ATOM     37  C   UNL     1       5.382  15.029  20.470  0.00  0.00    +0.000 A 
ENDBRANCH  31  32
ENDBRANCH  29  31
ENDBRANCH  20  27
ENDBRANCH   7  20
TORSDOF 7
ENDMDL
