MODEL 1
REMARK VINA RESULT:      -7.9      0.000      0.000
REMARK  Name = 
REMARK  8 active torsions:
REMARK  status: ('A' for Active; 'I' for Inactive)
REMARK    1  A    between atoms: C_1  and  O_2
REMARK    2  A    between atoms: O_2  and  C_3
REMARK    3  A    between atoms: C_3  and  C_5
REMARK    4  A    between atoms: C_9  and  N_10
REMARK    5  A    between atoms: C_11  and  C_13
REMARK    6  A    between atoms: C_13  and  N_21
REMARK    7  A    between atoms: C_14  and  C_15
REMARK    8  A    between atoms: C_22  and  C_24
REMARK                            x       y       z     vdW  Elec       q    Type
REMARK                         _______ _______ _______ _____ _____    ______ ____
ROOT
ATOM      1  C   UNL     1       2.950   7.512  17.567  0.00  0.00    +0.000 C 
ATOM      2  C   UNL     1       4.197   7.693  17.088  0.00  0.00    +0.000 C 
ENDROOT
BRANCH   2   3
ATOM      3  C   UNL     1       5.295   6.732  16.926  0.00  0.00    +0.000 A 
ATOM      4  C   UNL     1       6.415   6.835  17.758  0.00  0.00    +0.000 A 
ATOM      5  C   UNL     1       7.413   5.860  17.719  0.00  0.00    +0.000 A 
ATOM      6  C   UNL     1       7.299   4.776  16.849  0.00  0.00    +0.000 A 
ATOM      7  C   UNL     1       6.191   4.674  16.007  0.00  0.00    +0.000 A 
ATOM      8  C   UNL     1       5.190   5.649  16.044  0.00  0.00    +0.000 A 
ENDBRANCH   2   3
BRANCH   1  10
ATOM      9  N   UNL     1       3.210   5.821  19.311  0.00  0.00    +0.000 N 
ATOM     10  C   UNL     1       2.511   6.175  18.156  0.00  0.00    +0.000 C 
ATOM     11  O   UNL     1       1.651   5.495  17.611  0.00  0.00    +0.000 OA
ATOM     12  H   UNL     1       3.897   6.475  19.661  0.00  0.00    +0.000 HD
BRANCH   9  17
ATOM     13  C   UNL     1       3.863   2.448  20.757  0.00  0.00    +0.000 A 
ATOM     14  C   UNL     1       2.749   2.276  21.587  0.00  0.00    +0.000 A 
ATOM     15  C   UNL     1       1.789   3.277  21.669  0.00  0.00    +0.000 A 
ATOM     16  C   UNL     1       1.928   4.446  20.919  0.00  0.00    +0.000 A 
ATOM     17  C   UNL     1       3.030   4.643  20.082  0.00  0.00    +0.000 A 
ATOM     18  C   UNL     1       4.005   3.634  20.011  0.00  0.00    +0.000 A 
BRANCH  13  19
ATOM     19  C   UNL     1       4.880   1.369  20.621  0.00  0.00    +0.000 C 
ATOM     20  O   UNL     1       4.982   0.651  19.640  0.00  0.00    +0.000 OA
BRANCH  19  22
ATOM     21  C   UNL     1       6.106   0.021  22.105  0.00  0.00    +0.000 C 
ATOM     22  O   UNL     1       5.657   1.326  21.733  0.00  0.00    +0.000 OA
ENDBRANCH  19  22
ENDBRANCH  13  19
ENDBRANCH   9  17
ENDBRANCH   1  10
BRANCH   1  23
ATOM     23  N   UNL     1       2.019   8.545  17.602  0.00  0.00    +0.000 N 
ATOM     24  C   UNL     1       1.370   9.041  18.721  0.00  0.00    +0.000 C 
ATOM     25  O   UNL     1       1.567   8.661  19.870  0.00  0.00    +0.000 OA
ATOM     26  H   UNL     1       1.844   9.009  16.719  0.00  0.00    +0.000 HD
BRANCH  24  27
ATOM     27  C   UNL     1       0.364  10.124  18.504  0.00  0.00    +0.000 A 
ATOM     28  C   UNL     1      -0.815   9.741  17.836  0.00  0.00    +0.000 A 
ATOM     29  C   UNL     1      -1.813  10.673  17.548  0.00  0.00    +0.000 A 
ATOM     30  C   UNL     1      -1.654  11.999  17.932  0.00  0.00    +0.000 A 
ATOM     31  C   UNL     1      -0.506  12.389  18.622  0.00  0.00    +0.000 A 
ATOM     32  C   UNL     1       0.497  11.457  18.917  0.00  0.00    +0.000 A 
ATOM     33 CL   UNL     1       1.833  12.050  19.841  0.00  0.00    +0.000 Cl
ENDBRANCH  24  27
ENDBRANCH   1  23
TORSDOF 7
ENDMDL
MODEL 2
REMARK VINA RESULT:      -7.8      3.150      7.978
REMARK  Name = 
REMARK  8 active torsions:
REMARK  status: ('A' for Active; 'I' for Inactive)
REMARK    1  A    between atoms: C_1  and  O_2
REMARK    2  A    between atoms: O_2  and  C_3
REMARK    3  A    between atoms: C_3  and  C_5
REMARK    4  A    between atoms: C_9  and  N_10
REMARK    5  A    between atoms: C_11  and  C_13
REMARK    6  A    between atoms: C_13  and  N_21
REMARK    7  A    between atoms: C_14  and  C_15
REMARK    8  A    between atoms: C_22  and  C_24
REMARK                            x       y       z     vdW  Elec       q    Type
REMARK                         _______ _______ _______ _____ _____    ______ ____
ROOT
ATOM      1  C   UNL     1       3.856   4.472  17.280  0.00  0.00    +0.000 C 
ATOM      2  C   UNL     1       3.425   3.380  17.943  0.00  0.00    +0.000 C 
ENDROOT
BRANCH   2   3
ATOM      3  C   UNL     1       2.730   3.273  19.232  0.00  0.00    +0.000 A 
ATOM      4  C   UNL     1       1.343   3.448  19.271  0.00  0.00    +0.000 A 
ATOM      5  C   UNL     1       0.637   3.224  20.454  0.00  0.00    +0.000 A 
ATOM      6  C   UNL     1       1.314   2.824  21.606  0.00  0.00    +0.000 A 
ATOM      7  C   UNL     1       2.699   2.662  21.579  0.00  0.00    +0.000 A 
ATOM      8  C   UNL     1       3.408   2.885  20.394  0.00  0.00    +0.000 A 
ENDBRANCH   2   3
BRANCH   1  10
ATOM      9  N   UNL     1       2.452   6.347  17.969  0.00  0.00    +0.000 N 
ATOM     10  C   UNL     1       3.759   5.865  17.892  0.00  0.00    +0.000 C 
ATOM     11  O   UNL     1       4.763   6.478  18.232  0.00  0.00    +0.000 OA
ATOM     12  H   UNL     1       1.708   5.737  17.656  0.00  0.00    +0.000 HD
BRANCH   9  17
ATOM     13  C   UNL     1       1.408   8.954  20.422  0.00  0.00    +0.000 A 
ATOM     14  C   UNL     1       1.230  10.067  19.592  0.00  0.00    +0.000 A 
ATOM     15  C   UNL     1       1.459   9.953  18.226  0.00  0.00    +0.000 A 
ATOM     16  C   UNL     1       1.856   8.731  17.681  0.00  0.00    +0.000 A 
ATOM     17  C   UNL     1       2.041   7.604  18.486  0.00  0.00    +0.000 A 
ATOM     18  C   UNL     1       1.820   7.726  19.869  0.00  0.00    +0.000 A 
BRANCH  13  19
ATOM     19  C   UNL     1       1.124   9.044  21.881  0.00  0.00    +0.000 C 
ATOM     20  O   UNL     1       1.988   9.156  22.735  0.00  0.00    +0.000 OA
BRANCH  19  22
ATOM     21  C   UNL     1      -0.722   9.985  22.987  0.00  0.00    +0.000 C 
ATOM     22  O   UNL     1      -0.215   8.993  22.093  0.00  0.00    +0.000 OA
ENDBRANCH  19  22
ENDBRANCH  13  19
ENDBRANCH   9  17
ENDBRANCH   1  10
BRANCH   1  23
ATOM     23  N   UNL     1       4.463   4.380  16.031  0.00  0.00    +0.000 N 
ATOM     24  C   UNL     1       5.811   4.189  15.774  0.00  0.00    +0.000 C 
ATOM     25  O   UNL     1       6.670   4.022  16.632  0.00  0.00    +0.000 OA
ATOM     26  H   UNL     1       3.837   4.407  15.235  0.00  0.00    +0.000 HD
BRANCH  24  27
ATOM     27  C   UNL     1       6.239   4.179  14.343  0.00  0.00    +0.000 A 
ATOM     28  C   UNL     1       5.455   3.396  13.474  0.00  0.00    +0.000 A 
ATOM     29  C   UNL     1       5.776   3.285  12.120  0.00  0.00    +0.000 A 
ATOM     30  C   UNL     1       6.878   3.961  11.611  0.00  0.00    +0.000 A 
ATOM     31  C   UNL     1       7.646   4.766  12.452  0.00  0.00    +0.000 A 
ATOM     32  C   UNL     1       7.327   4.886  13.810  0.00  0.00    +0.000 A 
ATOM     33 CL   UNL     1       8.311   5.971  14.727  0.00  0.00    +0.000 Cl
ENDBRANCH  24  27
ENDBRANCH   1  23
TORSDOF 7
ENDMDL
MODEL 3
REMARK VINA RESULT:      -7.6      1.157      1.289
REMARK  Name = 
REMARK  8 active torsions:
REMARK  status: ('A' for Active; 'I' for Inactive)
REMARK    1  A    between atoms: C_1  and  O_2
REMARK    2  A    between atoms: O_2  and  C_3
REMARK    3  A    between atoms: C_3  and  C_5
REMARK    4  A    between atoms: C_9  and  N_10
REMARK    5  A    between atoms: C_11  and  C_13
REMARK    6  A    between atoms: C_13  and  N_21
REMARK    7  A    between atoms: C_14  and  C_15
REMARK    8  A    between atoms: C_22  and  C_24
REMARK                            x       y       z     vdW  Elec       q    Type
REMARK                         _______ _______ _______ _____ _____    ______ ____
ROOT
ATOM      1  C   UNL     1       2.959   7.423  17.930  0.00  0.00    +0.000 C 
ATOM      2  C   UNL     1       4.112   7.665  17.275  0.00  0.00    +0.000 C 
ENDROOT
BRANCH   2   3
ATOM      3  C   UNL     1       5.128   6.730  16.777  0.00  0.00    +0.000 A 
ATOM      4  C   UNL     1       6.153   6.320  17.637  0.00  0.00    +0.000 A 
ATOM      5  C   UNL     1       7.056   5.334  17.237  0.00  0.00    +0.000 A 
ATOM      6  C   UNL     1       6.940   4.750  15.975  0.00  0.00    +0.000 A 
ATOM      7  C   UNL     1       5.930   5.164  15.107  0.00  0.00    +0.000 A 
ATOM      8  C   UNL     1       5.024   6.151  15.506  0.00  0.00    +0.000 A 
ENDBRANCH   2   3
BRANCH   1  10
ATOM      9  N   UNL     1       3.118   5.652  19.605  0.00  0.00    +0.000 N 
ATOM     10  C   UNL     1       2.575   6.014  18.372  0.00  0.00    +0.000 C 
ATOM     11  O   UNL     1       1.888   5.294  17.660  0.00  0.00    +0.000 OA
ATOM     12  H   UNL     1       3.669   6.344  20.096  0.00  0.00    +0.000 HD
BRANCH   9  17
ATOM     13  C   UNL     1       3.852   2.230  20.888  0.00  0.00    +0.000 A 
ATOM     14  C   UNL     1       2.678   1.933  21.589  0.00  0.00    +0.000 A 
ATOM     15  C   UNL     1       1.650   2.867  21.639  0.00  0.00    +0.000 A 
ATOM     16  C   UNL     1       1.782   4.093  20.984  0.00  0.00    +0.000 A 
ATOM     17  C   UNL     1       2.944   4.414  20.277  0.00  0.00    +0.000 A 
ATOM     18  C   UNL     1       3.986   3.472  20.238  0.00  0.00    +0.000 A 
BRANCH  13  19
ATOM     19  C   UNL     1       4.947   1.226  20.785  0.00  0.00    +0.000 C 
ATOM     20  O   UNL     1       5.268   0.675  19.744  0.00  0.00    +0.000 OA
BRANCH  19  22
ATOM     21  C   UNL     1       6.353  -0.114  22.106  0.00  0.00    +0.000 C 
ATOM     22  O   UNL     1       5.517   1.040  22.002  0.00  0.00    +0.000 OA
ENDBRANCH  19  22
ENDBRANCH  13  19
ENDBRANCH   9  17
ENDBRANCH   1  10
BRANCH   1  23
ATOM     23  N   UNL     1       2.089   8.448  18.288  0.00  0.00    +0.000 N 
ATOM     24  C   UNL     1       1.561   8.689  19.547  0.00  0.00    +0.000 C 
ATOM     25  O   UNL     1       1.833   8.046  20.554  0.00  0.00    +0.000 OA
ATOM     26  H   UNL     1       1.864   9.110  17.555  0.00  0.00    +0.000 HD
BRANCH  24  27
ATOM     27  C   UNL     1       0.598   9.823  19.678  0.00  0.00    +0.000 A 
ATOM     28  C   UNL     1       0.511  10.685  18.567  0.00  0.00    +0.000 A 
ATOM     29  C   UNL     1      -0.332  11.797  18.586  0.00  0.00    +0.000 A 
ATOM     30  C   UNL     1      -1.108  12.061  19.708  0.00  0.00    +0.000 A 
ATOM     31  C   UNL     1      -1.057  11.199  20.804  0.00  0.00    +0.000 A 
ATOM     32  C   UNL     1      -0.217  10.079  20.790  0.00  0.00    +0.000 A 
ATOM     33 CL   UNL     1      -0.302   9.051  22.177  0.00  0.00    +0.000 Cl
ENDBRANCH  24  27
ENDBRANCH   1  23
TORSDOF 7
ENDMDL
MODEL 4
REMARK VINA RESULT:      -7.5      2.730      5.058
REMARK  Name = 
REMARK  8 active torsions:
REMARK  status: ('A' for Active; 'I' for Inactive)
REMARK    1  A    between atoms: C_1  and  O_2
REMARK    2  A    between atoms: O_2  and  C_3
REMARK    3  A    between atoms: C_3  and  C_5
REMARK    4  A    between atoms: C_9  and  N_10
REMARK    5  A    between atoms: C_11  and  C_13
REMARK    6  A    between atoms: C_13  and  N_21
REMARK    7  A    between atoms: C_14  and  C_15
REMARK    8  A    between atoms: C_22  and  C_24
REMARK                            x       y       z     vdW  Elec       q    Type
REMARK                         _______ _______ _______ _____ _____    ______ ____
ROOT
ATOM      1  C   UNL     1       2.084   7.214  19.713  0.00  0.00    +0.000 C 
ATOM      2  C   UNL     1       1.371   6.163  20.167  0.00  0.00    +0.000 C 
ENDROOT
BRANCH   2   3
ATOM      3  C   UNL     1       1.564   4.726  19.942  0.00  0.00    +0.000 A 
ATOM      4  C   UNL     1       1.848   3.900  21.035  0.00  0.00    +0.000 A 
ATOM      5  C   UNL     1       1.906   2.514  20.874  0.00  0.00    +0.000 A 
ATOM      6  C   UNL     1       1.683   1.946  19.620  0.00  0.00    +0.000 A 
ATOM      7  C   UNL     1       1.415   2.764  18.523  0.00  0.00    +0.000 A 
ATOM      8  C   UNL     1       1.355   4.152  18.682  0.00  0.00    +0.000 A 
ENDBRANCH   2   3
BRANCH   1  10
ATOM      9  N   UNL     1       4.113   6.008  19.085  0.00  0.00    +0.000 N 
ATOM     10  C   UNL     1       3.233   7.030  18.727  0.00  0.00    +0.000 C 
ATOM     11  O   UNL     1       3.351   7.760  17.751  0.00  0.00    +0.000 OA
ATOM     12  H   UNL     1       3.899   5.476  19.918  0.00  0.00    +0.000 HD
BRANCH   9  17
ATOM     13  C   UNL     1       6.314   5.040  16.236  0.00  0.00    +0.000 A 
ATOM     14  C   UNL     1       7.529   4.799  16.888  0.00  0.00    +0.000 A 
ATOM     15  C   UNL     1       7.618   4.960  18.265  0.00  0.00    +0.000 A 
ATOM     16  C   UNL     1       6.497   5.353  18.999  0.00  0.00    +0.000 A 
ATOM     17  C   UNL     1       5.272   5.601  18.373  0.00  0.00    +0.000 A 
ATOM     18  C   UNL     1       5.189   5.447  16.979  0.00  0.00    +0.000 A 
BRANCH  13  19
ATOM     19  C   UNL     1       6.188   4.828  14.768  0.00  0.00    +0.000 C 
ATOM     20  O   UNL     1       5.234   4.279  14.240  0.00  0.00    +0.000 OA
BRANCH  19  22
ATOM     21  C   UNL     1       7.487   4.847  12.811  0.00  0.00    +0.000 C 
ATOM     22  O   UNL     1       7.271   5.343  14.133  0.00  0.00    +0.000 OA
ENDBRANCH  19  22
ENDBRANCH  13  19
ENDBRANCH   9  17
ENDBRANCH   1  10
BRANCH   1  23
ATOM     23  N   UNL     1       1.774   8.522  20.073  0.00  0.00    +0.000 N 
ATOM     24  C   UNL     1       1.066   9.446  19.321  0.00  0.00    +0.000 C 
ATOM     25  O   UNL     1       0.562   9.218  18.227  0.00  0.00    +0.000 OA
ATOM     26  H   UNL     1       2.056   8.800  21.006  0.00  0.00    +0.000 HD
BRANCH  24  27
ATOM     27  C   UNL     1       0.905  10.815  19.896  0.00  0.00    +0.000 A 
ATOM     28  C   UNL     1       0.125  10.900  21.066  0.00  0.00    +0.000 A 
ATOM     29  C   UNL     1      -0.122  12.131  21.676  0.00  0.00    +0.000 A 
ATOM     30  C   UNL     1       0.414  13.293  21.134  0.00  0.00    +0.000 A 
ATOM     31  C   UNL     1       1.214  13.222  19.994  0.00  0.00    +0.000 A 
ATOM     32  C   UNL     1       1.470  11.990  19.379  0.00  0.00    +0.000 A 
ATOM     33 CL   UNL     1       2.536  12.028  18.019  0.00  0.00    +0.000 Cl
ENDBRANCH  24  27
ENDBRANCH   1  23
TORSDOF 7
ENDMDL
MODEL 5
REMARK VINA RESULT:      -7.5      3.658      9.639
REMARK  Name = 
REMARK  8 active torsions:
REMARK  status: ('A' for Active; 'I' for Inactive)
REMARK    1  A    between atoms: C_1  and  O_2
REMARK    2  A    between atoms: O_2  and  C_3
REMARK    3  A    between atoms: C_3  and  C_5
REMARK    4  A    between atoms: C_9  and  N_10
REMARK    5  A    between atoms: C_11  and  C_13
REMARK    6  A    between atoms: C_13  and  N_21
REMARK    7  A    between atoms: C_14  and  C_15
REMARK    8  A    between atoms: C_22  and  C_24
REMARK                            x       y       z     vdW  Elec       q    Type
REMARK                         _______ _______ _______ _____ _____    ______ ____
ROOT
ATOM      1  C   UNL     1       0.805   9.979  19.830  0.00  0.00    +0.000 C 
ATOM      2  C   UNL     1       0.850  10.308  21.136  0.00  0.00    +0.000 C 
ENDROOT
BRANCH   2   3
ATOM      3  C   UNL     1       0.030  11.258  21.897  0.00  0.00    +0.000 A 
ATOM      4  C   UNL     1       0.240  12.630  21.720  0.00  0.00    +0.000 A 
ATOM      5  C   UNL     1      -0.608  13.557  22.327  0.00  0.00    +0.000 A 
ATOM      6  C   UNL     1      -1.672  13.120  23.116  0.00  0.00    +0.000 A 
ATOM      7  C   UNL     1      -1.879  11.754  23.309  0.00  0.00    +0.000 A 
ATOM      8  C   UNL     1      -1.031  10.823  22.701  0.00  0.00    +0.000 A 
ENDBRANCH   2   3
BRANCH   1  10
ATOM      9  N   UNL     1      -1.311  10.003  18.610  0.00  0.00    +0.000 N 
ATOM     10  C   UNL     1      -0.126  10.697  18.859  0.00  0.00    +0.000 C 
ATOM     11  O   UNL     1       0.196  11.759  18.342  0.00  0.00    +0.000 OA
ATOM     12  H   UNL     1      -1.457   9.133  19.105  0.00  0.00    +0.000 HD
BRANCH   9  17
ATOM     13  C   UNL     1      -3.365  10.408  15.525  0.00  0.00    +0.000 A 
ATOM     14  C   UNL     1      -4.434  11.178  15.997  0.00  0.00    +0.000 A 
ATOM     15  C   UNL     1      -4.474  11.557  17.333  0.00  0.00    +0.000 A 
ATOM     16  C   UNL     1      -3.448  11.180  18.201  0.00  0.00    +0.000 A 
ATOM     17  C   UNL     1      -2.369  10.412  17.756  0.00  0.00    +0.000 A 
ATOM     18  C   UNL     1      -2.337  10.020  16.407  0.00  0.00    +0.000 A 
BRANCH  13  19
ATOM     19  C   UNL     1      -3.280  10.030  14.087  0.00  0.00    +0.000 C 
ATOM     20  O   UNL     1      -2.241   9.726  13.525  0.00  0.00    +0.000 OA
BRANCH  19  22
ATOM     21  C   UNL     1      -4.552   9.789  12.127  0.00  0.00    +0.000 C 
ATOM     22  O   UNL     1      -4.516  10.067  13.528  0.00  0.00    +0.000 OA
ENDBRANCH  19  22
ENDBRANCH  13  19
ENDBRANCH   9  17
ENDBRANCH   1  10
BRANCH   1  23
ATOM     23  N   UNL     1       1.644   9.009  19.288  0.00  0.00    +0.000 N 
ATOM     24  C   UNL     1       1.846   7.724  19.765  0.00  0.00    +0.000 C 
ATOM     25  O   UNL     1       1.264   7.236  20.727  0.00  0.00    +0.000 OA
ATOM     26  H   UNL     1       2.110   9.264  18.425  0.00  0.00    +0.000 HD
BRANCH  24  27
ATOM     27  C   UNL     1       2.843   6.877  19.044  0.00  0.00    +0.000 A 
ATOM     28  C   UNL     1       3.435   7.460  17.908  0.00  0.00    +0.000 A 
ATOM     29  C   UNL     1       4.358   6.752  17.136  0.00  0.00    +0.000 A 
ATOM     30  C   UNL     1       4.710   5.456  17.491  0.00  0.00    +0.000 A 
ATOM     31  C   UNL     1       4.156   4.875  18.632  0.00  0.00    +0.000 A 
ATOM     32  C   UNL     1       3.233   5.582  19.414  0.00  0.00    +0.000 A 
ATOM     33 CL   UNL     1       2.678   4.779  20.841  0.00  0.00    +0.000 Cl
ENDBRANCH  24  27
ENDBRANCH   1  23
TORSDOF 7
ENDMDL
MODEL 6
REMARK VINA RESULT:      -7.5      2.774      5.075
REMARK  Name = 
REMARK  8 active torsions:
REMARK  status: ('A' for Active; 'I' for Inactive)
REMARK    1  A    between atoms: C_1  and  O_2
REMARK    2  A    between atoms: O_2  and  C_3
REMARK    3  A    between atoms: C_3  and  C_5
REMARK    4  A    between atoms: C_9  and  N_10
REMARK    5  A    between atoms: C_11  and  C_13
REMARK    6  A    between atoms: C_13  and  N_21
REMARK    7  A    between atoms: C_14  and  C_15
REMARK    8  A    between atoms: C_22  and  C_24
REMARK                            x       y       z     vdW  Elec       q    Type
REMARK                         _______ _______ _______ _____ _____    ______ ____
ROOT
ATOM      1  C   UNL     1       2.135   7.239  19.579  0.00  0.00    +0.000 C 
ATOM      2  C   UNL     1       1.392   6.217  20.049  0.00  0.00    +0.000 C 
ENDROOT
BRANCH   2   3
ATOM      3  C   UNL     1       1.559   4.770  19.871  0.00  0.00    +0.000 A 
ATOM      4  C   UNL     1       1.796   3.971  20.994  0.00  0.00    +0.000 A 
ATOM      5  C   UNL     1       1.829   2.580  20.876  0.00  0.00    +0.000 A 
ATOM      6  C   UNL     1       1.626   1.980  19.634  0.00  0.00    +0.000 A 
ATOM      7  C   UNL     1       1.404   2.770  18.506  0.00  0.00    +0.000 A 
ATOM      8  C   UNL     1       1.370   4.163  18.623  0.00  0.00    +0.000 A 
ENDBRANCH   2   3
BRANCH   1  10
ATOM      9  N   UNL     1       4.202   6.038  19.075  0.00  0.00    +0.000 N 
ATOM     10  C   UNL     1       3.300   7.002  18.623  0.00  0.00    +0.000 C 
ATOM     11  O   UNL     1       3.411   7.648  17.589  0.00  0.00    +0.000 OA
ATOM     12  H   UNL     1       3.992   5.573  19.949  0.00  0.00    +0.000 HD
BRANCH   9  17
ATOM     13  C   UNL     1       6.490   4.998  16.321  0.00  0.00    +0.000 A 
ATOM     14  C   UNL     1       7.675   4.743  17.021  0.00  0.00    +0.000 A 
ATOM     15  C   UNL     1       7.715   4.919  18.398  0.00  0.00    +0.000 A 
ATOM     16  C   UNL     1       6.575   5.340  19.086  0.00  0.00    +0.000 A 
ATOM     17  C   UNL     1       5.379   5.602  18.412  0.00  0.00    +0.000 A 
ATOM     18  C   UNL     1       5.346   5.434  17.017  0.00  0.00    +0.000 A 
BRANCH  13  19
ATOM     19  C   UNL     1       6.414   4.772  14.852  0.00  0.00    +0.000 C 
ATOM     20  O   UNL     1       5.453   4.274  14.290  0.00  0.00    +0.000 OA
BRANCH  19  22
ATOM     21  C   UNL     1       7.598   5.044  12.841  0.00  0.00    +0.000 C 
ATOM     22  O   UNL     1       7.554   5.210  14.259  0.00  0.00    +0.000 OA
ENDBRANCH  19  22
ENDBRANCH  13  19
ENDBRANCH   9  17
ENDBRANCH   1  10
BRANCH   1  23
ATOM     23  N   UNL     1       1.846   8.563  19.893  0.00  0.00    +0.000 N 
ATOM     24  C   UNL     1       1.140   9.467  19.115  0.00  0.00    +0.000 C 
ATOM     25  O   UNL     1       0.619   9.205  18.036  0.00  0.00    +0.000 OA
ATOM     26  H   UNL     1       2.143   8.872  20.811  0.00  0.00    +0.000 HD
BRANCH  24  27
ATOM     27  C   UNL     1       1.002  10.859  19.640  0.00  0.00    +0.000 A 
ATOM     28  C   UNL     1       1.528  11.878  18.822  0.00  0.00    +0.000 A 
ATOM     29  C   UNL     1       1.485  13.214  19.223  0.00  0.00    +0.000 A 
ATOM     30  C   UNL     1       0.909  13.554  20.440  0.00  0.00    +0.000 A 
ATOM     31  C   UNL     1       0.355  12.561  21.247  0.00  0.00    +0.000 A 
ATOM     32  C   UNL     1       0.391  11.218  20.849  0.00  0.00    +0.000 A 
ATOM     33 CL   UNL     1      -0.394  10.095  21.903  0.00  0.00    +0.000 Cl
ENDBRANCH  24  27
ENDBRANCH   1  23
TORSDOF 7
ENDMDL
MODEL 7
REMARK VINA RESULT:      -7.4      0.614      1.045
REMARK  Name = 
REMARK  8 active torsions:
REMARK  status: ('A' for Active; 'I' for Inactive)
REMARK    1  A    between atoms: C_1  and  O_2
REMARK    2  A    between atoms: O_2  and  C_3
REMARK    3  A    between atoms: C_3  and  C_5
REMARK    4  A    between atoms: C_9  and  N_10
REMARK    5  A    between atoms: C_11  and  C_13
REMARK    6  A    between atoms: C_13  and  N_21
REMARK    7  A    between atoms: C_14  and  C_15
REMARK    8  A    between atoms: C_22  and  C_24
REMARK                            x       y       z     vdW  Elec       q    Type
REMARK                         _______ _______ _______ _____ _____    ______ ____
ROOT
ATOM      1  C   UNL     1       2.941   7.583  17.661  0.00  0.00    +0.000 C 
ATOM      2  C   UNL     1       4.164   7.715  17.109  0.00  0.00    +0.000 C 
ENDROOT
BRANCH   2   3
ATOM      3  C   UNL     1       5.190   6.701  16.838  0.00  0.00    +0.000 A 
ATOM      4  C   UNL     1       5.144   5.995  15.632  0.00  0.00    +0.000 A 
ATOM      5  C   UNL     1       6.176   5.120  15.287  0.00  0.00    +0.000 A 
ATOM      6  C   UNL     1       7.261   4.946  16.146  0.00  0.00    +0.000 A 
ATOM      7  C   UNL     1       7.307   5.636  17.357  0.00  0.00    +0.000 A 
ATOM      8  C   UNL     1       6.275   6.513  17.704  0.00  0.00    +0.000 A 
ENDBRANCH   2   3
BRANCH   1  10
ATOM      9  N   UNL     1       3.126   5.866  19.388  0.00  0.00    +0.000 N 
ATOM     10  C   UNL     1       2.461   6.248  18.223  0.00  0.00    +0.000 C 
ATOM     11  O   UNL     1       1.601   5.593  17.649  0.00  0.00    +0.000 OA
ATOM     12  H   UNL     1       3.818   6.501  19.763  0.00  0.00    +0.000 HD
BRANCH   9  17
ATOM     13  C   UNL     1       3.706   2.487  20.854  0.00  0.00    +0.000 A 
ATOM     14  C   UNL     1       2.543   2.305  21.611  0.00  0.00    +0.000 A 
ATOM     15  C   UNL     1       1.573   3.299  21.637  0.00  0.00    +0.000 A 
ATOM     16  C   UNL     1       1.753   4.474  20.904  0.00  0.00    +0.000 A 
ATOM     17  C   UNL     1       2.905   4.682  20.140  0.00  0.00    +0.000 A 
ATOM     18  C   UNL     1       3.888   3.679  20.125  0.00  0.00    +0.000 A 
BRANCH  13  19
ATOM     19  C   UNL     1       4.736   1.415  20.777  0.00  0.00    +0.000 C 
ATOM     20  O   UNL     1       5.212   1.004  19.732  0.00  0.00    +0.000 OA
BRANCH  19  22
ATOM     21  C   UNL     1       6.184   0.119  22.098  0.00  0.00    +0.000 C 
ATOM     22  O   UNL     1       5.054   0.991  22.027  0.00  0.00    +0.000 OA
ENDBRANCH  19  22
ENDBRANCH  13  19
ENDBRANCH   9  17
ENDBRANCH   1  10
BRANCH   1  23
ATOM     23  N   UNL     1       2.077   8.665  17.799  0.00  0.00    +0.000 N 
ATOM     24  C   UNL     1       1.489   9.115  18.970  0.00  0.00    +0.000 C 
ATOM     25  O   UNL     1       1.691   8.639  20.082  0.00  0.00    +0.000 OA
ATOM     26  H   UNL     1       1.907   9.202  16.957  0.00  0.00    +0.000 HD
BRANCH  24  27
ATOM     27  C   UNL     1       0.546  10.269  18.862  0.00  0.00    +0.000 A 
ATOM     28  C   UNL     1      -0.804   9.986  19.144  0.00  0.00    +0.000 A 
ATOM     29  C   UNL     1      -1.781  10.978  19.045  0.00  0.00    +0.000 A 
ATOM     30  C   UNL     1      -1.424  12.268  18.674  0.00  0.00    +0.000 A 
ATOM     31  C   UNL     1      -0.086  12.572  18.422  0.00  0.00    +0.000 A 
ATOM     32  C   UNL     1       0.900  11.582  18.523  0.00  0.00    +0.000 A 
ATOM     33 CL   UNL     1       2.527  12.104  18.259  0.00  0.00    +0.000 Cl
ENDBRANCH  24  27
ENDBRANCH   1  23
TORSDOF 7
ENDMDL
MODEL 8
REMARK VINA RESULT:      -7.4      1.041      1.620
REMARK  Name = 
REMARK  8 active torsions:
REMARK  status: ('A' for Active; 'I' for Inactive)
REMARK    1  A    between atoms: C_1  and  O_2
REMARK    2  A    between atoms: O_2  and  C_3
REMARK    3  A    between atoms: C_3  and  C_5
REMARK    4  A    between atoms: C_9  and  N_10
REMARK    5  A    between atoms: C_11  and  C_13
REMARK    6  A    between atoms: C_13  and  N_21
REMARK    7  A    between atoms: C_14  and  C_15
REMARK    8  A    between atoms: C_22  and  C_24
REMARK                            x       y       z     vdW  Elec       q    Type
REMARK                         _______ _______ _______ _____ _____    ______ ____
ROOT
ATOM      1  C   UNL     1       3.054   7.741  17.758  0.00  0.00    +0.000 C 
ATOM      2  C   UNL     1       4.247   7.845  17.137  0.00  0.00    +0.000 C 
ENDROOT
BRANCH   2   3
ATOM      3  C   UNL     1       5.209   6.801  16.764  0.00  0.00    +0.000 A 
ATOM      4  C   UNL     1       5.064   6.154  15.532  0.00  0.00    +0.000 A 
ATOM      5  C   UNL     1       6.035   5.253  15.092  0.00  0.00    +0.000 A 
ATOM      6  C   UNL     1       7.155   4.992  15.880  0.00  0.00    +0.000 A 
ATOM      7  C   UNL     1       7.299   5.622  17.116  0.00  0.00    +0.000 A 
ATOM      8  C   UNL     1       6.328   6.526  17.559  0.00  0.00    +0.000 A 
ENDBRANCH   2   3
BRANCH   1  10
ATOM      9  N   UNL     1       3.271   5.945  19.398  0.00  0.00    +0.000 N 
ATOM     10  C   UNL     1       2.550   6.406  18.296  0.00  0.00    +0.000 C 
ATOM     11  O   UNL     1       1.625   5.815  17.755  0.00  0.00    +0.000 OA
ATOM     12  H   UNL     1       4.014   6.533  19.752  0.00  0.00    +0.000 HD
BRANCH   9  17
ATOM     13  C   UNL     1       3.820   2.510  20.739  0.00  0.00    +0.000 A 
ATOM     14  C   UNL     1       2.670   2.322  21.513  0.00  0.00    +0.000 A 
ATOM     15  C   UNL     1       1.719   3.331  21.592  0.00  0.00    +0.000 A 
ATOM     16  C   UNL     1       1.904   4.527  20.895  0.00  0.00    +0.000 A 
ATOM     17  C   UNL     1       3.044   4.741  20.115  0.00  0.00    +0.000 A 
ATOM     18  C   UNL     1       4.009   3.722  20.047  0.00  0.00    +0.000 A 
BRANCH  13  19
ATOM     19  C   UNL     1       4.829   1.423  20.605  0.00  0.00    +0.000 C 
ATOM     20  O   UNL     1       4.934   0.711  19.620  0.00  0.00    +0.000 OA
BRANCH  19  22
ATOM     21  C   UNL     1       6.072   0.062  22.062  0.00  0.00    +0.000 C 
ATOM     22  O   UNL     1       5.596   1.366  21.724  0.00  0.00    +0.000 OA
ENDBRANCH  19  22
ENDBRANCH  13  19
ENDBRANCH   9  17
ENDBRANCH   1  10
BRANCH   1  23
ATOM     23  N   UNL     1       2.248   8.852  17.991  0.00  0.00    +0.000 N 
ATOM     24  C   UNL     1       1.514   9.121  19.135  0.00  0.00    +0.000 C 
ATOM     25  O   UNL     1       1.510   8.424  20.144  0.00  0.00    +0.000 OA
ATOM     26  H   UNL     1       2.247   9.555  17.261  0.00  0.00    +0.000 HD
BRANCH  24  27
ATOM     27  C   UNL     1       0.675  10.356  19.133  0.00  0.00    +0.000 A 
ATOM     28  C   UNL     1       1.110  11.395  19.979  0.00  0.00    +0.000 A 
ATOM     29  C   UNL     1       0.389  12.585  20.085  0.00  0.00    +0.000 A 
ATOM     30  C   UNL     1      -0.772  12.761  19.340  0.00  0.00    +0.000 A 
ATOM     31  C   UNL     1      -1.198  11.755  18.474  0.00  0.00    +0.000 A 
ATOM     32  C   UNL     1      -0.477  10.560  18.360  0.00  0.00    +0.000 A 
ATOM     33 CL   UNL     1      -1.069   9.426  17.197  0.00  0.00    +0.000 Cl
ENDBRANCH  24  27
ENDBRANCH   1  23
TORSDOF 7
ENDMDL
MODEL 9
REMARK VINA RESULT:      -7.4      3.441      9.377
REMARK  Name = 
REMARK  8 active torsions:
REMARK  status: ('A' for Active; 'I' for Inactive)
REMARK    1  A    between atoms: C_1  and  O_2
REMARK    2  A    between atoms: O_2  and  C_3
REMARK    3  A    between atoms: C_3  and  C_5
REMARK    4  A    between atoms: C_9  and  N_10
REMARK    5  A    between atoms: C_11  and  C_13
REMARK    6  A    between atoms: C_13  and  N_21
REMARK    7  A    between atoms: C_14  and  C_15
REMARK    8  A    between atoms: C_22  and  C_24
REMARK                            x       y       z     vdW  Elec       q    Type
REMARK                         _______ _______ _______ _____ _____    ______ ____
ROOT
ATOM      1  C   UNL     1       1.415   9.783  18.353  0.00  0.00    +0.000 C 
ATOM      2  C   UNL     1       2.282  10.808  18.484  0.00  0.00    +0.000 C 
ENDROOT
BRANCH   2   3
ATOM      3  C   UNL     1       2.048  12.191  18.914  0.00  0.00    +0.000 A 
ATOM      4  C   UNL     1       2.187  13.225  17.982  0.00  0.00    +0.000 A 
ATOM      5  C   UNL     1       1.845  14.534  18.325  0.00  0.00    +0.000 A 
ATOM      6  C   UNL     1       1.363  14.818  19.602  0.00  0.00    +0.000 A 
ATOM      7  C   UNL     1       1.236  13.796  20.542  0.00  0.00    +0.000 A 
ATOM      8  C   UNL     1       1.577  12.483  20.200  0.00  0.00    +0.000 A 
ENDBRANCH   2   3
BRANCH   1  10
ATOM      9  N   UNL     1      -0.729  10.526  17.449  0.00  0.00    +0.000 N 
ATOM     10  C   UNL     1      -0.084   9.978  18.558  0.00  0.00    +0.000 C 
ATOM     11  O   UNL     1      -0.617   9.702  19.625  0.00  0.00    +0.000 OA
ATOM     12  H   UNL     1      -0.171  10.706  16.624  0.00  0.00    +0.000 HD
BRANCH   9  17
ATOM     13  C   UNL     1      -4.129  11.768  18.340  0.00  0.00    +0.000 A 
ATOM     14  C   UNL     1      -4.855  11.454  17.185  0.00  0.00    +0.000 A 
ATOM     15  C   UNL     1      -4.219  10.836  16.116  0.00  0.00    +0.000 A 
ATOM     16  C   UNL     1      -2.861  10.521  16.195  0.00  0.00    +0.000 A 
ATOM     17  C   UNL     1      -2.112  10.824  17.335  0.00  0.00    +0.000 A 
ATOM     18  C   UNL     1      -2.757  11.458  18.410  0.00  0.00    +0.000 A 
BRANCH  13  19
ATOM     19  C   UNL     1      -4.803  12.388  19.513  0.00  0.00    +0.000 C 
ATOM     20  O   UNL     1      -6.012  12.526  19.608  0.00  0.00    +0.000 OA
BRANCH  19  22
ATOM     21  C   UNL     1      -4.337  12.742  21.788  0.00  0.00    +0.000 C 
ATOM     22  O   UNL     1      -3.877  12.754  20.436  0.00  0.00    +0.000 OA
ENDBRANCH  19  22
ENDBRANCH  13  19
ENDBRANCH   9  17
ENDBRANCH   1  10
BRANCH   1  23
ATOM     23  N   UNL     1       1.833   8.512  17.970  0.00  0.00    +0.000 N 
ATOM     24  C   UNL     1       2.238   7.483  18.806  0.00  0.00    +0.000 C 
ATOM     25  O   UNL     1       2.238   7.536  20.031  0.00  0.00    +0.000 OA
ATOM     26  H   UNL     1       1.783   8.313  16.978  0.00  0.00    +0.000 HD
BRANCH  24  27
ATOM     27  C   UNL     1       2.698   6.218  18.159  0.00  0.00    +0.000 A 
ATOM     28  C   UNL     1       1.771   5.158  18.157  0.00  0.00    +0.000 A 
ATOM     29  C   UNL     1       2.100   3.918  17.609  0.00  0.00    +0.000 A 
ATOM     30  C   UNL     1       3.354   3.719  17.044  0.00  0.00    +0.000 A 
ATOM     31  C   UNL     1       4.272   4.769  17.009  0.00  0.00    +0.000 A 
ATOM     32  C   UNL     1       3.947   6.018  17.554  0.00  0.00    +0.000 A 
ATOM     33 CL   UNL     1       5.142   7.254  17.381  0.00  0.00    +0.000 Cl
ENDBRANCH  24  27
ENDBRANCH   1  23
TORSDOF 7
ENDMDL
