MODEL 1
REMARK VINA RESULT:      -6.8      0.000      0.000
REMARK  Name = 
REMARK  5 active torsions:
REMARK  status: ('A' for Active; 'I' for Inactive)
REMARK    1  A    between atoms: S_2  and  N_4
REMARK    2  A    between atoms: S_2  and  C_22
REMARK    3  A    between atoms: N_9  and  C_10
REMARK    4  A    between atoms: C_10  and  S_12
REMARK    5  A    between atoms: S_12  and  N_13
REMARK                            x       y       z     vdW  Elec       q    Type
REMARK                         _______ _______ _______ _____ _____    ______ ____
ROOT
ATOM      1  N   UNL     1       2.481   7.254  19.449  0.00  0.00    +0.000 N 
ATOM      2  C   UNL     1       1.542   7.823  20.284  0.00  0.00    +0.000 C 
ATOM      3  N   UNL     1       1.093   7.184  21.316  0.00  0.00    +0.000 NA
ATOM      4  C   UNL     1      -0.010   8.015  21.826  0.00  0.00    +0.000 C 
ATOM      5  C   UNL     1       0.219   9.386  21.229  0.00  0.00    +0.000 C 
ATOM      6  N   UNL     1       1.031   9.112  20.070  0.00  0.00    +0.000 N 
ATOM      7  H   UNL     1       2.872   7.792  18.681  0.00  0.00    +0.000 HD
ENDROOT
BRANCH   1   9
ATOM      8  O   UNL     1       3.356   5.044  20.334  0.00  0.00    +0.000 OA
ATOM      9  S   UNL     1       2.670   5.620  19.196  0.00  0.00    +0.000 S 
ATOM     10  O   UNL     1       1.362   5.117  18.829  0.00  0.00    +0.000 OA
BRANCH   9  11
ATOM     11  C   UNL     1       3.717   5.496  17.776  0.00  0.00    +0.000 A 
ATOM     12  C   UNL     1       4.257   6.682  17.250  0.00  0.00    +0.000 A 
ATOM     13  C   UNL     1       5.139   6.638  16.171  0.00  0.00    +0.000 A 
ATOM     14  C   UNL     1       5.487   5.412  15.613  0.00  0.00    +0.000 A 
ATOM     15  C   UNL     1       4.949   4.231  16.131  0.00  0.00    +0.000 A 
ATOM     16  C   UNL     1       4.059   4.266  17.213  0.00  0.00    +0.000 A 
ATOM     17 CL   UNL     1       3.428   2.749  17.749  0.00  0.00    +0.000 Cl
ENDBRANCH   9  11
ENDBRANCH   1   9
BRANCH   6  18
ATOM     18  C   UNL     1       1.259  10.066  19.065  0.00  0.00    +0.000 C 
ATOM     19  S   UNL     1       2.081   9.759  17.624  0.00  0.00    +0.000 S 
BRANCH  18  20
ATOM     20  S   UNL     1       0.423  11.616  19.308  0.00  0.00    +0.000 S 
BRANCH  20  21
ATOM     21  N   UNL     1      -1.065  11.401  18.611  0.00  0.00    +0.000 N 
ATOM     22  C   UNL     1      -1.285  10.248  17.728  0.00  0.00    +0.000 C 
ATOM     23  C   UNL     1      -2.793  10.311  17.433  0.00  0.00    +0.000 C 
ATOM     24  N   UNL     1      -3.291  11.246  18.418  0.00  0.00    +0.000 N 
ATOM     25  C   UNL     1      -2.272  11.857  19.086  0.00  0.00    +0.000 A 
ATOM     26  N   UNL     1      -2.576  12.711  20.004  0.00  0.00    +0.000 NA
ATOM     27  S   UNL     1      -4.273  12.825  20.062  0.00  0.00    +0.000 S 
ATOM     28  C   UNL     1      -4.528  11.653  18.771  0.00  0.00    +0.000 A 
ATOM     29  S   UNL     1      -5.978  11.187  18.123  0.00  0.00    +0.000 S 
ENDBRANCH  20  21
ENDBRANCH  18  20
ENDBRANCH   6  18
TORSDOF 5
ENDMDL
MODEL 2
REMARK VINA RESULT:      -6.7      2.701      3.440
REMARK  Name = 
REMARK  5 active torsions:
REMARK  status: ('A' for Active; 'I' for Inactive)
REMARK    1  A    between atoms: S_2  and  N_4
REMARK    2  A    between atoms: S_2  and  C_22
REMARK    3  A    between atoms: N_9  and  C_10
REMARK    4  A    between atoms: C_10  and  S_12
REMARK    5  A    between atoms: S_12  and  N_13
REMARK                            x       y       z     vdW  Elec       q    Type
REMARK                         _______ _______ _______ _____ _____    ______ ____
ROOT
ATOM      1  N   UNL     1       4.468   5.671  19.799  0.00  0.00    +0.000 N 
ATOM      2  C   UNL     1       3.160   5.302  20.041  0.00  0.00    +0.000 C 
ATOM      3  N   UNL     1       2.862   4.091  20.387  0.00  0.00    +0.000 NA
ATOM      4  C   UNL     1       1.391   4.041  20.357  0.00  0.00    +0.000 C 
ATOM      5  C   UNL     1       0.944   5.484  20.417  0.00  0.00    +0.000 C 
ATOM      6  N   UNL     1       2.094   6.208  19.935  0.00  0.00    +0.000 N 
ATOM      7  H   UNL     1       4.693   6.640  19.592  0.00  0.00    +0.000 HD
ENDROOT
BRANCH   1   9
ATOM      8  O   UNL     1       6.931   5.069  19.829  0.00  0.00    +0.000 OA
ATOM      9  S   UNL     1       5.666   4.647  19.266  0.00  0.00    +0.000 S 
ATOM     10  O   UNL     1       5.189   3.303  19.522  0.00  0.00    +0.000 OA
BRANCH   9  11
ATOM     11  C   UNL     1       5.716   4.879  17.513  0.00  0.00    +0.000 A 
ATOM     12  C   UNL     1       6.788   5.613  16.975  0.00  0.00    +0.000 A 
ATOM     13  C   UNL     1       6.912   5.772  15.596  0.00  0.00    +0.000 A 
ATOM     14  C   UNL     1       5.970   5.201  14.747  0.00  0.00    +0.000 A 
ATOM     15  C   UNL     1       4.902   4.474  15.277  0.00  0.00    +0.000 A 
ATOM     16  C   UNL     1       4.766   4.311  16.663  0.00  0.00    +0.000 A 
ATOM     17 CL   UNL     1       3.388   3.424  17.210  0.00  0.00    +0.000 Cl
ENDBRANCH   9  11
ENDBRANCH   1   9
BRANCH   6  18
ATOM     18  C   UNL     1       2.034   7.562  19.567  0.00  0.00    +0.000 C 
ATOM     19  S   UNL     1       2.473   8.160  18.052  0.00  0.00    +0.000 S 
BRANCH  18  20
ATOM     20  S   UNL     1       1.245   8.622  20.756  0.00  0.00    +0.000 S 
BRANCH  20  21
ATOM     21  N   UNL     1       0.780   9.952  19.885  0.00  0.00    +0.000 N 
ATOM     22  C   UNL     1      -0.387   9.858  18.997  0.00  0.00    +0.000 C 
ATOM     23  C   UNL     1      -0.584  11.306  18.517  0.00  0.00    +0.000 C 
ATOM     24  N   UNL     1       0.242  12.076  19.421  0.00  0.00    +0.000 N 
ATOM     25  C   UNL     1       1.016  11.270  20.201  0.00  0.00    +0.000 A 
ATOM     26  N   UNL     1       1.797  11.828  21.063  0.00  0.00    +0.000 NA
ATOM     27  S   UNL     1       1.613  13.514  20.910  0.00  0.00    +0.000 S 
ATOM     28  C   UNL     1       0.424  13.400  19.613  0.00  0.00    +0.000 A 
ATOM     29  S   UNL     1      -0.281  14.655  18.798  0.00  0.00    +0.000 S 
ENDBRANCH  20  21
ENDBRANCH  18  20
ENDBRANCH   6  18
TORSDOF 5
ENDMDL
MODEL 3
REMARK VINA RESULT:      -6.7      0.978      1.521
REMARK  Name = 
REMARK  5 active torsions:
REMARK  status: ('A' for Active; 'I' for Inactive)
REMARK    1  A    between atoms: S_2  and  N_4
REMARK    2  A    between atoms: S_2  and  C_22
REMARK    3  A    between atoms: N_9  and  C_10
REMARK    4  A    between atoms: C_10  and  S_12
REMARK    5  A    between atoms: S_12  and  N_13
REMARK                            x       y       z     vdW  Elec       q    Type
REMARK                         _______ _______ _______ _____ _____    ______ ____
ROOT
ATOM      1  N   UNL     1       2.392   7.408  18.795  0.00  0.00    +0.000 N 
ATOM      2  C   UNL     1       1.761   8.035  19.850  0.00  0.00    +0.000 C 
ATOM      3  N   UNL     1       1.728   7.492  21.025  0.00  0.00    +0.000 NA
ATOM      4  C   UNL     1       0.818   8.344  21.809  0.00  0.00    +0.000 C 
ATOM      5  C   UNL     1       0.752   9.653  21.055  0.00  0.00    +0.000 C 
ATOM      6  N   UNL     1       1.136   9.283  19.715  0.00  0.00    +0.000 N 
ATOM      7  H   UNL     1       2.466   7.876  17.897  0.00  0.00    +0.000 HD
ENDROOT
BRANCH   1   9
ATOM      8  O   UNL     1       3.033   5.215  19.896  0.00  0.00    +0.000 OA
ATOM      9  S   UNL     1       2.576   5.762  18.635  0.00  0.00    +0.000 S 
ATOM     10  O   UNL     1       1.341   5.274  18.057  0.00  0.00    +0.000 OA
BRANCH   9  11
ATOM     11  C   UNL     1       3.855   5.562  17.430  0.00  0.00    +0.000 A 
ATOM     12  C   UNL     1       4.469   6.719  16.921  0.00  0.00    +0.000 A 
ATOM     13  C   UNL     1       5.525   6.619  16.017  0.00  0.00    +0.000 A 
ATOM     14  C   UNL     1       5.975   5.364  15.617  0.00  0.00    +0.000 A 
ATOM     15  C   UNL     1       5.365   4.212  16.118  0.00  0.00    +0.000 A 
ATOM     16  C   UNL     1       4.300   4.302  17.025  0.00  0.00    +0.000 A 
ATOM     17 CL   UNL     1       3.598   2.814  17.551  0.00  0.00    +0.000 Cl
ENDBRANCH   9  11
ENDBRANCH   1   9
BRANCH   6  18
ATOM     18  C   UNL     1       0.954  10.137  18.614  0.00  0.00    +0.000 C 
ATOM     19  S   UNL     1       2.154  11.127  17.964  0.00  0.00    +0.000 S 
BRANCH  18  20
ATOM     20  S   UNL     1      -0.608   9.956  17.784  0.00  0.00    +0.000 S 
BRANCH  20  21
ATOM     21  N   UNL     1      -1.655  10.900  18.656  0.00  0.00    +0.000 N 
ATOM     22  C   UNL     1      -1.148  12.106  19.324  0.00  0.00    +0.000 C 
ATOM     23  C   UNL     1      -2.425  12.774  19.865  0.00  0.00    +0.000 C 
ATOM     24  N   UNL     1      -3.488  12.081  19.169  0.00  0.00    +0.000 N 
ATOM     25  C   UNL     1      -3.014  11.006  18.478  0.00  0.00    +0.000 A 
ATOM     26  N   UNL     1      -3.857  10.302  17.801  0.00  0.00    +0.000 NA
ATOM     27  S   UNL     1      -5.402  10.977  18.039  0.00  0.00    +0.000 S 
ATOM     28  C   UNL     1      -4.824  12.257  19.105  0.00  0.00    +0.000 A 
ATOM     29  S   UNL     1      -5.741  13.398  19.875  0.00  0.00    +0.000 S 
ENDBRANCH  20  21
ENDBRANCH  18  20
ENDBRANCH   6  18
TORSDOF 5
ENDMDL
MODEL 4
REMARK VINA RESULT:      -6.7      2.916      3.702
REMARK  Name = 
REMARK  5 active torsions:
REMARK  status: ('A' for Active; 'I' for Inactive)
REMARK    1  A    between atoms: S_2  and  N_4
REMARK    2  A    between atoms: S_2  and  C_22
REMARK    3  A    between atoms: N_9  and  C_10
REMARK    4  A    between atoms: C_10  and  S_12
REMARK    5  A    between atoms: S_12  and  N_13
REMARK                            x       y       z     vdW  Elec       q    Type
REMARK                         _______ _______ _______ _____ _____    ______ ____
ROOT
ATOM      1  N   UNL     1       4.512   5.761  19.791  0.00  0.00    +0.000 N 
ATOM      2  C   UNL     1       3.209   5.356  19.990  0.00  0.00    +0.000 C 
ATOM      3  N   UNL     1       2.931   4.132  20.304  0.00  0.00    +0.000 NA
ATOM      4  C   UNL     1       1.462   4.048  20.235  0.00  0.00    +0.000 C 
ATOM      5  C   UNL     1       0.979   5.478  20.310  0.00  0.00    +0.000 C 
ATOM      6  N   UNL     1       2.124   6.238  19.874  0.00  0.00    +0.000 N 
ATOM      7  H   UNL     1       4.720   6.739  19.609  0.00  0.00    +0.000 HD
ENDROOT
BRANCH   1   9
ATOM      8  O   UNL     1       7.004   5.288  19.779  0.00  0.00    +0.000 OA
ATOM      9  S   UNL     1       5.748   4.776  19.270  0.00  0.00    +0.000 S 
ATOM     10  O   UNL     1       5.349   3.423  19.597  0.00  0.00    +0.000 OA
BRANCH   9  11
ATOM     11  C   UNL     1       5.742   4.932  17.508  0.00  0.00    +0.000 A 
ATOM     12  C   UNL     1       5.088   3.939  16.760  0.00  0.00    +0.000 A 
ATOM     13  C   UNL     1       4.997   4.044  15.373  0.00  0.00    +0.000 A 
ATOM     14  C   UNL     1       5.558   5.140  14.726  0.00  0.00    +0.000 A 
ATOM     15  C   UNL     1       6.212   6.128  15.465  0.00  0.00    +0.000 A 
ATOM     16  C   UNL     1       6.312   6.030  16.860  0.00  0.00    +0.000 A 
ATOM     17 CL   UNL     1       7.173   7.290  17.669  0.00  0.00    +0.000 Cl
ENDBRANCH   9  11
ENDBRANCH   1   9
BRANCH   6  18
ATOM     18  C   UNL     1       2.041   7.599  19.531  0.00  0.00    +0.000 C 
ATOM     19  S   UNL     1       2.492   8.236  18.036  0.00  0.00    +0.000 S 
BRANCH  18  20
ATOM     20  S   UNL     1       1.211   8.618  20.728  0.00  0.00    +0.000 S 
BRANCH  20  21
ATOM     21  N   UNL     1       0.746   9.962  19.879  0.00  0.00    +0.000 N 
ATOM     22  C   UNL     1      -0.437   9.891  19.010  0.00  0.00    +0.000 C 
ATOM     23  C   UNL     1      -0.626  11.346  18.549  0.00  0.00    +0.000 C 
ATOM     24  N   UNL     1       0.224  12.097  19.447  0.00  0.00    +0.000 N 
ATOM     25  C   UNL     1       1.002  11.274  20.205  0.00  0.00    +0.000 A 
ATOM     26  N   UNL     1       1.803  11.814  21.060  0.00  0.00    +0.000 NA
ATOM     27  S   UNL     1       1.636  13.503  20.928  0.00  0.00    +0.000 S 
ATOM     28  C   UNL     1       0.425  13.416  19.650  0.00  0.00    +0.000 A 
ATOM     29  S   UNL     1      -0.280  14.688  18.860  0.00  0.00    +0.000 S 
ENDBRANCH  20  21
ENDBRANCH  18  20
ENDBRANCH   6  18
TORSDOF 5
ENDMDL
MODEL 5
REMARK VINA RESULT:      -6.7      0.969      1.167
REMARK  Name = 
REMARK  5 active torsions:
REMARK  status: ('A' for Active; 'I' for Inactive)
REMARK    1  A    between atoms: S_2  and  N_4
REMARK    2  A    between atoms: S_2  and  C_22
REMARK    3  A    between atoms: N_9  and  C_10
REMARK    4  A    between atoms: C_10  and  S_12
REMARK    5  A    between atoms: S_12  and  N_13
REMARK                            x       y       z     vdW  Elec       q    Type
REMARK                         _______ _______ _______ _____ _____    ______ ____
ROOT
ATOM      1  N   UNL     1       2.017   7.046  20.174  0.00  0.00    +0.000 N 
ATOM      2  C   UNL     1       1.158   7.925  20.801  0.00  0.00    +0.000 C 
ATOM      3  N   UNL     1       0.608   7.627  21.934  0.00  0.00    +0.000 NA
ATOM      4  C   UNL     1      -0.371   8.700  22.173  0.00  0.00    +0.000 C 
ATOM      5  C   UNL     1       0.061   9.837  21.275  0.00  0.00    +0.000 C 
ATOM      6  N   UNL     1       0.841   9.178  20.257  0.00  0.00    +0.000 N 
ATOM      7  H   UNL     1       2.491   7.320  19.318  0.00  0.00    +0.000 HD
ENDROOT
BRANCH   1   9
ATOM      8  O   UNL     1       2.683   5.014  21.539  0.00  0.00    +0.000 OA
ATOM      9  S   UNL     1       1.972   5.390  20.334  0.00  0.00    +0.000 S 
ATOM     10  O   UNL     1       0.583   5.009  20.183  0.00  0.00    +0.000 OA
BRANCH   9  11
ATOM     11  C   UNL     1       2.859   4.773  18.934  0.00  0.00    +0.000 A 
ATOM     12  C   UNL     1       3.567   5.694  18.143  0.00  0.00    +0.000 A 
ATOM     13  C   UNL     1       4.334   5.256  17.065  0.00  0.00    +0.000 A 
ATOM     14  C   UNL     1       4.401   3.898  16.771  0.00  0.00    +0.000 A 
ATOM     15  C   UNL     1       3.696   2.979  17.553  0.00  0.00    +0.000 A 
ATOM     16  C   UNL     1       2.919   3.410  18.637  0.00  0.00    +0.000 A 
ATOM     17 CL   UNL     1       2.062   2.192  19.512  0.00  0.00    +0.000 Cl
ENDBRANCH   9  11
ENDBRANCH   1   9
BRANCH   6  18
ATOM     18  C   UNL     1       1.216   9.816  19.062  0.00  0.00    +0.000 C 
ATOM     19  S   UNL     1       2.015   9.057  17.786  0.00  0.00    +0.000 S 
BRANCH  18  20
ATOM     20  S   UNL     1       0.597  11.471  18.876  0.00  0.00    +0.000 S 
BRANCH  20  21
ATOM     21  N   UNL     1      -0.952  11.276  18.319  0.00  0.00    +0.000 N 
ATOM     22  C   UNL     1      -1.271  10.116  17.476  0.00  0.00    +0.000 C 
ATOM     23  C   UNL     1      -2.798  10.206  17.315  0.00  0.00    +0.000 C 
ATOM     24  N   UNL     1      -3.188  11.163  18.328  0.00  0.00    +0.000 N 
ATOM     25  C   UNL     1      -2.103  11.762  18.893  0.00  0.00    +0.000 A 
ATOM     26  N   UNL     1      -2.307  12.634  19.823  0.00  0.00    +0.000 NA
ATOM     27  S   UNL     1      -3.990  12.781  20.030  0.00  0.00    +0.000 S 
ATOM     28  C   UNL     1      -4.382  11.598  18.784  0.00  0.00    +0.000 A 
ATOM     29  S   UNL     1      -5.892  11.153  18.275  0.00  0.00    +0.000 S 
ENDBRANCH  20  21
ENDBRANCH  18  20
ENDBRANCH   6  18
TORSDOF 5
ENDMDL
MODEL 6
REMARK VINA RESULT:      -6.6      3.957      5.845
REMARK  Name = 
REMARK  5 active torsions:
REMARK  status: ('A' for Active; 'I' for Inactive)
REMARK    1  A    between atoms: S_2  and  N_4
REMARK    2  A    between atoms: S_2  and  C_22
REMARK    3  A    between atoms: N_9  and  C_10
REMARK    4  A    between atoms: C_10  and  S_12
REMARK    5  A    between atoms: S_12  and  N_13
REMARK                            x       y       z     vdW  Elec       q    Type
REMARK                         _______ _______ _______ _____ _____    ______ ____
ROOT
ATOM      1  N   UNL     1       0.314  10.856  21.331  0.00  0.00    +0.000 N 
ATOM      2  C   UNL     1      -0.715  11.520  21.967  0.00  0.00    +0.000 C 
ATOM      3  N   UNL     1      -1.125  11.149  23.137  0.00  0.00    +0.000 NA
ATOM      4  C   UNL     1      -2.335  11.952  23.386  0.00  0.00    +0.000 C 
ATOM      5  C   UNL     1      -2.243  13.115  22.425  0.00  0.00    +0.000 C 
ATOM      6  N   UNL     1      -1.361  12.625  21.394  0.00  0.00    +0.000 N 
ATOM      7  H   UNL     1       0.668  11.199  20.443  0.00  0.00    +0.000 HD
ENDROOT
BRANCH   1   9
ATOM      8  O   UNL     1       1.704   9.150  22.593  0.00  0.00    +0.000 OA
ATOM      9  S   UNL     1       0.698   9.253  21.555  0.00  0.00    +0.000 S 
ATOM     10  O   UNL     1      -0.562   8.557  21.718  0.00  0.00    +0.000 OA
BRANCH   9  11
ATOM     11  C   UNL     1       1.408   8.736  20.020  0.00  0.00    +0.000 A 
ATOM     12  C   UNL     1       1.481   9.675  18.977  0.00  0.00    +0.000 A 
ATOM     13  C   UNL     1       2.089   9.342  17.768  0.00  0.00    +0.000 A 
ATOM     14  C   UNL     1       2.627   8.071  17.592  0.00  0.00    +0.000 A 
ATOM     15  C   UNL     1       2.553   7.133  18.625  0.00  0.00    +0.000 A 
ATOM     16  C   UNL     1       1.942   7.458  19.844  0.00  0.00    +0.000 A 
ATOM     17 CL   UNL     1       1.876   6.210  21.037  0.00  0.00    +0.000 Cl
ENDBRANCH   9  11
ENDBRANCH   1   9
BRANCH   6  18
ATOM     18  C   UNL     1      -1.208  13.277  20.159  0.00  0.00    +0.000 C 
ATOM     19  S   UNL     1      -1.321  12.517  18.657  0.00  0.00    +0.000 S 
BRANCH  18  20
ATOM     20  S   UNL     1      -1.091  15.048  20.262  0.00  0.00    +0.000 S 
BRANCH  20  21
ATOM     21  N   UNL     1       0.491  15.338  20.663  0.00  0.00    +0.000 N 
ATOM     22  C   UNL     1       0.890  15.316  22.076  0.00  0.00    +0.000 C 
ATOM     23  C   UNL     1       2.421  15.457  22.013  0.00  0.00    +0.000 C 
ATOM     24  N   UNL     1       2.726  15.202  20.622  0.00  0.00    +0.000 N 
ATOM     25  C   UNL     1       1.594  15.135  19.867  0.00  0.00    +0.000 A 
ATOM     26  N   UNL     1       1.721  14.901  18.604  0.00  0.00    +0.000 NA
ATOM     27  S   UNL     1       3.385  14.776  18.267  0.00  0.00    +0.000 S 
ATOM     28  C   UNL     1       3.879  15.063  19.935  0.00  0.00    +0.000 A 
ATOM     29  S   UNL     1       5.427  15.166  20.509  0.00  0.00    +0.000 S 
ENDBRANCH  20  21
ENDBRANCH  18  20
ENDBRANCH   6  18
TORSDOF 5
ENDMDL
MODEL 7
REMARK VINA RESULT:      -6.6      1.340      1.914
REMARK  Name = 
REMARK  5 active torsions:
REMARK  status: ('A' for Active; 'I' for Inactive)
REMARK    1  A    between atoms: S_2  and  N_4
REMARK    2  A    between atoms: S_2  and  C_22
REMARK    3  A    between atoms: N_9  and  C_10
REMARK    4  A    between atoms: C_10  and  S_12
REMARK    5  A    between atoms: S_12  and  N_13
REMARK                            x       y       z     vdW  Elec       q    Type
REMARK                         _______ _______ _______ _____ _____    ______ ____
ROOT
ATOM      1  N   UNL     1       2.098   7.084  20.135  0.00  0.00    +0.000 N 
ATOM      2  C   UNL     1       1.370   8.023  20.836  0.00  0.00    +0.000 C 
ATOM      3  N   UNL     1       0.934   7.775  22.029  0.00  0.00    +0.000 NA
ATOM      4  C   UNL     1       0.056   8.911  22.355  0.00  0.00    +0.000 C 
ATOM      5  C   UNL     1       0.453  10.007  21.392  0.00  0.00    +0.000 C 
ATOM      6  N   UNL     1       1.072   9.288  20.307  0.00  0.00    +0.000 N 
ATOM      7  H   UNL     1       2.489   7.317  19.227  0.00  0.00    +0.000 HD
ENDROOT
BRANCH   1   9
ATOM      8  O   UNL     1       2.658   5.052  21.546  0.00  0.00    +0.000 OA
ATOM      9  S   UNL     1       1.969   5.436  20.331  0.00  0.00    +0.000 S 
ATOM     10  O   UNL     1       0.563   5.123  20.183  0.00  0.00    +0.000 OA
BRANCH   9  11
ATOM     11  C   UNL     1       2.827   4.745  18.947  0.00  0.00    +0.000 A 
ATOM     12  C   UNL     1       3.549   5.617  18.115  0.00  0.00    +0.000 A 
ATOM     13  C   UNL     1       4.294   5.120  17.048  0.00  0.00    +0.000 A 
ATOM     14  C   UNL     1       4.325   3.750  16.806  0.00  0.00    +0.000 A 
ATOM     15  C   UNL     1       3.606   2.880  17.628  0.00  0.00    +0.000 A 
ATOM     16  C   UNL     1       2.850   3.371  18.702  0.00  0.00    +0.000 A 
ATOM     17 CL   UNL     1       1.973   2.208  19.631  0.00  0.00    +0.000 Cl
ENDBRANCH   9  11
ENDBRANCH   1   9
BRANCH   6  18
ATOM     18  C   UNL     1       1.350   9.885  19.066  0.00  0.00    +0.000 C 
ATOM     19  S   UNL     1       1.886   9.049  17.702  0.00  0.00    +0.000 S 
BRANCH  18  20
ATOM     20  S   UNL     1       0.890  11.598  18.945  0.00  0.00    +0.000 S 
BRANCH  20  21
ATOM     21  N   UNL     1      -0.761  11.596  19.086  0.00  0.00    +0.000 N 
ATOM     22  C   UNL     1      -1.415  12.632  19.897  0.00  0.00    +0.000 C 
ATOM     23  C   UNL     1      -2.912  12.390  19.640  0.00  0.00    +0.000 C 
ATOM     24  N   UNL     1      -2.919  11.509  18.493  0.00  0.00    +0.000 N 
ATOM     25  C   UNL     1      -1.664  11.069  18.193  0.00  0.00    +0.000 A 
ATOM     26  N   UNL     1      -1.524  10.281  17.181  0.00  0.00    +0.000 NA
ATOM     27  S   UNL     1      -3.070  10.004  16.524  0.00  0.00    +0.000 S 
ATOM     28  C   UNL     1      -3.899  11.016  17.706  0.00  0.00    +0.000 A 
ATOM     29  S   UNL     1      -5.529  11.270  17.828  0.00  0.00    +0.000 S 
ENDBRANCH  20  21
ENDBRANCH  18  20
ENDBRANCH   6  18
TORSDOF 5
ENDMDL
MODEL 8
REMARK VINA RESULT:      -6.5      5.218      7.355
REMARK  Name = 
REMARK  5 active torsions:
REMARK  status: ('A' for Active; 'I' for Inactive)
REMARK    1  A    between atoms: S_2  and  N_4
REMARK    2  A    between atoms: S_2  and  C_22
REMARK    3  A    between atoms: N_9  and  C_10
REMARK    4  A    between atoms: C_10  and  S_12
REMARK    5  A    between atoms: S_12  and  N_13
REMARK                            x       y       z     vdW  Elec       q    Type
REMARK                         _______ _______ _______ _____ _____    ______ ____
ROOT
ATOM      1  N   UNL     1      -2.825  12.033  19.314  0.00  0.00    +0.000 N 
ATOM      2  C   UNL     1      -3.123  11.582  18.045  0.00  0.00    +0.000 C 
ATOM      3  N   UNL     1      -2.225  11.004  17.314  0.00  0.00    +0.000 NA
ATOM      4  C   UNL     1      -2.853  10.854  15.991  0.00  0.00    +0.000 C 
ATOM      5  C   UNL     1      -4.338  10.987  16.240  0.00  0.00    +0.000 C 
ATOM      6  N   UNL     1      -4.402  11.714  17.484  0.00  0.00    +0.000 N 
ATOM      7  H   UNL     1      -3.556  12.425  19.900  0.00  0.00    +0.000 HD
ENDROOT
BRANCH   1   9
ATOM      8  O   UNL     1      -0.424  12.558  18.685  0.00  0.00    +0.000 OA
ATOM      9  S   UNL     1      -1.318  12.521  19.824  0.00  0.00    +0.000 S 
ATOM     10  O   UNL     1      -1.527  13.727  20.600  0.00  0.00    +0.000 OA
BRANCH   9  11
ATOM     11  C   UNL     1      -0.778  11.251  20.931  0.00  0.00    +0.000 A 
ATOM     12  C   UNL     1      -1.126  11.366  22.287  0.00  0.00    +0.000 A 
ATOM     13  C   UNL     1      -0.782  10.363  23.192  0.00  0.00    +0.000 A 
ATOM     14  C   UNL     1      -0.091   9.241  22.749  0.00  0.00    +0.000 A 
ATOM     15  C   UNL     1       0.260   9.124  21.402  0.00  0.00    +0.000 A 
ATOM     16  C   UNL     1      -0.078  10.129  20.485  0.00  0.00    +0.000 A 
ATOM     17 CL   UNL     1       0.437   9.897  18.852  0.00  0.00    +0.000 Cl
ENDBRANCH   9  11
ENDBRANCH   1   9
BRANCH   6  18
ATOM     18  C   UNL     1      -5.589  12.297  17.958  0.00  0.00    +0.000 C 
ATOM     19  S   UNL     1      -6.666  13.181  17.008  0.00  0.00    +0.000 S 
BRANCH  18  20
ATOM     20  S   UNL     1      -6.016  11.859  19.628  0.00  0.00    +0.000 S 
BRANCH  20  21
ATOM     21  N   UNL     1      -5.710  13.228  20.509  0.00  0.00    +0.000 N 
ATOM     22  C   UNL     1      -6.502  14.439  20.254  0.00  0.00    +0.000 C 
ATOM     23  C   UNL     1      -6.040  15.403  21.360  0.00  0.00    +0.000 C 
ATOM     24  N   UNL     1      -5.328  14.543  22.281  0.00  0.00    +0.000 N 
ATOM     25  C   UNL     1      -5.155  13.294  21.765  0.00  0.00    +0.000 A 
ATOM     26  N   UNL     1      -4.541  12.419  22.489  0.00  0.00    +0.000 NA
ATOM     27  S   UNL     1      -4.089  13.179  23.944  0.00  0.00    +0.000 S 
ATOM     28  C   UNL     1      -4.779  14.739  23.498  0.00  0.00    +0.000 A 
ATOM     29  S   UNL     1      -4.728  16.137  24.382  0.00  0.00    +0.000 S 
ENDBRANCH  20  21
ENDBRANCH  18  20
ENDBRANCH   6  18
TORSDOF 5
ENDMDL
MODEL 9
REMARK VINA RESULT:      -6.5      5.726      9.502
REMARK  Name = 
REMARK  5 active torsions:
REMARK  status: ('A' for Active; 'I' for Inactive)
REMARK    1  A    between atoms: S_2  and  N_4
REMARK    2  A    between atoms: S_2  and  C_22
REMARK    3  A    between atoms: N_9  and  C_10
REMARK    4  A    between atoms: C_10  and  S_12
REMARK    5  A    between atoms: S_12  and  N_13
REMARK                            x       y       z     vdW  Elec       q    Type
REMARK                         _______ _______ _______ _____ _____    ______ ____
ROOT
ATOM      1  N   UNL     1      -4.966  12.780  21.287  0.00  0.00    +0.000 N 
ATOM      2  C   UNL     1      -4.410  12.885  22.545  0.00  0.00    +0.000 C 
ATOM      3  N   UNL     1      -4.938  12.280  23.560  0.00  0.00    +0.000 NA
ATOM      4  C   UNL     1      -4.198  12.785  24.729  0.00  0.00    +0.000 C 
ATOM      5  C   UNL     1      -2.917  13.360  24.167  0.00  0.00    +0.000 C 
ATOM      6  N   UNL     1      -3.252  13.636  22.793  0.00  0.00    +0.000 N 
ATOM      7  H   UNL     1      -4.504  13.206  20.489  0.00  0.00    +0.000 HD
ENDROOT
BRANCH   1   9
ATOM      8  O   UNL     1      -6.833  11.083  21.025  0.00  0.00    +0.000 OA
ATOM      9  S   UNL     1      -6.578  12.508  20.975  0.00  0.00    +0.000 S 
ATOM     10  O   UNL     1      -7.313  13.391  21.858  0.00  0.00    +0.000 OA
BRANCH   9  11
ATOM     11  C   UNL     1      -6.822  13.073  19.317  0.00  0.00    +0.000 A 
ATOM     12  C   UNL     1      -7.573  14.246  19.123  0.00  0.00    +0.000 A 
ATOM     13  C   UNL     1      -7.743  14.771  17.843  0.00  0.00    +0.000 A 
ATOM     14  C   UNL     1      -7.166  14.131  16.751  0.00  0.00    +0.000 A 
ATOM     15  C   UNL     1      -6.423  12.964  16.939  0.00  0.00    +0.000 A 
ATOM     16  C   UNL     1      -6.248  12.425  18.222  0.00  0.00    +0.000 A 
ATOM     17 CL   UNL     1      -5.340  10.960  18.333  0.00  0.00    +0.000 Cl
ENDBRANCH   9  11
ENDBRANCH   1   9
BRANCH   6  18
ATOM     18  C   UNL     1      -2.441  14.429  21.962  0.00  0.00    +0.000 C 
ATOM     19  S   UNL     1      -3.024  15.578  20.874  0.00  0.00    +0.000 S 
BRANCH  18  20
ATOM     20  S   UNL     1      -0.697  14.298  22.282  0.00  0.00    +0.000 S 
BRANCH  20  21
ATOM     21  N   UNL     1      -0.230  12.921  21.489  0.00  0.00    +0.000 N 
ATOM     22  C   UNL     1       0.650  13.029  20.318  0.00  0.00    +0.000 C 
ATOM     23  C   UNL     1       0.977  11.564  19.984  0.00  0.00    +0.000 C 
ATOM     24  N   UNL     1       0.546  10.845  21.164  0.00  0.00    +0.000 N 
ATOM     25  C   UNL     1      -0.146  11.653  22.016  0.00  0.00    +0.000 A 
ATOM     26  N   UNL     1      -0.582  11.141  23.117  0.00  0.00    +0.000 NA
ATOM     27  S   UNL     1      -0.146   9.496  23.129  0.00  0.00    +0.000 S 
ATOM     28  C   UNL     1       0.652   9.559  21.558  0.00  0.00    +0.000 A 
ATOM     29  S   UNL     1       1.348   8.297  20.745  0.00  0.00    +0.000 S 
ENDBRANCH  20  21
ENDBRANCH  18  20
ENDBRANCH   6  18
TORSDOF 5
ENDMDL
