MODEL 1
REMARK VINA RESULT:      -8.4      0.000      0.000
REMARK  Name = 
REMARK  8 active torsions:
REMARK  status: ('A' for Active; 'I' for Inactive)
REMARK    1  A    between atoms: C_1  and  N_2
REMARK    2  A    between atoms: C_3  and  C_4
REMARK    3  A    between atoms: C_4  and  O_5
REMARK    4  A    between atoms: O_5  and  C_6
REMARK    5  A    between atoms: C_10  and  C_11
REMARK    6  A    between atoms: C_11  and  O_13
REMARK    7  A    between atoms: C_19  and  O_20
REMARK    8  A    between atoms: O_20  and  C_21
REMARK                            x       y       z     vdW  Elec       q    Type
REMARK                         _______ _______ _______ _____ _____    ______ ____
ROOT
ATOM      1  C   UNL     1       1.886   9.913  18.097  0.00  0.00    +0.000 C 
ATOM      2  N   UNL     1       1.614   9.027  19.203  0.00  0.00    +0.000 N 
ATOM      3  C   UNL     1       1.118   9.350  20.451  0.00  0.00    +0.000 A 
ATOM      4  N   UNL     1       1.106   8.277  21.227  0.00  0.00    +0.000 NA
ATOM      5  C   UNL     1       1.586   7.245  20.467  0.00  0.00    +0.000 A 
ATOM      6  C   UNL     1       1.788   5.896  20.800  0.00  0.00    +0.000 A 
ATOM      7  C   UNL     1       2.341   5.034  19.838  0.00  0.00    +0.000 A 
ATOM      8  C   UNL     1       2.669   5.500  18.564  0.00  0.00    +0.000 A 
ATOM      9  C   UNL     1       2.395   6.826  18.191  0.00  0.00    +0.000 A 
ATOM     10  C   UNL     1       1.895   7.679  19.184  0.00  0.00    +0.000 A 
ENDROOT
BRANCH   3  11
ATOM     11  C   UNL     1       0.671  10.717  20.870  0.00  0.00    +0.000 C 
BRANCH  11  12
ATOM     12  O   UNL     1      -0.277  10.533  21.922  0.00  0.00    +0.000 OA
BRANCH  12  13
ATOM     13  C   UNL     1      -1.260  11.473  22.066  0.00  0.00    +0.000 A 
ATOM     14  C   UNL     1      -1.347  12.383  21.008  0.00  0.00    +0.000 A 
ATOM     15  C   UNL     1      -2.266  13.435  21.036  0.00  0.00    +0.000 A 
ATOM     16  C   UNL     1      -3.113  13.587  22.132  0.00  0.00    +0.000 A 
ATOM     17  C   UNL     1      -3.057  12.663  23.183  0.00  0.00    +0.000 A 
ATOM     18  C   UNL     1      -2.124  11.613  23.152  0.00  0.00    +0.000 A 
BRANCH  17  19
ATOM     19  C   UNL     1      -3.920  12.795  24.385  0.00  0.00    +0.000 C 
ATOM     20  O   UNL     1      -4.711  11.928  24.722  0.00  0.00    +0.000 OA
BRANCH  19  21
ATOM     21  O   UNL     1      -3.779  13.963  25.049  0.00  0.00    +0.000 OA
ATOM     22  H   UNL     1      -3.384  13.896  25.937  0.00  0.00    +0.000 HD
ENDBRANCH  19  21
ENDBRANCH  17  19
ENDBRANCH  12  13
ENDBRANCH  11  12
ENDBRANCH   3  11
BRANCH   8  23
ATOM     23  O   UNL     1       3.222   4.570  17.705  0.00  0.00    +0.000 OA
BRANCH  23  24
ATOM     24  C   UNL     1       4.575   4.600  17.447  0.00  0.00    +0.000 A 
ATOM     25  C   UNL     1       4.976   4.131  16.197  0.00  0.00    +0.000 A 
ATOM     26  C   UNL     1       6.325   4.144  15.858  0.00  0.00    +0.000 A 
ATOM     27  F   UNL     1       6.706   3.700  14.653  0.00  0.00    +0.000 F 
ATOM     28  C   UNL     1       7.286   4.619  16.742  0.00  0.00    +0.000 A 
ATOM     29  C   UNL     1       6.884   5.055  18.001  0.00  0.00    +0.000 A 
ATOM     30 CL   UNL     1       8.053   5.670  19.104  0.00  0.00    +0.000 Cl
ATOM     31  C   UNL     1       5.540   5.017  18.372  0.00  0.00    +0.000 A 
ENDBRANCH  23  24
ENDBRANCH   8  23
TORSDOF 7
ENDMDL
MODEL 2
REMARK VINA RESULT:      -8.4      1.365      1.718
REMARK  Name = 
REMARK  8 active torsions:
REMARK  status: ('A' for Active; 'I' for Inactive)
REMARK    1  A    between atoms: C_1  and  N_2
REMARK    2  A    between atoms: C_3  and  C_4
REMARK    3  A    between atoms: C_4  and  O_5
REMARK    4  A    between atoms: O_5  and  C_6
REMARK    5  A    between atoms: C_10  and  C_11
REMARK    6  A    between atoms: C_11  and  O_13
REMARK    7  A    between atoms: C_19  and  O_20
REMARK    8  A    between atoms: O_20  and  C_21
REMARK                            x       y       z     vdW  Elec       q    Type
REMARK                         _______ _______ _______ _____ _____    ______ ____
ROOT
ATOM      1  C   UNL     1       2.101   9.602  17.844  0.00  0.00    +0.000 C 
ATOM      2  N   UNL     1       1.757   8.848  19.026  0.00  0.00    +0.000 N 
ATOM      3  C   UNL     1       1.204   9.314  20.203  0.00  0.00    +0.000 A 
ATOM      4  N   UNL     1       1.133   8.334  21.091  0.00  0.00    +0.000 NA
ATOM      5  C   UNL     1       1.632   7.218  20.475  0.00  0.00    +0.000 A 
ATOM      6  C   UNL     1       1.791   5.912  20.965  0.00  0.00    +0.000 A 
ATOM      7  C   UNL     1       2.375   4.941  20.135  0.00  0.00    +0.000 A 
ATOM      8  C   UNL     1       2.777   5.258  18.836  0.00  0.00    +0.000 A 
ATOM      9  C   UNL     1       2.547   6.538  18.305  0.00  0.00    +0.000 A 
ATOM     10  C   UNL     1       2.014   7.502  19.170  0.00  0.00    +0.000 A 
ENDROOT
BRANCH   3  11
ATOM     11  C   UNL     1       0.762  10.725  20.444  0.00  0.00    +0.000 C 
BRANCH  11  12
ATOM     12  O   UNL     1       0.100  10.735  21.709  0.00  0.00    +0.000 OA
BRANCH  12  13
ATOM     13  C   UNL     1      -1.094  11.396  21.798  0.00  0.00    +0.000 A 
ATOM     14  C   UNL     1      -1.574  11.886  20.579  0.00  0.00    +0.000 A 
ATOM     15  C   UNL     1      -2.754  12.630  20.516  0.00  0.00    +0.000 A 
ATOM     16  C   UNL     1      -3.471  12.893  21.681  0.00  0.00    +0.000 A 
ATOM     17  C   UNL     1      -3.019  12.380  22.904  0.00  0.00    +0.000 A 
ATOM     18  C   UNL     1      -1.826  11.640  22.961  0.00  0.00    +0.000 A 
BRANCH  17  19
ATOM     19  C   UNL     1      -3.732  12.652  24.178  0.00  0.00    +0.000 C 
ATOM     20  O   UNL     1      -3.516  13.649  24.849  0.00  0.00    +0.000 OA
BRANCH  19  21
ATOM     21  O   UNL     1      -4.609  11.692  24.544  0.00  0.00    +0.000 OA
ATOM     22  H   UNL     1      -4.280  10.778  24.480  0.00  0.00    +0.000 HD
ENDBRANCH  19  21
ENDBRANCH  17  19
ENDBRANCH  12  13
ENDBRANCH  11  12
ENDBRANCH   3  11
BRANCH   8  23
ATOM     23  O   UNL     1       3.355   4.232  18.115  0.00  0.00    +0.000 OA
BRANCH  23  24
ATOM     24  C   UNL     1       4.611   4.402  17.574  0.00  0.00    +0.000 A 
ATOM     25  C   UNL     1       5.635   4.695  18.473  0.00  0.00    +0.000 A 
ATOM     26  C   UNL     1       6.933   4.866  18.003  0.00  0.00    +0.000 A 
ATOM     27  F   UNL     1       7.917   5.141  18.870  0.00  0.00    +0.000 F 
ATOM     28  C   UNL     1       7.233   4.747  16.652  0.00  0.00    +0.000 A 
ATOM     29  C   UNL     1       6.202   4.487  15.755  0.00  0.00    +0.000 A 
ATOM     30 CL   UNL     1       6.551   4.310  14.080  0.00  0.00    +0.000 Cl
ATOM     31  C   UNL     1       4.888   4.347  16.203  0.00  0.00    +0.000 A 
ENDBRANCH  23  24
ENDBRANCH   8  23
TORSDOF 7
ENDMDL
MODEL 3
REMARK VINA RESULT:      -8.2      2.896      3.753
REMARK  Name = 
REMARK  8 active torsions:
REMARK  status: ('A' for Active; 'I' for Inactive)
REMARK    1  A    between atoms: C_1  and  N_2
REMARK    2  A    between atoms: C_3  and  C_4
REMARK    3  A    between atoms: C_4  and  O_5
REMARK    4  A    between atoms: O_5  and  C_6
REMARK    5  A    between atoms: C_10  and  C_11
REMARK    6  A    between atoms: C_11  and  O_13
REMARK    7  A    between atoms: C_19  and  O_20
REMARK    8  A    between atoms: O_20  and  C_21
REMARK                            x       y       z     vdW  Elec       q    Type
REMARK                         _______ _______ _______ _____ _____    ______ ____
ROOT
ATOM      1  C   UNL     1       2.238   9.174  17.876  0.00  0.00    +0.000 C 
ATOM      2  N   UNL     1       1.881   8.388  19.033  0.00  0.00    +0.000 N 
ATOM      3  C   UNL     1       1.286   8.816  20.203  0.00  0.00    +0.000 A 
ATOM      4  N   UNL     1       1.215   7.816  21.069  0.00  0.00    +0.000 NA
ATOM      5  C   UNL     1       1.758   6.725  20.445  0.00  0.00    +0.000 A 
ATOM      6  C   UNL     1       1.936   5.414  20.912  0.00  0.00    +0.000 A 
ATOM      7  C   UNL     1       2.566   4.475  20.079  0.00  0.00    +0.000 A 
ATOM      8  C   UNL     1       2.994   4.828  18.798  0.00  0.00    +0.000 A 
ATOM      9  C   UNL     1       2.748   6.113  18.287  0.00  0.00    +0.000 A 
ATOM     10  C   UNL     1       2.167   7.046  19.156  0.00  0.00    +0.000 A 
ENDROOT
BRANCH   3  11
ATOM     11  C   UNL     1       0.803  10.210  20.460  0.00  0.00    +0.000 C 
BRANCH  11  12
ATOM     12  O   UNL     1       0.514  10.784  19.185  0.00  0.00    +0.000 OA
BRANCH  12  13
ATOM     13  C   UNL     1      -0.787  11.108  18.913  0.00  0.00    +0.000 A 
ATOM     14  C   UNL     1      -1.407  11.883  19.898  0.00  0.00    +0.000 A 
ATOM     15  C   UNL     1      -2.751  12.248  19.788  0.00  0.00    +0.000 A 
ATOM     16  C   UNL     1      -3.493  11.837  18.683  0.00  0.00    +0.000 A 
ATOM     17  C   UNL     1      -2.875  11.088  17.674  0.00  0.00    +0.000 A 
ATOM     18  C   UNL     1      -1.525  10.717  17.795  0.00  0.00    +0.000 A 
BRANCH  17  19
ATOM     19  C   UNL     1      -3.628  10.604  16.488  0.00  0.00    +0.000 C 
ATOM     20  O   UNL     1      -3.143   9.837  15.672  0.00  0.00    +0.000 OA
BRANCH  19  21
ATOM     21  O   UNL     1      -4.876  11.110  16.374  0.00  0.00    +0.000 OA
ATOM     22  H   UNL     1      -5.467  10.943  17.130  0.00  0.00    +0.000 HD
ENDBRANCH  19  21
ENDBRANCH  17  19
ENDBRANCH  12  13
ENDBRANCH  11  12
ENDBRANCH   3  11
BRANCH   8  23
ATOM     23  O   UNL     1       3.617   3.831  18.072  0.00  0.00    +0.000 OA
BRANCH  23  24
ATOM     24  C   UNL     1       4.816   4.091  17.447  0.00  0.00    +0.000 A 
ATOM     25  C   UNL     1       5.878   4.456  18.275  0.00  0.00    +0.000 A 
ATOM     26  C   UNL     1       7.124   4.720  17.717  0.00  0.00    +0.000 A 
ATOM     27  F   UNL     1       8.144   5.063  18.515  0.00  0.00    +0.000 F 
ATOM     28  C   UNL     1       7.337   4.624  16.347  0.00  0.00    +0.000 A 
ATOM     29  C   UNL     1       6.267   4.292  15.523  0.00  0.00    +0.000 A 
ATOM     30 CL   UNL     1       6.510   4.144  13.826  0.00  0.00    +0.000 Cl
ATOM     31  C   UNL     1       5.001   4.058  16.060  0.00  0.00    +0.000 A 
ENDBRANCH  23  24
ENDBRANCH   8  23
TORSDOF 7
ENDMDL
MODEL 4
REMARK VINA RESULT:      -8.2      4.562     10.196
REMARK  Name = 
REMARK  8 active torsions:
REMARK  status: ('A' for Active; 'I' for Inactive)
REMARK    1  A    between atoms: C_1  and  N_2
REMARK    2  A    between atoms: C_3  and  C_4
REMARK    3  A    between atoms: C_4  and  O_5
REMARK    4  A    between atoms: O_5  and  C_6
REMARK    5  A    between atoms: C_10  and  C_11
REMARK    6  A    between atoms: C_11  and  O_13
REMARK    7  A    between atoms: C_19  and  O_20
REMARK    8  A    between atoms: O_20  and  C_21
REMARK                            x       y       z     vdW  Elec       q    Type
REMARK                         _______ _______ _______ _____ _____    ______ ____
ROOT
ATOM      1  C   UNL     1       3.468   6.254  17.209  0.00  0.00    +0.000 C 
ATOM      2  N   UNL     1       2.964   6.179  18.559  0.00  0.00    +0.000 N 
ATOM      3  C   UNL     1       2.981   5.096  19.416  0.00  0.00    +0.000 A 
ATOM      4  N   UNL     1       2.329   5.388  20.531  0.00  0.00    +0.000 NA
ATOM      5  C   UNL     1       1.898   6.680  20.399  0.00  0.00    +0.000 A 
ATOM      6  C   UNL     1       1.156   7.479  21.284  0.00  0.00    +0.000 A 
ATOM      7  C   UNL     1       0.800   8.779  20.890  0.00  0.00    +0.000 A 
ATOM      8  C   UNL     1       1.190   9.282  19.648  0.00  0.00    +0.000 A 
ATOM      9  C   UNL     1       2.002   8.525  18.788  0.00  0.00    +0.000 A 
ATOM     10  C   UNL     1       2.298   7.213  19.180  0.00  0.00    +0.000 A 
ENDROOT
BRANCH   3  11
ATOM     11  C   UNL     1       3.632   3.779  19.121  0.00  0.00    +0.000 C 
BRANCH  11  12
ATOM     12  O   UNL     1       4.999   3.902  19.512  0.00  0.00    +0.000 OA
BRANCH  12  13
ATOM     13  C   UNL     1       5.857   4.520  18.644  0.00  0.00    +0.000 A 
ATOM     14  C   UNL     1       6.614   5.549  19.215  0.00  0.00    +0.000 A 
ATOM     15  C   UNL     1       7.495   6.310  18.443  0.00  0.00    +0.000 A 
ATOM     16  C   UNL     1       7.628   6.047  17.082  0.00  0.00    +0.000 A 
ATOM     17  C   UNL     1       6.900   4.999  16.504  0.00  0.00    +0.000 A 
ATOM     18  C   UNL     1       6.009   4.243  17.285  0.00  0.00    +0.000 A 
BRANCH  17  19
ATOM     19  C   UNL     1       6.987   4.694  15.053  0.00  0.00    +0.000 C 
ATOM     20  O   UNL     1       6.377   3.769  14.540  0.00  0.00    +0.000 OA
BRANCH  19  21
ATOM     21  O   UNL     1       7.820   5.501  14.361  0.00  0.00    +0.000 OA
ATOM     22  H   UNL     1       8.742   5.519  14.674  0.00  0.00    +0.000 HD
ENDBRANCH  19  21
ENDBRANCH  17  19
ENDBRANCH  12  13
ENDBRANCH  11  12
ENDBRANCH   3  11
BRANCH   8  23
ATOM     23  O   UNL     1       0.769  10.566  19.357  0.00  0.00    +0.000 OA
BRANCH  23  24
ATOM     24  C   UNL     1      -0.495  10.770  18.849  0.00  0.00    +0.000 A 
ATOM     25  C   UNL     1      -1.320  11.629  19.574  0.00  0.00    +0.000 A 
ATOM     26  C   UNL     1      -2.606  11.897  19.116  0.00  0.00    +0.000 A 
ATOM     27  F   UNL     1      -3.394  12.728  19.811  0.00  0.00    +0.000 F 
ATOM     28  C   UNL     1      -3.086  11.326  17.944  0.00  0.00    +0.000 A 
ATOM     29  C   UNL     1      -2.272  10.444  17.242  0.00  0.00    +0.000 A 
ATOM     30 CL   UNL     1      -2.836   9.744  15.774  0.00  0.00    +0.000 Cl
ATOM     31  C   UNL     1      -0.992  10.136  17.704  0.00  0.00    +0.000 A 
ENDBRANCH  23  24
ENDBRANCH   8  23
TORSDOF 7
ENDMDL
MODEL 5
REMARK VINA RESULT:      -8.1      4.750     11.041
REMARK  Name = 
REMARK  8 active torsions:
REMARK  status: ('A' for Active; 'I' for Inactive)
REMARK    1  A    between atoms: C_1  and  N_2
REMARK    2  A    between atoms: C_3  and  C_4
REMARK    3  A    between atoms: C_4  and  O_5
REMARK    4  A    between atoms: O_5  and  C_6
REMARK    5  A    between atoms: C_10  and  C_11
REMARK    6  A    between atoms: C_11  and  O_13
REMARK    7  A    between atoms: C_19  and  O_20
REMARK    8  A    between atoms: O_20  and  C_21
REMARK                            x       y       z     vdW  Elec       q    Type
REMARK                         _______ _______ _______ _____ _____    ______ ____
ROOT
ATOM      1  C   UNL     1       1.451  11.192  18.477  0.00  0.00    +0.000 C 
ATOM      2  N   UNL     1       1.226  10.200  19.501  0.00  0.00    +0.000 N 
ATOM      3  C   UNL     1       1.557   8.860  19.477  0.00  0.00    +0.000 A 
ATOM      4  N   UNL     1       1.094   8.257  20.562  0.00  0.00    +0.000 NA
ATOM      5  C   UNL     1       0.468   9.223  21.303  0.00  0.00    +0.000 A 
ATOM      6  C   UNL     1      -0.198   9.126  22.535  0.00  0.00    +0.000 A 
ATOM      7  C   UNL     1      -0.801  10.274  23.074  0.00  0.00    +0.000 A 
ATOM      8  C   UNL     1      -0.727  11.500  22.410  0.00  0.00    +0.000 A 
ATOM      9  C   UNL     1       0.006  11.629  21.219  0.00  0.00    +0.000 A 
ATOM     10  C   UNL     1       0.552  10.460  20.674  0.00  0.00    +0.000 A 
ENDROOT
BRANCH   3  11
ATOM     11  C   UNL     1       2.319   8.184  18.378  0.00  0.00    +0.000 C 
BRANCH  11  12
ATOM     12  O   UNL     1       2.218   6.779  18.616  0.00  0.00    +0.000 OA
BRANCH  12  13
ATOM     13  C   UNL     1       3.137   5.964  18.015  0.00  0.00    +0.000 A 
ATOM     14  C   UNL     1       2.703   4.648  17.825  0.00  0.00    +0.000 A 
ATOM     15  C   UNL     1       3.549   3.683  17.273  0.00  0.00    +0.000 A 
ATOM     16  C   UNL     1       4.847   4.028  16.903  0.00  0.00    +0.000 A 
ATOM     17  C   UNL     1       5.282   5.350  17.058  0.00  0.00    +0.000 A 
ATOM     18  C   UNL     1       4.429   6.314  17.622  0.00  0.00    +0.000 A 
BRANCH  17  19
ATOM     19  C   UNL     1       6.664   5.764  16.703  0.00  0.00    +0.000 C 
ATOM     20  O   UNL     1       7.019   6.933  16.702  0.00  0.00    +0.000 OA
BRANCH  19  21
ATOM     21  O   UNL     1       7.479   4.746  16.349  0.00  0.00    +0.000 OA
ATOM     22  H   UNL     1       7.890   4.825  15.469  0.00  0.00    +0.000 HD
ENDBRANCH  19  21
ENDBRANCH  17  19
ENDBRANCH  12  13
ENDBRANCH  11  12
ENDBRANCH   3  11
BRANCH   8  23
ATOM     23  O   UNL     1      -1.371  12.558  23.022  0.00  0.00    +0.000 OA
BRANCH  23  24
ATOM     24  C   UNL     1      -2.728  12.722  22.851  0.00  0.00    +0.000 A 
ATOM     25  C   UNL     1      -3.526  12.461  23.964  0.00  0.00    +0.000 A 
ATOM     26  C   UNL     1      -4.905  12.618  23.873  0.00  0.00    +0.000 A 
ATOM     27  F   UNL     1      -5.669  12.374  24.946  0.00  0.00    +0.000 F 
ATOM     28  C   UNL     1      -5.507  13.034  22.692  0.00  0.00    +0.000 A 
ATOM     29  C   UNL     1      -4.710  13.261  21.575  0.00  0.00    +0.000 A 
ATOM     30 CL   UNL     1      -5.429  13.801  20.108  0.00  0.00    +0.000 Cl
ATOM     31  C   UNL     1      -3.329  13.075  21.637  0.00  0.00    +0.000 A 
ENDBRANCH  23  24
ENDBRANCH   8  23
TORSDOF 7
ENDMDL
MODEL 6
REMARK VINA RESULT:      -8.1      1.571      1.803
REMARK  Name = 
REMARK  8 active torsions:
REMARK  status: ('A' for Active; 'I' for Inactive)
REMARK    1  A    between atoms: C_1  and  N_2
REMARK    2  A    between atoms: C_3  and  C_4
REMARK    3  A    between atoms: C_4  and  O_5
REMARK    4  A    between atoms: O_5  and  C_6
REMARK    5  A    between atoms: C_10  and  C_11
REMARK    6  A    between atoms: C_11  and  O_13
REMARK    7  A    between atoms: C_19  and  O_20
REMARK    8  A    between atoms: O_20  and  C_21
REMARK                            x       y       z     vdW  Elec       q    Type
REMARK                         _______ _______ _______ _____ _____    ______ ____
ROOT
ATOM      1  C   UNL     1       1.716  10.215  18.102  0.00  0.00    +0.000 C 
ATOM      2  N   UNL     1       1.418   9.366  19.230  0.00  0.00    +0.000 N 
ATOM      3  C   UNL     1       0.830   9.717  20.429  0.00  0.00    +0.000 A 
ATOM      4  N   UNL     1       0.822   8.681  21.253  0.00  0.00    +0.000 NA
ATOM      5  C   UNL     1       1.398   7.642  20.572  0.00  0.00    +0.000 A 
ATOM      6  C   UNL     1       1.645   6.322  20.980  0.00  0.00    +0.000 A 
ATOM      7  C   UNL     1       2.298   5.448  20.096  0.00  0.00    +0.000 A 
ATOM      8  C   UNL     1       2.683   5.873  18.823  0.00  0.00    +0.000 A 
ATOM      9  C   UNL     1       2.368   7.166  18.372  0.00  0.00    +0.000 A 
ATOM     10  C   UNL     1       1.766   8.034  19.291  0.00  0.00    +0.000 A 
ENDROOT
BRANCH   3  11
ATOM     11  C   UNL     1       0.291  11.077  20.755  0.00  0.00    +0.000 C 
BRANCH  11  12
ATOM     12  O   UNL     1      -0.053  11.059  22.140  0.00  0.00    +0.000 OA
BRANCH  12  13
ATOM     13  C   UNL     1      -0.934  12.003  22.590  0.00  0.00    +0.000 A 
ATOM     14  C   UNL     1      -0.491  13.322  22.442  0.00  0.00    +0.000 A 
ATOM     15  C   UNL     1      -1.257  14.395  22.905  0.00  0.00    +0.000 A 
ATOM     16  C   UNL     1      -2.481  14.157  23.525  0.00  0.00    +0.000 A 
ATOM     17  C   UNL     1      -2.950  12.844  23.650  0.00  0.00    +0.000 A 
ATOM     18  C   UNL     1      -2.171  11.768  23.190  0.00  0.00    +0.000 A 
BRANCH  17  19
ATOM     19  C   UNL     1      -4.237  12.535  24.326  0.00  0.00    +0.000 C 
ATOM     20  O   UNL     1      -5.241  12.215  23.708  0.00  0.00    +0.000 OA
BRANCH  19  21
ATOM     21  O   UNL     1      -4.210  12.671  25.670  0.00  0.00    +0.000 OA
ATOM     22  H   UNL     1      -4.772  12.048  26.165  0.00  0.00    +0.000 HD
ENDBRANCH  19  21
ENDBRANCH  17  19
ENDBRANCH  12  13
ENDBRANCH  11  12
ENDBRANCH   3  11
BRANCH   8  23
ATOM     23  O   UNL     1       3.333   4.936  18.044  0.00  0.00    +0.000 OA
BRANCH  23  24
ATOM     24  C   UNL     1       4.661   5.119  17.724  0.00  0.00    +0.000 A 
ATOM     25  C   UNL     1       5.516   5.412  18.786  0.00  0.00    +0.000 A 
ATOM     26  C   UNL     1       6.873   5.596  18.544  0.00  0.00    +0.000 A 
ATOM     27  F   UNL     1       7.694   5.871  19.566  0.00  0.00    +0.000 F 
ATOM     28  C   UNL     1       7.398   5.489  17.262  0.00  0.00    +0.000 A 
ATOM     29  C   UNL     1       6.536   5.229  16.202  0.00  0.00    +0.000 A 
ATOM     30 CL   UNL     1       7.165   5.068  14.609  0.00  0.00    +0.000 Cl
ATOM     31  C   UNL     1       5.166   5.076  16.420  0.00  0.00    +0.000 A 
ENDBRANCH  23  24
ENDBRANCH   8  23
TORSDOF 7
ENDMDL
MODEL 7
REMARK VINA RESULT:      -8.0      1.593      1.869
REMARK  Name = 
REMARK  8 active torsions:
REMARK  status: ('A' for Active; 'I' for Inactive)
REMARK    1  A    between atoms: C_1  and  N_2
REMARK    2  A    between atoms: C_3  and  C_4
REMARK    3  A    between atoms: C_4  and  O_5
REMARK    4  A    between atoms: O_5  and  C_6
REMARK    5  A    between atoms: C_10  and  C_11
REMARK    6  A    between atoms: C_11  and  O_13
REMARK    7  A    between atoms: C_19  and  O_20
REMARK    8  A    between atoms: O_20  and  C_21
REMARK                            x       y       z     vdW  Elec       q    Type
REMARK                         _______ _______ _______ _____ _____    ______ ____
ROOT
ATOM      1  C   UNL     1       2.224   9.323  17.736  0.00  0.00    +0.000 C 
ATOM      2  N   UNL     1       1.815   8.639  18.939  0.00  0.00    +0.000 N 
ATOM      3  C   UNL     1       1.187   9.169  20.049  0.00  0.00    +0.000 A 
ATOM      4  N   UNL     1       1.071   8.245  20.990  0.00  0.00    +0.000 NA
ATOM      5  C   UNL     1       1.617   7.100  20.476  0.00  0.00    +0.000 A 
ATOM      6  C   UNL     1       1.759   5.829  21.055  0.00  0.00    +0.000 A 
ATOM      7  C   UNL     1       2.402   4.816  20.324  0.00  0.00    +0.000 A 
ATOM      8  C   UNL     1       2.879   5.058  19.035  0.00  0.00    +0.000 A 
ATOM      9  C   UNL     1       2.671   6.300  18.413  0.00  0.00    +0.000 A 
ATOM     10  C   UNL     1       2.075   7.308  19.182  0.00  0.00    +0.000 A 
ENDROOT
BRANCH   3  11
ATOM     11  C   UNL     1       0.717  10.586  20.174  0.00  0.00    +0.000 C 
BRANCH  11  12
ATOM     12  O   UNL     1       0.586  10.851  21.571  0.00  0.00    +0.000 OA
BRANCH  12  13
ATOM     13  C   UNL     1      -0.289  11.830  21.954  0.00  0.00    +0.000 A 
ATOM     14  C   UNL     1       0.213  13.130  21.836  0.00  0.00    +0.000 A 
ATOM     15  C   UNL     1      -0.542  14.234  22.239  0.00  0.00    +0.000 A 
ATOM     16  C   UNL     1      -1.816  14.046  22.770  0.00  0.00    +0.000 A 
ATOM     17  C   UNL     1      -2.343  12.751  22.864  0.00  0.00    +0.000 A 
ATOM     18  C   UNL     1      -1.574  11.645  22.464  0.00  0.00    +0.000 A 
BRANCH  17  19
ATOM     19  C   UNL     1      -3.685  12.495  23.446  0.00  0.00    +0.000 C 
ATOM     20  O   UNL     1      -3.875  12.422  24.650  0.00  0.00    +0.000 OA
BRANCH  19  21
ATOM     21  O   UNL     1      -4.665  12.316  22.533  0.00  0.00    +0.000 OA
ATOM     22  H   UNL     1      -5.573  12.315  22.888  0.00  0.00    +0.000 HD
ENDBRANCH  19  21
ENDBRANCH  17  19
ENDBRANCH  12  13
ENDBRANCH  11  12
ENDBRANCH   3  11
BRANCH   8  23
ATOM     23  O   UNL     1       3.511   3.997  18.416  0.00  0.00    +0.000 OA
BRANCH  23  24
ATOM     24  C   UNL     1       4.710   4.201  17.769  0.00  0.00    +0.000 A 
ATOM     25  C   UNL     1       5.776   4.622  18.564  0.00  0.00    +0.000 A 
ATOM     26  C   UNL     1       7.023   4.834  17.985  0.00  0.00    +0.000 A 
ATOM     27  F   UNL     1       8.047   5.232  18.752  0.00  0.00    +0.000 F 
ATOM     28  C   UNL     1       7.231   4.633  16.627  0.00  0.00    +0.000 A 
ATOM     29  C   UNL     1       6.157   4.244  15.832  0.00  0.00    +0.000 A 
ATOM     30 CL   UNL     1       6.395   3.964  14.151  0.00  0.00    +0.000 Cl
ATOM     31  C   UNL     1       4.891   4.060  16.388  0.00  0.00    +0.000 A 
ENDBRANCH  23  24
ENDBRANCH   8  23
TORSDOF 7
ENDMDL
MODEL 8
REMARK VINA RESULT:      -8.0      3.063      4.011
REMARK  Name = 
REMARK  8 active torsions:
REMARK  status: ('A' for Active; 'I' for Inactive)
REMARK    1  A    between atoms: C_1  and  N_2
REMARK    2  A    between atoms: C_3  and  C_4
REMARK    3  A    between atoms: C_4  and  O_5
REMARK    4  A    between atoms: O_5  and  C_6
REMARK    5  A    between atoms: C_10  and  C_11
REMARK    6  A    between atoms: C_11  and  O_13
REMARK    7  A    between atoms: C_19  and  O_20
REMARK    8  A    between atoms: O_20  and  C_21
REMARK                            x       y       z     vdW  Elec       q    Type
REMARK                         _______ _______ _______ _____ _____    ______ ____
ROOT
ATOM      1  C   UNL     1      -0.502  10.202  22.227  0.00  0.00    +0.000 C 
ATOM      2  N   UNL     1      -0.110  10.325  20.843  0.00  0.00    +0.000 N 
ATOM      3  C   UNL     1      -0.528  11.262  19.919  0.00  0.00    +0.000 A 
ATOM      4  N   UNL     1      -0.023  10.982  18.727  0.00  0.00    +0.000 NA
ATOM      5  C   UNL     1       0.743   9.859  18.886  0.00  0.00    +0.000 A 
ATOM      6  C   UNL     1       1.492   9.136  17.944  0.00  0.00    +0.000 A 
ATOM      7  C   UNL     1       2.167   7.976  18.358  0.00  0.00    +0.000 A 
ATOM      8  C   UNL     1       2.113   7.552  19.687  0.00  0.00    +0.000 A 
ATOM      9  C   UNL     1       1.435   8.310  20.656  0.00  0.00    +0.000 A 
ATOM     10  C   UNL     1       0.726   9.432  20.208  0.00  0.00    +0.000 A 
ENDROOT
BRANCH   3  11
ATOM     11  C   UNL     1      -1.431  12.419  20.219  0.00  0.00    +0.000 C 
BRANCH  11  12
ATOM     12  O   UNL     1      -2.272  12.587  19.077  0.00  0.00    +0.000 OA
BRANCH  12  13
ATOM     13  C   UNL     1      -3.562  12.142  19.165  0.00  0.00    +0.000 A 
ATOM     14  C   UNL     1      -3.967  11.332  18.099  0.00  0.00    +0.000 A 
ATOM     15  C   UNL     1      -5.274  10.846  18.020  0.00  0.00    +0.000 A 
ATOM     16  C   UNL     1      -6.195  11.167  19.014  0.00  0.00    +0.000 A 
ATOM     17  C   UNL     1      -5.793  11.951  20.104  0.00  0.00    +0.000 A 
ATOM     18  C   UNL     1      -4.480  12.444  20.173  0.00  0.00    +0.000 A 
BRANCH  17  19
ATOM     19  C   UNL     1      -6.743  12.343  21.176  0.00  0.00    +0.000 C 
ATOM     20  O   UNL     1      -7.265  11.527  21.920  0.00  0.00    +0.000 OA
BRANCH  19  21
ATOM     21  O   UNL     1      -7.005  13.667  21.235  0.00  0.00    +0.000 OA
ATOM     22  H   UNL     1      -7.884  13.935  20.912  0.00  0.00    +0.000 HD
ENDBRANCH  19  21
ENDBRANCH  17  19
ENDBRANCH  12  13
ENDBRANCH  11  12
ENDBRANCH   3  11
BRANCH   8  23
ATOM     23  O   UNL     1       2.799   6.389  19.979  0.00  0.00    +0.000 OA
BRANCH  23  24
ATOM     24  C   UNL     1       2.800   5.352  19.071  0.00  0.00    +0.000 A 
ATOM     25  C   UNL     1       1.722   4.471  19.141  0.00  0.00    +0.000 A 
ATOM     26  C   UNL     1       1.646   3.407  18.247  0.00  0.00    +0.000 A 
ATOM     27  F   UNL     1       0.606   2.566  18.311  0.00  0.00    +0.000 F 
ATOM     28  C   UNL     1       2.623   3.206  17.281  0.00  0.00    +0.000 A 
ATOM     29  C   UNL     1       3.713   4.069  17.237  0.00  0.00    +0.000 A 
ATOM     30 CL   UNL     1       4.924   3.856  16.033  0.00  0.00    +0.000 Cl
ATOM     31  C   UNL     1       3.825   5.121  18.147  0.00  0.00    +0.000 A 
ENDBRANCH  23  24
ENDBRANCH   8  23
TORSDOF 7
ENDMDL
MODEL 9
REMARK VINA RESULT:      -8.0      4.321     10.164
REMARK  Name = 
REMARK  8 active torsions:
REMARK  status: ('A' for Active; 'I' for Inactive)
REMARK    1  A    between atoms: C_1  and  N_2
REMARK    2  A    between atoms: C_3  and  C_4
REMARK    3  A    between atoms: C_4  and  O_5
REMARK    4  A    between atoms: O_5  and  C_6
REMARK    5  A    between atoms: C_10  and  C_11
REMARK    6  A    between atoms: C_11  and  O_13
REMARK    7  A    between atoms: C_19  and  O_20
REMARK    8  A    between atoms: O_20  and  C_21
REMARK                            x       y       z     vdW  Elec       q    Type
REMARK                         _______ _______ _______ _____ _____    ______ ____
ROOT
ATOM      1  C   UNL     1       2.372   4.663  21.303  0.00  0.00    +0.000 C 
ATOM      2  N   UNL     1       2.526   5.309  20.021  0.00  0.00    +0.000 N 
ATOM      3  C   UNL     1       3.152   4.823  18.891  0.00  0.00    +0.000 A 
ATOM      4  N   UNL     1       3.177   5.752  17.949  0.00  0.00    +0.000 NA
ATOM      5  C   UNL     1       2.545   6.849  18.471  0.00  0.00    +0.000 A 
ATOM      6  C   UNL     1       2.301   8.107  17.900  0.00  0.00    +0.000 A 
ATOM      7  C   UNL     1       1.659   9.091  18.670  0.00  0.00    +0.000 A 
ATOM      8  C   UNL     1       1.252   8.822  19.978  0.00  0.00    +0.000 A 
ATOM      9  C   UNL     1       1.415   7.542  20.533  0.00  0.00    +0.000 A 
ATOM     10  C   UNL     1       2.106   6.596  19.764  0.00  0.00    +0.000 A 
ENDROOT
BRANCH   3  11
ATOM     11  C   UNL     1       3.731   3.447  18.756  0.00  0.00    +0.000 C 
BRANCH  11  12
ATOM     12  O   UNL     1       5.115   3.552  19.092  0.00  0.00    +0.000 OA
BRANCH  12  13
ATOM     13  C   UNL     1       5.904   4.342  18.303  0.00  0.00    +0.000 A 
ATOM     14  C   UNL     1       6.520   5.401  18.979  0.00  0.00    +0.000 A 
ATOM     15  C   UNL     1       7.313   6.327  18.298  0.00  0.00    +0.000 A 
ATOM     16  C   UNL     1       7.501   6.201  16.924  0.00  0.00    +0.000 A 
ATOM     17  C   UNL     1       6.917   5.127  16.240  0.00  0.00    +0.000 A 
ATOM     18  C   UNL     1       6.112   4.204  16.930  0.00  0.00    +0.000 A 
BRANCH  17  19
ATOM     19  C   UNL     1       7.064   4.962  14.771  0.00  0.00    +0.000 C 
ATOM     20  O   UNL     1       7.883   5.592  14.120  0.00  0.00    +0.000 OA
BRANCH  19  21
ATOM     21  O   UNL     1       6.197   4.087  14.217  0.00  0.00    +0.000 OA
ATOM     22  H   UNL     1       6.363   3.148  14.420  0.00  0.00    +0.000 HD
ENDBRANCH  19  21
ENDBRANCH  17  19
ENDBRANCH  12  13
ENDBRANCH  11  12
ENDBRANCH   3  11
BRANCH   8  23
ATOM     23  O   UNL     1       0.647   9.867  20.649  0.00  0.00    +0.000 OA
BRANCH  23  24
ATOM     24  C   UNL     1       0.292  11.006  19.959  0.00  0.00    +0.000 A 
ATOM     25  C   UNL     1      -0.982  11.012  19.393  0.00  0.00    +0.000 A 
ATOM     26  C   UNL     1      -1.417  12.133  18.693  0.00  0.00    +0.000 A 
ATOM     27  F   UNL     1      -2.644  12.139  18.156  0.00  0.00    +0.000 F 
ATOM     28  C   UNL     1      -0.608  13.252  18.549  0.00  0.00    +0.000 A 
ATOM     29  C   UNL     1       0.674  13.228  19.088  0.00  0.00    +0.000 A 
ATOM     30 CL   UNL     1       1.687  14.612  18.945  0.00  0.00    +0.000 Cl
ATOM     31  C   UNL     1       1.142  12.100  19.763  0.00  0.00    +0.000 A 
ENDBRANCH  23  24
ENDBRANCH   8  23
TORSDOF 7
ENDMDL
