MODEL 1
REMARK VINA RESULT:      -8.9      0.000      0.000
REMARK  Name = 
REMARK  7 active torsions:
REMARK  status: ('A' for Active; 'I' for Inactive)
REMARK    1  A    between atoms: C_2  and  C_11
REMARK    2  A    between atoms: N_3  and  C_4
REMARK    3  A    between atoms: C_15  and  C_16
REMARK    4  A    between atoms: C_16  and  C_17
REMARK    5  A    between atoms: C_23  and  O_24
REMARK    6  A    between atoms: O_24  and  C_25
REMARK    7  A    between atoms: C_25  and  C_26
REMARK                            x       y       z     vdW  Elec       q    Type
REMARK                         _______ _______ _______ _____ _____    ______ ____
ROOT
ATOM      1  C   UNL     1       3.377   6.239  19.563  0.00  0.00    +0.000 C 
ENDROOT
BRANCH   1   2
ATOM      2  C   UNL     1       2.720   4.874  19.457  0.00  0.00    +0.000 A 
ATOM      3  C   UNL     1       2.148   4.332  20.632  0.00  0.00    +0.000 A 
ATOM      4  C   UNL     1       1.627   3.039  20.660  0.00  0.00    +0.000 A 
ATOM      5 CL   UNL     1       0.963   2.404  22.111  0.00  0.00    +0.000 Cl
ATOM      6  C   UNL     1       1.676   2.246  19.527  0.00  0.00    +0.000 A 
ATOM      7  C   UNL     1       2.223   2.764  18.357  0.00  0.00    +0.000 A 
ATOM      8  C   UNL     1       2.703   4.089  18.285  0.00  0.00    +0.000 A 
BRANCH   8   9
ATOM      9  O   UNL     1       3.155   4.631  17.096  0.00  0.00    +0.000 OA
BRANCH   9  10
ATOM     10  C   UNL     1       4.521   4.273  16.801  0.00  0.00    +0.000 C 
BRANCH  10  11
ATOM     11  C   UNL     1       5.561   5.233  17.310  0.00  0.00    +0.000 A 
ATOM     12  C   UNL     1       6.528   4.868  18.246  0.00  0.00    +0.000 A 
ATOM     13  C   UNL     1       7.520   5.785  18.606  0.00  0.00    +0.000 A 
ATOM     14  C   UNL     1       7.529   7.073  18.060  0.00  0.00    +0.000 A 
ATOM     15 CL   UNL     1       8.702   8.219  18.583  0.00  0.00    +0.000 Cl
ATOM     16  C   UNL     1       6.583   7.443  17.116  0.00  0.00    +0.000 A 
ATOM     17  C   UNL     1       5.627   6.513  16.735  0.00  0.00    +0.000 A 
ATOM     18  F   UNL     1       4.754   6.856  15.775  0.00  0.00    +0.000 F 
ENDBRANCH  10  11
ENDBRANCH   9  10
ENDBRANCH   8   9
ENDBRANCH   1   2
BRANCH   1  23
ATOM     19  C   UNL     1       1.223   9.163  20.268  0.00  0.00    +0.000 A 
ATOM     20  C   UNL     1       0.801   9.592  19.012  0.00  0.00    +0.000 A 
ATOM     21  C   UNL     1       1.225   8.902  17.896  0.00  0.00    +0.000 A 
ATOM     22  C   UNL     1       2.069   7.806  18.068  0.00  0.00    +0.000 A 
ATOM     23  C   UNL     1       2.480   7.446  19.360  0.00  0.00    +0.000 A 
ATOM     24  N   UNL     1       2.054   8.104  20.473  0.00  0.00    +0.000 NA
BRANCH  19  26
ATOM     25  O   UNL     1       1.058   9.565  22.575  0.00  0.00    +0.000 OA
ATOM     26  C   UNL     1       0.708   9.912  21.452  0.00  0.00    +0.000 C 
ATOM     27  N   UNL     1      -0.143  10.979  21.237  0.00  0.00    +0.000 N 
ATOM     28  H   UNL     1      -0.282  11.292  20.277  0.00  0.00    +0.000 HD
BRANCH  27  29
ATOM     29  C   UNL     1      -0.586  11.738  22.381  0.00  0.00    +0.000 C 
ATOM     30  C   UNL     1      -2.013  11.469  22.864  0.00  0.00    +0.000 C 
ATOM     31  C   UNL     1      -2.574  12.889  23.087  0.00  0.00    +0.000 C 
ATOM     32  C   UNL     1      -2.922  13.501  21.726  0.00  0.00    +0.000 C 
ATOM     33  C   UNL     1      -1.543  13.706  21.083  0.00  0.00    +0.000 C 
ATOM     34  C   UNL     1      -0.567  13.268  22.193  0.00  0.00    +0.000 C 
ATOM     35  C   UNL     1      -1.323  13.690  23.456  0.00  0.00    +0.000 C 
ENDBRANCH  27  29
ENDBRANCH  19  26
ENDBRANCH   1  23
TORSDOF 7
ENDMDL
MODEL 2
REMARK VINA RESULT:      -8.8      2.133      4.884
REMARK  Name = 
REMARK  7 active torsions:
REMARK  status: ('A' for Active; 'I' for Inactive)
REMARK    1  A    between atoms: C_2  and  C_11
REMARK    2  A    between atoms: N_3  and  C_4
REMARK    3  A    between atoms: C_15  and  C_16
REMARK    4  A    between atoms: C_16  and  C_17
REMARK    5  A    between atoms: C_23  and  O_24
REMARK    6  A    between atoms: O_24  and  C_25
REMARK    7  A    between atoms: C_25  and  C_26
REMARK                            x       y       z     vdW  Elec       q    Type
REMARK                         _______ _______ _______ _____ _____    ______ ____
ROOT
ATOM      1  C   UNL     1       3.398   7.174  17.141  0.00  0.00    +0.000 C 
ENDROOT
BRANCH   1   2
ATOM      2  C   UNL     1       4.742   6.475  17.248  0.00  0.00    +0.000 A 
ATOM      3  C   UNL     1       5.819   7.214  17.790  0.00  0.00    +0.000 A 
ATOM      4  C   UNL     1       7.115   6.698  17.821  0.00  0.00    +0.000 A 
ATOM      5 CL   UNL     1       8.405   7.633  18.464  0.00  0.00    +0.000 Cl
ATOM      6  C   UNL     1       7.375   5.443  17.300  0.00  0.00    +0.000 A 
ATOM      7  C   UNL     1       6.327   4.695  16.773  0.00  0.00    +0.000 A 
ATOM      8  C   UNL     1       4.998   5.168  16.784  0.00  0.00    +0.000 A 
BRANCH   8   9
ATOM      9  O   UNL     1       3.946   4.382  16.349  0.00  0.00    +0.000 OA
BRANCH   9  10
ATOM     10  C   UNL     1       3.930   3.077  16.965  0.00  0.00    +0.000 C 
BRANCH  10  11
ATOM     11  C   UNL     1       3.150   2.981  18.246  0.00  0.00    +0.000 A 
ATOM     12  C   UNL     1       1.762   2.841  18.274  0.00  0.00    +0.000 A 
ATOM     13  C   UNL     1       1.112   2.665  19.499  0.00  0.00    +0.000 A 
ATOM     14  C   UNL     1       1.837   2.661  20.695  0.00  0.00    +0.000 A 
ATOM     15 CL   UNL     1       1.010   2.536  22.199  0.00  0.00    +0.000 Cl
ATOM     16  C   UNL     1       3.218   2.783  20.680  0.00  0.00    +0.000 A 
ATOM     17  C   UNL     1       3.860   2.917  19.457  0.00  0.00    +0.000 A 
ATOM     18  F   UNL     1       5.200   2.969  19.445  0.00  0.00    +0.000 F 
ENDBRANCH  10  11
ENDBRANCH   9  10
ENDBRANCH   8   9
ENDBRANCH   1   2
BRANCH   1  23
ATOM     19  C   UNL     1       1.351   8.728  19.802  0.00  0.00    +0.000 A 
ATOM     20  C   UNL     1       1.274   7.752  20.792  0.00  0.00    +0.000 A 
ATOM     21  C   UNL     1       1.917   6.549  20.593  0.00  0.00    +0.000 A 
ATOM     22  C   UNL     1       2.611   6.351  19.400  0.00  0.00    +0.000 A 
ATOM     23  C   UNL     1       2.624   7.366  18.431  0.00  0.00    +0.000 A 
ATOM     24  N   UNL     1       2.012   8.566  18.622  0.00  0.00    +0.000 NA
BRANCH  19  26
ATOM     25  O   UNL     1      -0.301  10.053  20.816  0.00  0.00    +0.000 OA
ATOM     26  C   UNL     1       0.676  10.031  20.075  0.00  0.00    +0.000 C 
ATOM     27  N   UNL     1       1.184  11.173  19.484  0.00  0.00    +0.000 N 
ATOM     28  H   UNL     1       2.073  11.099  18.992  0.00  0.00    +0.000 HD
BRANCH  27  29
ATOM     29  C   UNL     1       0.565  12.436  19.802  0.00  0.00    +0.000 C 
ATOM     30  C   UNL     1       0.098  13.282  18.617  0.00  0.00    +0.000 C 
ATOM     31  C   UNL     1       0.609  14.693  18.977  0.00  0.00    +0.000 C 
ATOM     32  C   UNL     1       2.115  14.756  18.701  0.00  0.00    +0.000 C 
ATOM     33  C   UNL     1       2.697  13.827  19.777  0.00  0.00    +0.000 C 
ATOM     34  C   UNL     1       1.456  13.414  20.595  0.00  0.00    +0.000 C 
ATOM     35  C   UNL     1       0.592  14.675  20.507  0.00  0.00    +0.000 C 
ENDBRANCH  27  29
ENDBRANCH  19  26
ENDBRANCH   1  23
TORSDOF 7
ENDMDL
MODEL 3
REMARK VINA RESULT:      -8.6      2.051      4.783
REMARK  Name = 
REMARK  7 active torsions:
REMARK  status: ('A' for Active; 'I' for Inactive)
REMARK    1  A    between atoms: C_2  and  C_11
REMARK    2  A    between atoms: N_3  and  C_4
REMARK    3  A    between atoms: C_15  and  C_16
REMARK    4  A    between atoms: C_16  and  C_17
REMARK    5  A    between atoms: C_23  and  O_24
REMARK    6  A    between atoms: O_24  and  C_25
REMARK    7  A    between atoms: C_25  and  C_26
REMARK                            x       y       z     vdW  Elec       q    Type
REMARK                         _______ _______ _______ _____ _____    ______ ____
ROOT
ATOM      1  C   UNL     1       3.384   7.264  17.209  0.00  0.00    +0.000 C 
ENDROOT
BRANCH   1   2
ATOM      2  C   UNL     1       4.728   6.563  17.311  0.00  0.00    +0.000 A 
ATOM      3  C   UNL     1       5.817   7.310  17.815  0.00  0.00    +0.000 A 
ATOM      4  C   UNL     1       7.111   6.790  17.837  0.00  0.00    +0.000 A 
ATOM      5 CL   UNL     1       8.416   7.734  18.434  0.00  0.00    +0.000 Cl
ATOM      6  C   UNL     1       7.357   5.520  17.342  0.00  0.00    +0.000 A 
ATOM      7  C   UNL     1       6.297   4.764  16.852  0.00  0.00    +0.000 A 
ATOM      8  C   UNL     1       4.970   5.243  16.875  0.00  0.00    +0.000 A 
BRANCH   8   9
ATOM      9  O   UNL     1       3.908   4.452  16.478  0.00  0.00    +0.000 OA
BRANCH   9  10
ATOM     10  C   UNL     1       3.976   3.113  17.013  0.00  0.00    +0.000 C 
BRANCH  10  11
ATOM     11  C   UNL     1       3.309   2.920  18.347  0.00  0.00    +0.000 A 
ATOM     12  C   UNL     1       4.023   2.647  19.513  0.00  0.00    +0.000 A 
ATOM     13  C   UNL     1       3.347   2.571  20.734  0.00  0.00    +0.000 A 
ATOM     14  C   UNL     1       1.959   2.733  20.789  0.00  0.00    +0.000 A 
ATOM     15 CL   UNL     1       1.131   2.544  22.286  0.00  0.00    +0.000 Cl
ATOM     16  C   UNL     1       1.239   3.021  19.639  0.00  0.00    +0.000 A 
ATOM     17  C   UNL     1       1.924   3.135  18.438  0.00  0.00    +0.000 A 
ATOM     18  F   UNL     1       1.231   3.477  17.341  0.00  0.00    +0.000 F 
ENDBRANCH  10  11
ENDBRANCH   9  10
ENDBRANCH   8   9
ENDBRANCH   1   2
BRANCH   1  23
ATOM     19  C   UNL     1       1.312   8.768  19.879  0.00  0.00    +0.000 A 
ATOM     20  C   UNL     1       1.244   7.782  20.860  0.00  0.00    +0.000 A 
ATOM     21  C   UNL     1       1.902   6.589  20.652  0.00  0.00    +0.000 A 
ATOM     22  C   UNL     1       2.602   6.411  19.459  0.00  0.00    +0.000 A 
ATOM     23  C   UNL     1       2.604   7.435  18.499  0.00  0.00    +0.000 A 
ATOM     24  N   UNL     1       1.977   8.626  18.699  0.00  0.00    +0.000 NA
BRANCH  19  26
ATOM     25  O   UNL     1      -0.112  10.142  21.143  0.00  0.00    +0.000 OA
ATOM     26  C   UNL     1       0.620  10.061  20.163  0.00  0.00    +0.000 C 
ATOM     27  N   UNL     1       0.837  11.125  19.308  0.00  0.00    +0.000 N 
ATOM     28  H   UNL     1       1.559  11.024  18.596  0.00  0.00    +0.000 HD
BRANCH  27  29
ATOM     29  C   UNL     1       0.215  12.388  19.624  0.00  0.00    +0.000 C 
ATOM     30  C   UNL     1      -0.162  13.275  18.436  0.00  0.00    +0.000 C 
ATOM     31  C   UNL     1       0.342  14.667  18.872  0.00  0.00    +0.000 C 
ATOM     32  C   UNL     1       1.864  14.715  18.698  0.00  0.00    +0.000 C 
ATOM     33  C   UNL     1       2.361  13.747  19.780  0.00  0.00    +0.000 C 
ATOM     34  C   UNL     1       1.064  13.329  20.502  0.00  0.00    +0.000 C 
ATOM     35  C   UNL     1       0.224  14.604  20.397  0.00  0.00    +0.000 C 
ENDBRANCH  27  29
ENDBRANCH  19  26
ENDBRANCH   1  23
TORSDOF 7
ENDMDL
MODEL 4
REMARK VINA RESULT:      -8.5      1.653      4.593
REMARK  Name = 
REMARK  7 active torsions:
REMARK  status: ('A' for Active; 'I' for Inactive)
REMARK    1  A    between atoms: C_2  and  C_11
REMARK    2  A    between atoms: N_3  and  C_4
REMARK    3  A    between atoms: C_15  and  C_16
REMARK    4  A    between atoms: C_16  and  C_17
REMARK    5  A    between atoms: C_23  and  O_24
REMARK    6  A    between atoms: O_24  and  C_25
REMARK    7  A    between atoms: C_25  and  C_26
REMARK                            x       y       z     vdW  Elec       q    Type
REMARK                         _______ _______ _______ _____ _____    ______ ____
ROOT
ATOM      1  C   UNL     1       3.240   7.152  17.278  0.00  0.00    +0.000 C 
ENDROOT
BRANCH   1   2
ATOM      2  C   UNL     1       4.614   6.504  17.289  0.00  0.00    +0.000 A 
ATOM      3  C   UNL     1       5.694   7.273  17.780  0.00  0.00    +0.000 A 
ATOM      4  C   UNL     1       7.007   6.808  17.721  0.00  0.00    +0.000 A 
ATOM      5 CL   UNL     1       8.299   7.779  18.304  0.00  0.00    +0.000 Cl
ATOM      6  C   UNL     1       7.282   5.572  17.159  0.00  0.00    +0.000 A 
ATOM      7  C   UNL     1       6.232   4.795  16.681  0.00  0.00    +0.000 A 
ATOM      8  C   UNL     1       4.889   5.216  16.783  0.00  0.00    +0.000 A 
BRANCH   8   9
ATOM      9  O   UNL     1       3.843   4.399  16.396  0.00  0.00    +0.000 OA
BRANCH   9  10
ATOM     10  C   UNL     1       3.900   3.091  17.002  0.00  0.00    +0.000 C 
BRANCH  10  11
ATOM     11  C   UNL     1       3.134   2.944  18.287  0.00  0.00    +0.000 A 
ATOM     12  C   UNL     1       1.755   2.736  18.323  0.00  0.00    +0.000 A 
ATOM     13  C   UNL     1       1.122   2.517  19.549  0.00  0.00    +0.000 A 
ATOM     14  C   UNL     1       1.854   2.537  20.740  0.00  0.00    +0.000 A 
ATOM     15 CL   UNL     1       1.044   2.357  22.249  0.00  0.00    +0.000 Cl
ATOM     16  C   UNL     1       3.228   2.725  20.719  0.00  0.00    +0.000 A 
ATOM     17  C   UNL     1       3.854   2.902  19.493  0.00  0.00    +0.000 A 
ATOM     18  F   UNL     1       5.190   3.020  19.474  0.00  0.00    +0.000 F 
ENDBRANCH  10  11
ENDBRANCH   9  10
ENDBRANCH   8   9
ENDBRANCH   1   2
BRANCH   1  23
ATOM     19  C   UNL     1       1.444   8.522  20.208  0.00  0.00    +0.000 A 
ATOM     20  C   UNL     1       1.262   7.424  21.045  0.00  0.00    +0.000 A 
ATOM     21  C   UNL     1       1.747   6.196  20.648  0.00  0.00    +0.000 A 
ATOM     22  C   UNL     1       2.393   6.098  19.416  0.00  0.00    +0.000 A 
ATOM     23  C   UNL     1       2.516   7.239  18.608  0.00  0.00    +0.000 A 
ATOM     24  N   UNL     1       2.061   8.462  18.995  0.00  0.00    +0.000 NA
BRANCH  19  26
ATOM     25  O   UNL     1       1.425  10.326  21.709  0.00  0.00    +0.000 OA
ATOM     26  C   UNL     1       0.940   9.840  20.694  0.00  0.00    +0.000 C 
ATOM     27  N   UNL     1      -0.056  10.470  19.973  0.00  0.00    +0.000 N 
ATOM     28  H   UNL     1      -0.315  10.073  19.071  0.00  0.00    +0.000 HD
BRANCH  27  29
ATOM     29  C   UNL     1      -0.495  11.772  20.413  0.00  0.00    +0.000 C 
ATOM     30  C   UNL     1      -1.641  11.798  21.425  0.00  0.00    +0.000 C 
ATOM     31  C   UNL     1      -2.575  12.888  20.860  0.00  0.00    +0.000 C 
ATOM     32  C   UNL     1      -3.353  12.305  19.675  0.00  0.00    +0.000 C 
ATOM     33  C   UNL     1      -2.261  12.117  18.612  0.00  0.00    +0.000 C 
ATOM     34  C   UNL     1      -1.004  12.699  19.291  0.00  0.00    +0.000 C 
ATOM     35  C   UNL     1      -1.602  13.824  20.139  0.00  0.00    +0.000 C 
ENDBRANCH  27  29
ENDBRANCH  19  26
ENDBRANCH   1  23
TORSDOF 7
ENDMDL
MODEL 5
REMARK VINA RESULT:      -8.4      4.090      8.004
REMARK  Name = 
REMARK  7 active torsions:
REMARK  status: ('A' for Active; 'I' for Inactive)
REMARK    1  A    between atoms: C_2  and  C_11
REMARK    2  A    between atoms: N_3  and  C_4
REMARK    3  A    between atoms: C_15  and  C_16
REMARK    4  A    between atoms: C_16  and  C_17
REMARK    5  A    between atoms: C_23  and  O_24
REMARK    6  A    between atoms: O_24  and  C_25
REMARK    7  A    between atoms: C_25  and  C_26
REMARK                            x       y       z     vdW  Elec       q    Type
REMARK                         _______ _______ _______ _____ _____    ______ ____
ROOT
ATOM      1  C   UNL     1       4.929   5.836  16.648  0.00  0.00    +0.000 C 
ENDROOT
BRANCH   1   2
ATOM      2  C   UNL     1       3.943   4.967  17.409  0.00  0.00    +0.000 A 
ATOM      3  C   UNL     1       4.250   3.592  17.539  0.00  0.00    +0.000 A 
ATOM      4  C   UNL     1       3.352   2.696  18.117  0.00  0.00    +0.000 A 
ATOM      5 CL   UNL     1       3.746   1.028  18.236  0.00  0.00    +0.000 Cl
ATOM      6  C   UNL     1       2.120   3.140  18.567  0.00  0.00    +0.000 A 
ATOM      7  C   UNL     1       1.803   4.490  18.459  0.00  0.00    +0.000 A 
ATOM      8  C   UNL     1       2.717   5.428  17.933  0.00  0.00    +0.000 A 
BRANCH   8   9
ATOM      9  O   UNL     1       2.437   6.782  17.919  0.00  0.00    +0.000 OA
BRANCH   9  10
ATOM     10  C   UNL     1       2.598   7.402  19.212  0.00  0.00    +0.000 C 
BRANCH  10  11
ATOM     11  C   UNL     1       1.567   8.438  19.560  0.00  0.00    +0.000 A 
ATOM     12  C   UNL     1       0.972   8.515  20.819  0.00  0.00    +0.000 A 
ATOM     13  C   UNL     1       0.089   9.561  21.102  0.00  0.00    +0.000 A 
ATOM     14  C   UNL     1      -0.227  10.509  20.124  0.00  0.00    +0.000 A 
ATOM     15 CL   UNL     1      -1.386  11.736  20.459  0.00  0.00    +0.000 Cl
ATOM     16  C   UNL     1       0.371  10.454  18.873  0.00  0.00    +0.000 A 
ATOM     17  C   UNL     1       1.277   9.436  18.614  0.00  0.00    +0.000 A 
ATOM     18  F   UNL     1       1.899   9.426  17.426  0.00  0.00    +0.000 F 
ENDBRANCH  10  11
ENDBRANCH   9  10
ENDBRANCH   8   9
ENDBRANCH   1   2
BRANCH   1  23
ATOM     19  C   UNL     1       7.577   8.083  17.924  0.00  0.00    +0.000 A 
ATOM     20  C   UNL     1       8.330   7.279  18.776  0.00  0.00    +0.000 A 
ATOM     21  C   UNL     1       7.971   5.958  18.935  0.00  0.00    +0.000 A 
ATOM     22  C   UNL     1       6.859   5.479  18.245  0.00  0.00    +0.000 A 
ATOM     23  C   UNL     1       6.126   6.351  17.425  0.00  0.00    +0.000 A 
ATOM     24  N   UNL     1       6.479   7.652  17.242  0.00  0.00    +0.000 NA
BRANCH  19  26
ATOM     25  O   UNL     1       7.383  10.236  17.009  0.00  0.00    +0.000 OA
ATOM     26  C   UNL     1       8.024   9.496  17.748  0.00  0.00    +0.000 C 
ATOM     27  N   UNL     1       9.145   9.922  18.433  0.00  0.00    +0.000 N 
ATOM     28  H   UNL     1       9.545   9.294  19.129  0.00  0.00    +0.000 HD
BRANCH  27  29
ATOM     29  C   UNL     1       9.535  11.306  18.308  0.00  0.00    +0.000 C 
ATOM     30  C   UNL     1      10.968  11.569  17.842  0.00  0.00    +0.000 C 
ATOM     31  C   UNL     1      11.451  12.664  18.816  0.00  0.00    +0.000 C 
ATOM     32  C   UNL     1      11.782  12.014  20.163  0.00  0.00    +0.000 C 
ATOM     33  C   UNL     1      10.402  11.589  20.684  0.00  0.00    +0.000 C 
ATOM     34  C   UNL     1       9.438  12.128  19.608  0.00  0.00    +0.000 C 
ATOM     35  C   UNL     1      10.155  13.403  19.158  0.00  0.00    +0.000 C 
ENDBRANCH  27  29
ENDBRANCH  19  26
ENDBRANCH   1  23
TORSDOF 7
ENDMDL
MODEL 6
REMARK VINA RESULT:      -8.3      1.613      4.524
REMARK  Name = 
REMARK  7 active torsions:
REMARK  status: ('A' for Active; 'I' for Inactive)
REMARK    1  A    between atoms: C_2  and  C_11
REMARK    2  A    between atoms: N_3  and  C_4
REMARK    3  A    between atoms: C_15  and  C_16
REMARK    4  A    between atoms: C_16  and  C_17
REMARK    5  A    between atoms: C_23  and  O_24
REMARK    6  A    between atoms: O_24  and  C_25
REMARK    7  A    between atoms: C_25  and  C_26
REMARK                            x       y       z     vdW  Elec       q    Type
REMARK                         _______ _______ _______ _____ _____    ______ ____
ROOT
ATOM      1  C   UNL     1       3.600   7.305  16.899  0.00  0.00    +0.000 C 
ENDROOT
BRANCH   1   2
ATOM      2  C   UNL     1       4.922   6.605  17.165  0.00  0.00    +0.000 A 
ATOM      3  C   UNL     1       5.970   7.377  17.717  0.00  0.00    +0.000 A 
ATOM      4  C   UNL     1       7.251   6.853  17.888  0.00  0.00    +0.000 A 
ATOM      5 CL   UNL     1       8.507   7.828  18.538  0.00  0.00    +0.000 Cl
ATOM      6  C   UNL     1       7.526   5.553  17.499  0.00  0.00    +0.000 A 
ATOM      7  C   UNL     1       6.506   4.773  16.965  0.00  0.00    +0.000 A 
ATOM      8  C   UNL     1       5.188   5.259  16.837  0.00  0.00    +0.000 A 
BRANCH   8   9
ATOM      9  O   UNL     1       4.157   4.449  16.398  0.00  0.00    +0.000 OA
BRANCH   9  10
ATOM     10  C   UNL     1       4.204   3.124  16.968  0.00  0.00    +0.000 C 
BRANCH  10  11
ATOM     11  C   UNL     1       3.477   2.961  18.274  0.00  0.00    +0.000 A 
ATOM     12  C   UNL     1       4.117   2.563  19.447  0.00  0.00    +0.000 A 
ATOM     13  C   UNL     1       3.397   2.522  20.645  0.00  0.00    +0.000 A 
ATOM     14  C   UNL     1       2.037   2.842  20.668  0.00  0.00    +0.000 A 
ATOM     15 CL   UNL     1       1.145   2.696  22.133  0.00  0.00    +0.000 Cl
ATOM     16  C   UNL     1       1.392   3.256  19.512  0.00  0.00    +0.000 A 
ATOM     17  C   UNL     1       2.123   3.333  18.336  0.00  0.00    +0.000 A 
ATOM     18  F   UNL     1       1.510   3.794  17.235  0.00  0.00    +0.000 F 
ENDBRANCH  10  11
ENDBRANCH   9  10
ENDBRANCH   8   9
ENDBRANCH   1   2
BRANCH   1  23
ATOM     19  C   UNL     1       1.353   9.134  19.199  0.00  0.00    +0.000 A 
ATOM     20  C   UNL     1       1.272   8.317  20.324  0.00  0.00    +0.000 A 
ATOM     21  C   UNL     1       1.980   7.134  20.341  0.00  0.00    +0.000 A 
ATOM     22  C   UNL     1       2.741   6.795  19.223  0.00  0.00    +0.000 A 
ATOM     23  C   UNL     1       2.755   7.650  18.110  0.00  0.00    +0.000 A 
ATOM     24  N   UNL     1       2.078   8.831  18.087  0.00  0.00    +0.000 NA
BRANCH  19  26
ATOM     25  O   UNL     1      -0.063  10.757  18.266  0.00  0.00    +0.000 OA
ATOM     26  C   UNL     1       0.605  10.425  19.239  0.00  0.00    +0.000 C 
ATOM     27  N   UNL     1       0.689  11.200  20.380  0.00  0.00    +0.000 N 
ATOM     28  H   UNL     1       1.152  10.799  21.195  0.00  0.00    +0.000 HD
BRANCH  27  29
ATOM     29  C   UNL     1      -0.086  12.415  20.436  0.00  0.00    +0.000 C 
ATOM     30  C   UNL     1       0.443  13.517  21.356  0.00  0.00    +0.000 C 
ATOM     31  C   UNL     1      -0.824  13.976  22.108  0.00  0.00    +0.000 C 
ATOM     32  C   UNL     1      -1.157  12.940  23.188  0.00  0.00    +0.000 C 
ATOM     33  C   UNL     1      -1.594  11.720  22.366  0.00  0.00    +0.000 C 
ATOM     34  C   UNL     1      -1.541  12.236  20.913  0.00  0.00    +0.000 C 
ATOM     35  C   UNL     1      -1.935  13.704  21.091  0.00  0.00    +0.000 C 
ENDBRANCH  27  29
ENDBRANCH  19  26
ENDBRANCH   1  23
TORSDOF 7
ENDMDL
MODEL 7
REMARK VINA RESULT:      -8.3      1.378      4.334
REMARK  Name = 
REMARK  7 active torsions:
REMARK  status: ('A' for Active; 'I' for Inactive)
REMARK    1  A    between atoms: C_2  and  C_11
REMARK    2  A    between atoms: N_3  and  C_4
REMARK    3  A    between atoms: C_15  and  C_16
REMARK    4  A    between atoms: C_16  and  C_17
REMARK    5  A    between atoms: C_23  and  O_24
REMARK    6  A    between atoms: O_24  and  C_25
REMARK    7  A    between atoms: C_25  and  C_26
REMARK                            x       y       z     vdW  Elec       q    Type
REMARK                         _______ _______ _______ _____ _____    ______ ____
ROOT
ATOM      1  C   UNL     1       3.148   6.168  19.016  0.00  0.00    +0.000 C 
ENDROOT
BRANCH   1   2
ATOM      2  C   UNL     1       4.317   5.976  18.065  0.00  0.00    +0.000 A 
ATOM      3  C   UNL     1       5.443   6.813  18.240  0.00  0.00    +0.000 A 
ATOM      4  C   UNL     1       6.514   6.791  17.347  0.00  0.00    +0.000 A 
ATOM      5 CL   UNL     1       7.856   7.839  17.576  0.00  0.00    +0.000 Cl
ATOM      6  C   UNL     1       6.485   5.949  16.249  0.00  0.00    +0.000 A 
ATOM      7  C   UNL     1       5.391   5.109  16.065  0.00  0.00    +0.000 A 
ATOM      8  C   UNL     1       4.323   5.068  16.986  0.00  0.00    +0.000 A 
BRANCH   8   9
ATOM      9  O   UNL     1       3.286   4.163  16.852  0.00  0.00    +0.000 OA
BRANCH   9  10
ATOM     10  C   UNL     1       3.559   2.900  17.494  0.00  0.00    +0.000 C 
BRANCH  10  11
ATOM     11  C   UNL     1       2.931   2.719  18.848  0.00  0.00    +0.000 A 
ATOM     12  C   UNL     1       3.680   2.489  20.002  0.00  0.00    +0.000 A 
ATOM     13  C   UNL     1       3.036   2.423  21.240  0.00  0.00    +0.000 A 
ATOM     14  C   UNL     1       1.646   2.551  21.327  0.00  0.00    +0.000 A 
ATOM     15 CL   UNL     1       0.861   2.374  22.848  0.00  0.00    +0.000 Cl
ATOM     16  C   UNL     1       0.891   2.797  20.190  0.00  0.00    +0.000 A 
ATOM     17  C   UNL     1       1.543   2.902  18.970  0.00  0.00    +0.000 A 
ATOM     18  F   UNL     1       0.814   3.202  17.884  0.00  0.00    +0.000 F 
ENDBRANCH  10  11
ENDBRANCH   9  10
ENDBRANCH   8   9
ENDBRANCH   1   2
BRANCH   1  23
ATOM     19  C   UNL     1       1.317   9.236  19.975  0.00  0.00    +0.000 A 
ATOM     20  C   UNL     1       0.985   9.833  18.762  0.00  0.00    +0.000 A 
ATOM     21  C   UNL     1       1.362   9.214  17.589  0.00  0.00    +0.000 A 
ATOM     22  C   UNL     1       2.072   8.016  17.664  0.00  0.00    +0.000 A 
ATOM     23  C   UNL     1       2.399   7.484  18.921  0.00  0.00    +0.000 A 
ATOM     24  N   UNL     1       2.017   8.073  20.086  0.00  0.00    +0.000 NA
BRANCH  19  26
ATOM     25  O   UNL     1       1.312   9.562  22.300  0.00  0.00    +0.000 OA
ATOM     26  C   UNL     1       0.854   9.918  21.220  0.00  0.00    +0.000 C 
ATOM     27  N   UNL     1      -0.074  10.935  21.107  0.00  0.00    +0.000 N 
ATOM     28  H   UNL     1      -0.307  11.265  20.171  0.00  0.00    +0.000 HD
BRANCH  27  29
ATOM     29  C   UNL     1      -0.470  11.632  22.307  0.00  0.00    +0.000 C 
ATOM     30  C   UNL     1      -1.641  11.033  23.086  0.00  0.00    +0.000 C 
ATOM     31  C   UNL     1      -2.513  12.266  23.400  0.00  0.00    +0.000 C 
ATOM     32  C   UNL     1      -3.281  12.661  22.134  0.00  0.00    +0.000 C 
ATOM     33  C   UNL     1      -2.169  13.176  21.209  0.00  0.00    +0.000 C 
ATOM     34  C   UNL     1      -0.909  13.095  22.093  0.00  0.00    +0.000 C 
ATOM     35  C   UNL     1      -1.482  13.395  23.480  0.00  0.00    +0.000 C 
ENDBRANCH  27  29
ENDBRANCH  19  26
ENDBRANCH   1  23
TORSDOF 7
ENDMDL
MODEL 8
REMARK VINA RESULT:      -8.3      2.002      2.708
REMARK  Name = 
REMARK  7 active torsions:
REMARK  status: ('A' for Active; 'I' for Inactive)
REMARK    1  A    between atoms: C_2  and  C_11
REMARK    2  A    between atoms: N_3  and  C_4
REMARK    3  A    between atoms: C_15  and  C_16
REMARK    4  A    between atoms: C_16  and  C_17
REMARK    5  A    between atoms: C_23  and  O_24
REMARK    6  A    between atoms: O_24  and  C_25
REMARK    7  A    between atoms: C_25  and  C_26
REMARK                            x       y       z     vdW  Elec       q    Type
REMARK                         _______ _______ _______ _____ _____    ______ ____
ROOT
ATOM      1  C   UNL     1       3.025   6.363  18.336  0.00  0.00    +0.000 C 
ENDROOT
BRANCH   1   2
ATOM      2  C   UNL     1       2.806   4.879  18.576  0.00  0.00    +0.000 A 
ATOM      3  C   UNL     1       2.133   4.502  19.761  0.00  0.00    +0.000 A 
ATOM      4  C   UNL     1       1.988   3.164  20.124  0.00  0.00    +0.000 A 
ATOM      5 CL   UNL     1       1.186   2.743  21.583  0.00  0.00    +0.000 Cl
ATOM      6  C   UNL     1       2.523   2.166  19.326  0.00  0.00    +0.000 A 
ATOM      7  C   UNL     1       3.179   2.515  18.150  0.00  0.00    +0.000 A 
ATOM      8  C   UNL     1       3.287   3.858  17.729  0.00  0.00    +0.000 A 
BRANCH   8   9
ATOM      9  O   UNL     1       3.852   4.192  16.513  0.00  0.00    +0.000 OA
BRANCH   9  10
ATOM     10  C   UNL     1       5.278   3.973  16.479  0.00  0.00    +0.000 C 
BRANCH  10  11
ATOM     11  C   UNL     1       6.109   5.062  17.099  0.00  0.00    +0.000 A 
ATOM     12  C   UNL     1       7.009   4.824  18.137  0.00  0.00    +0.000 A 
ATOM     13  C   UNL     1       7.816   5.865  18.603  0.00  0.00    +0.000 A 
ATOM     14  C   UNL     1       7.704   7.149  18.059  0.00  0.00    +0.000 A 
ATOM     15 CL   UNL     1       8.639   8.440  18.708  0.00  0.00    +0.000 Cl
ATOM     16  C   UNL     1       6.826   7.396  17.015  0.00  0.00    +0.000 A 
ATOM     17  C   UNL     1       6.058   6.347  16.532  0.00  0.00    +0.000 A 
ATOM     18  F   UNL     1       5.257   6.577  15.480  0.00  0.00    +0.000 F 
ENDBRANCH  10  11
ENDBRANCH   9  10
ENDBRANCH   8   9
ENDBRANCH   1   2
BRANCH   1  23
ATOM     19  C   UNL     1       1.134   9.356  19.406  0.00  0.00    +0.000 A 
ATOM     20  C   UNL     1       0.785   9.089  20.728  0.00  0.00    +0.000 A 
ATOM     21  C   UNL     1       1.186   7.898  21.295  0.00  0.00    +0.000 A 
ATOM     22  C   UNL     1       1.917   7.000  20.518  0.00  0.00    +0.000 A 
ATOM     23  C   UNL     1       2.208   7.319  19.183  0.00  0.00    +0.000 A 
ATOM     24  N   UNL     1       1.837   8.499  18.616  0.00  0.00    +0.000 NA
BRANCH  19  26
ATOM     25  O   UNL     1      -0.315  10.740  18.183  0.00  0.00    +0.000 OA
ATOM     26  C   UNL     1       0.715  10.674  18.844  0.00  0.00    +0.000 C 
ATOM     27  N   UNL     1       1.506  11.778  19.097  0.00  0.00    +0.000 N 
ATOM     28  H   UNL     1       2.271  11.674  19.762  0.00  0.00    +0.000 HD
BRANCH  27  29
ATOM     29  C   UNL     1       1.063  13.060  18.603  0.00  0.00    +0.000 C 
ATOM     30  C   UNL     1       2.158  14.063  18.237  0.00  0.00    +0.000 C 
ATOM     31  C   UNL     1       1.657  15.372  18.882  0.00  0.00    +0.000 C 
ATOM     32  C   UNL     1       1.922  15.310  20.390  0.00  0.00    +0.000 C 
ATOM     33  C   UNL     1       0.945  14.225  20.863  0.00  0.00    +0.000 C 
ATOM     34  C   UNL     1       0.175  13.859  19.578  0.00  0.00    +0.000 C 
ATOM     35  C   UNL     1       0.136  15.202  18.846  0.00  0.00    +0.000 C 
ENDBRANCH  27  29
ENDBRANCH  19  26
ENDBRANCH   1  23
TORSDOF 7
ENDMDL
MODEL 9
REMARK VINA RESULT:      -8.3      2.772      3.546
REMARK  Name = 
REMARK  7 active torsions:
REMARK  status: ('A' for Active; 'I' for Inactive)
REMARK    1  A    between atoms: C_2  and  C_11
REMARK    2  A    between atoms: N_3  and  C_4
REMARK    3  A    between atoms: C_15  and  C_16
REMARK    4  A    between atoms: C_16  and  C_17
REMARK    5  A    between atoms: C_23  and  O_24
REMARK    6  A    between atoms: O_24  and  C_25
REMARK    7  A    between atoms: C_25  and  C_26
REMARK                            x       y       z     vdW  Elec       q    Type
REMARK                         _______ _______ _______ _____ _____    ______ ____
ROOT
ATOM      1  C   UNL     1       2.758   6.827  18.067  0.00  0.00    +0.000 C 
ENDROOT
BRANCH   1   2
ATOM      2  C   UNL     1       2.925   5.394  18.540  0.00  0.00    +0.000 A 
ATOM      3  C   UNL     1       1.820   4.524  18.390  0.00  0.00    +0.000 A 
ATOM      4  C   UNL     1       1.839   3.226  18.899  0.00  0.00    +0.000 A 
ATOM      5 CL   UNL     1       0.470   2.204  18.720  0.00  0.00    +0.000 Cl
ATOM      6  C   UNL     1       2.950   2.765  19.585  0.00  0.00    +0.000 A 
ATOM      7  C   UNL     1       4.052   3.601  19.734  0.00  0.00    +0.000 A 
ATOM      8  C   UNL     1       4.082   4.897  19.176  0.00  0.00    +0.000 A 
BRANCH   8   9
ATOM      9  O   UNL     1       5.215   5.687  19.242  0.00  0.00    +0.000 OA
BRANCH   9  10
ATOM     10  C   UNL     1       6.398   5.010  18.769  0.00  0.00    +0.000 C 
BRANCH  10  11
ATOM     11  C   UNL     1       6.418   4.703  17.297  0.00  0.00    +0.000 A 
ATOM     12  C   UNL     1       5.712   3.636  16.741  0.00  0.00    +0.000 A 
ATOM     13  C   UNL     1       5.701   3.465  15.354  0.00  0.00    +0.000 A 
ATOM     14  C   UNL     1       6.418   4.333  14.525  0.00  0.00    +0.000 A 
ATOM     15 CL   UNL     1       6.469   4.053  12.828  0.00  0.00    +0.000 Cl
ATOM     16  C   UNL     1       7.110   5.408  15.063  0.00  0.00    +0.000 A 
ATOM     17  C   UNL     1       7.082   5.594  16.438  0.00  0.00    +0.000 A 
ATOM     18  F   UNL     1       7.700   6.670  16.946  0.00  0.00    +0.000 F 
ENDBRANCH  10  11
ENDBRANCH   9  10
ENDBRANCH   8   9
ENDBRANCH   1   2
BRANCH   1  23
ATOM     19  C   UNL     1       1.082   9.846  19.395  0.00  0.00    +0.000 A 
ATOM     20  C   UNL     1       0.829   9.541  20.730  0.00  0.00    +0.000 A 
ATOM     21  C   UNL     1       1.224   8.314  21.219  0.00  0.00    +0.000 A 
ATOM     22  C   UNL     1       1.853   7.420  20.354  0.00  0.00    +0.000 A 
ATOM     23  C   UNL     1       2.051   7.780  19.012  0.00  0.00    +0.000 A 
ATOM     24  N   UNL     1       1.685   8.995  18.519  0.00  0.00    +0.000 NA
BRANCH  19  26
ATOM     25  O   UNL     1      -0.424  11.342  18.393  0.00  0.00    +0.000 OA
ATOM     26  C   UNL     1       0.675  11.200  18.917  0.00  0.00    +0.000 C 
ATOM     27  N   UNL     1       1.556  12.251  19.089  0.00  0.00    +0.000 N 
ATOM     28  H   UNL     1       2.391  12.086  19.649  0.00  0.00    +0.000 HD
BRANCH  27  29
ATOM     29  C   UNL     1       1.131  13.568  18.681  0.00  0.00    +0.000 C 
ATOM     30  C   UNL     1       2.240  14.566  18.342  0.00  0.00    +0.000 C 
ATOM     31  C   UNL     1       1.787  15.846  19.074  0.00  0.00    +0.000 C 
ATOM     32  C   UNL     1       2.090  15.693  20.568  0.00  0.00    +0.000 C 
ATOM     33  C   UNL     1       1.099  14.605  21.005  0.00  0.00    +0.000 C 
ATOM     34  C   UNL     1       0.288  14.330  19.723  0.00  0.00    +0.000 C 
ATOM     35  C   UNL     1       0.262  15.714  19.069  0.00  0.00    +0.000 C 
ENDBRANCH  27  29
ENDBRANCH  19  26
ENDBRANCH   1  23
TORSDOF 7
ENDMDL
