MODEL 1
REMARK VINA RESULT:      -7.4      0.000      0.000
REMARK  Name = 
REMARK  10 active torsions:
REMARK  status: ('A' for Active; 'I' for Inactive)
REMARK    1  A    between atoms: C_1  and  O_2
REMARK    2  A    between atoms: O_2  and  C_3
REMARK    3  A    between atoms: C_9  and  S_10
REMARK    4  A    between atoms: S_10  and  N_13
REMARK    5  A    between atoms: N_13  and  C_14
REMARK    6  A    between atoms: C_14  and  C_15
REMARK    7  A    between atoms: C_14  and  C_16
REMARK    8  A    between atoms: N_18  and  C_19
REMARK    9  A    between atoms: C_19  and  C_20
REMARK   10  A    between atoms: C_20  and  N_21
REMARK                            x       y       z     vdW  Elec       q    Type
REMARK                         _______ _______ _______ _____ _____    ______ ____
ROOT
ATOM      1  N   UNL     1       7.081   5.200  17.290  0.00  0.00    +0.000 NA
ATOM      2  H   UNL     1       7.775   5.363  16.556  0.00  0.00    +0.000 HD
ENDROOT
BRANCH   1   3
ATOM      3  S   UNL     1       5.561   5.001  16.553  0.00  0.00    +0.000 S 
ATOM      4  O   UNL     1       5.364   3.573  16.382  0.00  0.00    +0.000 OA
ATOM      5  O   UNL     1       5.507   5.894  15.419  0.00  0.00    +0.000 OA
BRANCH   3  12
ATOM      6  C   UNL     1       4.135   4.918  18.946  0.00  0.00    +0.000 A 
ATOM      7  C   UNL     1       3.198   5.458  19.842  0.00  0.00    +0.000 A 
ATOM      8  C   UNL     1       2.471   6.607  19.513  0.00  0.00    +0.000 A 
ATOM      9  C   UNL     1       2.680   7.230  18.288  0.00  0.00    +0.000 A 
ATOM     10 CL   UNL     1       1.751   8.616  17.867  0.00  0.00    +0.000 Cl
ATOM     11  C   UNL     1       3.631   6.738  17.399  0.00  0.00    +0.000 A 
ATOM     12  C   UNL     1       4.358   5.582  17.727  0.00  0.00    +0.000 A 
BRANCH   6  14
ATOM     13  C   UNL     1       4.117   2.659  19.704  0.00  0.00    +0.000 C 
ATOM     14  O   UNL     1       4.847   3.775  19.197  0.00  0.00    +0.000 OA
ENDBRANCH   6  14
ENDBRANCH   3  12
ENDBRANCH   1   3
BRANCH   1  15
ATOM     15  C   UNL     1       7.185   6.199  18.393  0.00  0.00    +0.000 C 
ATOM     16  C   UNL     1       8.160   5.662  19.437  0.00  0.00    +0.000 C 
BRANCH  15  17
ATOM     17  C   UNL     1       7.703   7.549  17.911  0.00  0.00    +0.000 C 
ATOM     18  O   UNL     1       7.426   7.985  16.796  0.00  0.00    +0.000 OA
ATOM     19  N   UNL     1       8.537   8.233  18.776  0.00  0.00    +0.000 N 
ATOM     20  H   UNL     1       8.632   7.916  19.733  0.00  0.00    +0.000 HD
BRANCH  19  21
ATOM     21  C   UNL     1       8.878   9.606  18.443  0.00  0.00    +0.000 C 
BRANCH  21  22
ATOM     22  C   UNL     1       9.366  10.452  19.630  0.00  0.00    +0.000 C 
BRANCH  22  23
ATOM     23  N   UNL     1      10.649  11.132  19.368  0.00  0.00    +0.000 NA
ATOM     24  C   UNL     1      10.970  12.117  20.425  0.00  0.00    +0.000 C 
ATOM     25  C   UNL     1      10.130  13.402  20.343  0.00  0.00    +0.000 C 
ATOM     26  O   UNL     1      10.264  14.033  19.063  0.00  0.00    +0.000 OA
ATOM     27  C   UNL     1       9.903  13.136  18.005  0.00  0.00    +0.000 C 
ATOM     28  C   UNL     1      10.718  11.833  18.065  0.00  0.00    +0.000 C 
ENDBRANCH  22  23
ENDBRANCH  21  22
ENDBRANCH  19  21
ENDBRANCH  15  17
ENDBRANCH   1  15
TORSDOF 8
ENDMDL
MODEL 2
REMARK VINA RESULT:      -7.3      5.068      7.131
REMARK  Name = 
REMARK  10 active torsions:
REMARK  status: ('A' for Active; 'I' for Inactive)
REMARK    1  A    between atoms: C_1  and  O_2
REMARK    2  A    between atoms: O_2  and  C_3
REMARK    3  A    between atoms: C_9  and  S_10
REMARK    4  A    between atoms: S_10  and  N_13
REMARK    5  A    between atoms: N_13  and  C_14
REMARK    6  A    between atoms: C_14  and  C_15
REMARK    7  A    between atoms: C_14  and  C_16
REMARK    8  A    between atoms: N_18  and  C_19
REMARK    9  A    between atoms: C_19  and  C_20
REMARK   10  A    between atoms: C_20  and  N_21
REMARK                            x       y       z     vdW  Elec       q    Type
REMARK                         _______ _______ _______ _____ _____    ______ ____
ROOT
ATOM      1  N   UNL     1       3.575   4.905  19.461  0.00  0.00    +0.000 NA
ATOM      2  H   UNL     1       4.252   5.633  19.218  0.00  0.00    +0.000 HD
ENDROOT
BRANCH   1   3
ATOM      3  S   UNL     1       3.826   3.577  18.430  0.00  0.00    +0.000 S 
ATOM      4  O   UNL     1       2.624   3.438  17.627  0.00  0.00    +0.000 OA
ATOM      5  O   UNL     1       4.302   2.479  19.239  0.00  0.00    +0.000 OA
BRANCH   3  12
ATOM      6  C   UNL     1       6.331   4.638  17.826  0.00  0.00    +0.000 A 
ATOM      7  C   UNL     1       7.358   4.934  16.915  0.00  0.00    +0.000 A 
ATOM      8  C   UNL     1       7.201   4.673  15.549  0.00  0.00    +0.000 A 
ATOM      9  C   UNL     1       6.019   4.107  15.085  0.00  0.00    +0.000 A 
ATOM     10 CL   UNL     1       5.811   3.830  13.400  0.00  0.00    +0.000 Cl
ATOM     11  C   UNL     1       5.002   3.768  15.972  0.00  0.00    +0.000 A 
ATOM     12  C   UNL     1       5.158   4.034  17.343  0.00  0.00    +0.000 A 
BRANCH   6  14
ATOM     13  C   UNL     1       7.530   5.679  19.603  0.00  0.00    +0.000 C 
ATOM     14  O   UNL     1       6.413   4.906  19.167  0.00  0.00    +0.000 OA
ENDBRANCH   6  14
ENDBRANCH   3  12
ENDBRANCH   1   3
BRANCH   1  15
ATOM     15  C   UNL     1       2.187   5.441  19.566  0.00  0.00    +0.000 C 
ATOM     16  C   UNL     1       1.491   4.747  20.734  0.00  0.00    +0.000 C 
BRANCH  15  17
ATOM     17  C   UNL     1       2.159   6.943  19.823  0.00  0.00    +0.000 C 
ATOM     18  O   UNL     1       2.628   7.744  19.017  0.00  0.00    +0.000 OA
ATOM     19  N   UNL     1       1.620   7.352  21.029  0.00  0.00    +0.000 N 
ATOM     20  H   UNL     1       1.119   6.685  21.603  0.00  0.00    +0.000 HD
BRANCH  19  21
ATOM     21  C   UNL     1       1.385   8.773  21.217  0.00  0.00    +0.000 C 
BRANCH  21  22
ATOM     22  C   UNL     1       0.006   9.264  20.746  0.00  0.00    +0.000 C 
BRANCH  22  23
ATOM     23  N   UNL     1       0.057   9.992  19.464  0.00  0.00    +0.000 NA
ATOM     24  C   UNL     1       1.062  11.078  19.492  0.00  0.00    +0.000 C 
ATOM     25  C   UNL     1       0.622  12.302  20.312  0.00  0.00    +0.000 C 
ATOM     26  O   UNL     1      -0.621  12.831  19.833  0.00  0.00    +0.000 OA
ATOM     27  C   UNL     1      -1.647  11.830  19.846  0.00  0.00    +0.000 C 
ATOM     28  C   UNL     1      -1.233  10.586  19.043  0.00  0.00    +0.000 C 
ENDBRANCH  22  23
ENDBRANCH  21  22
ENDBRANCH  19  21
ENDBRANCH  15  17
ENDBRANCH   1  15
TORSDOF 8
ENDMDL
MODEL 3
REMARK VINA RESULT:      -7.1      4.970      7.114
REMARK  Name = 
REMARK  10 active torsions:
REMARK  status: ('A' for Active; 'I' for Inactive)
REMARK    1  A    between atoms: C_1  and  O_2
REMARK    2  A    between atoms: O_2  and  C_3
REMARK    3  A    between atoms: C_9  and  S_10
REMARK    4  A    between atoms: S_10  and  N_13
REMARK    5  A    between atoms: N_13  and  C_14
REMARK    6  A    between atoms: C_14  and  C_15
REMARK    7  A    between atoms: C_14  and  C_16
REMARK    8  A    between atoms: N_18  and  C_19
REMARK    9  A    between atoms: C_19  and  C_20
REMARK   10  A    between atoms: C_20  and  N_21
REMARK                            x       y       z     vdW  Elec       q    Type
REMARK                         _______ _______ _______ _____ _____    ______ ____
ROOT
ATOM      1  N   UNL     1       3.700   4.811  19.799  0.00  0.00    +0.000 NA
ATOM      2  H   UNL     1       4.417   5.536  19.705  0.00  0.00    +0.000 HD
ENDROOT
BRANCH   1   3
ATOM      3  S   UNL     1       4.180   3.462  18.882  0.00  0.00    +0.000 S 
ATOM      4  O   UNL     1       2.993   2.974  18.204  0.00  0.00    +0.000 OA
ATOM      5  O   UNL     1       4.944   2.594  19.749  0.00  0.00    +0.000 OA
BRANCH   3  12
ATOM      6  C   UNL     1       6.442   4.820  17.986  0.00  0.00    +0.000 A 
ATOM      7  C   UNL     1       7.304   5.236  16.957  0.00  0.00    +0.000 A 
ATOM      8  C   UNL     1       7.014   4.951  15.619  0.00  0.00    +0.000 A 
ATOM      9  C   UNL     1       5.862   4.241  15.298  0.00  0.00    +0.000 A 
ATOM     10 CL   UNL     1       5.483   3.932  13.649  0.00  0.00    +0.000 Cl
ATOM     11  C   UNL     1       5.012   3.784  16.301  0.00  0.00    +0.000 A 
ATOM     12  C   UNL     1       5.301   4.075  17.644  0.00  0.00    +0.000 A 
BRANCH   6  14
ATOM     13  C   UNL     1       7.904   5.704  19.647  0.00  0.00    +0.000 C 
ATOM     14  O   UNL     1       6.655   5.104  19.309  0.00  0.00    +0.000 OA
ENDBRANCH   6  14
ENDBRANCH   3  12
ENDBRANCH   1   3
BRANCH   1  15
ATOM     15  C   UNL     1       2.327   5.347  19.567  0.00  0.00    +0.000 C 
ATOM     16  C   UNL     1       1.436   4.901  20.723  0.00  0.00    +0.000 C 
BRANCH  15  17
ATOM     17  C   UNL     1       2.297   6.869  19.505  0.00  0.00    +0.000 C 
ATOM     18  O   UNL     1       2.802   7.487  18.570  0.00  0.00    +0.000 OA
ATOM     19  N   UNL     1       1.714   7.518  20.578  0.00  0.00    +0.000 N 
ATOM     20  H   UNL     1       1.188   6.984  21.258  0.00  0.00    +0.000 HD
BRANCH  19  21
ATOM     21  C   UNL     1       1.480   8.947  20.458  0.00  0.00    +0.000 C 
BRANCH  21  22
ATOM     22  C   UNL     1       0.335   9.485  21.333  0.00  0.00    +0.000 C 
BRANCH  22  23
ATOM     23  N   UNL     1       0.576  10.856  21.823  0.00  0.00    +0.000 NA
ATOM     24  C   UNL     1      -0.637  11.435  22.442  0.00  0.00    +0.000 C 
ATOM     25  C   UNL     1      -1.706  11.856  21.419  0.00  0.00    +0.000 C 
ATOM     26  O   UNL     1      -1.179  12.787  20.466  0.00  0.00    +0.000 OA
ATOM     27  C   UNL     1      -0.036  12.246  19.793  0.00  0.00    +0.000 C 
ATOM     28  C   UNL     1       1.050  11.804  20.788  0.00  0.00    +0.000 C 
ENDBRANCH  22  23
ENDBRANCH  21  22
ENDBRANCH  19  21
ENDBRANCH  15  17
ENDBRANCH   1  15
TORSDOF 8
ENDMDL
MODEL 4
REMARK VINA RESULT:      -7.1      1.472      2.094
REMARK  Name = 
REMARK  10 active torsions:
REMARK  status: ('A' for Active; 'I' for Inactive)
REMARK    1  A    between atoms: C_1  and  O_2
REMARK    2  A    between atoms: O_2  and  C_3
REMARK    3  A    between atoms: C_9  and  S_10
REMARK    4  A    between atoms: S_10  and  N_13
REMARK    5  A    between atoms: N_13  and  C_14
REMARK    6  A    between atoms: C_14  and  C_15
REMARK    7  A    between atoms: C_14  and  C_16
REMARK    8  A    between atoms: N_18  and  C_19
REMARK    9  A    between atoms: C_19  and  C_20
REMARK   10  A    between atoms: C_20  and  N_21
REMARK                            x       y       z     vdW  Elec       q    Type
REMARK                         _______ _______ _______ _____ _____    ______ ____
ROOT
ATOM      1  N   UNL     1       5.610   4.730  17.501  0.00  0.00    +0.000 NA
ATOM      2  H   UNL     1       5.133   5.378  16.868  0.00  0.00    +0.000 HD
ENDROOT
BRANCH   1   3
ATOM      3  S   UNL     1       4.440   3.977  18.478  0.00  0.00    +0.000 S 
ATOM      4  O   UNL     1       5.140   3.445  19.633  0.00  0.00    +0.000 OA
ATOM      5  O   UNL     1       3.654   3.112  17.629  0.00  0.00    +0.000 OA
BRANCH   3  12
ATOM      6  C   UNL     1       2.551   5.112  20.184  0.00  0.00    +0.000 A 
ATOM      7  C   UNL     1       1.751   6.190  20.595  0.00  0.00    +0.000 A 
ATOM      8  C   UNL     1       1.723   7.382  19.863  0.00  0.00    +0.000 A 
ATOM      9  C   UNL     1       2.502   7.508  18.718  0.00  0.00    +0.000 A 
ATOM     10 CL   UNL     1       2.431   8.958  17.794  0.00  0.00    +0.000 Cl
ATOM     11  C   UNL     1       3.333   6.468  18.311  0.00  0.00    +0.000 A 
ATOM     12  C   UNL     1       3.357   5.270  19.044  0.00  0.00    +0.000 A 
BRANCH   6  14
ATOM     13  C   UNL     1       1.352   3.209  20.974  0.00  0.00    +0.000 C 
ATOM     14  O   UNL     1       2.588   3.909  20.838  0.00  0.00    +0.000 OA
ENDBRANCH   6  14
ENDBRANCH   3  12
ENDBRANCH   1   3
BRANCH   1  15
ATOM     15  C   UNL     1       6.771   5.369  18.187  0.00  0.00    +0.000 C 
ATOM     16  C   UNL     1       8.010   4.517  17.929  0.00  0.00    +0.000 C 
BRANCH  15  17
ATOM     17  C   UNL     1       7.049   6.777  17.674  0.00  0.00    +0.000 C 
ATOM     18  O   UNL     1       6.437   7.248  16.718  0.00  0.00    +0.000 OA
ATOM     19  N   UNL     1       8.058   7.477  18.311  0.00  0.00    +0.000 N 
ATOM     20  H   UNL     1       8.444   7.118  19.176  0.00  0.00    +0.000 HD
BRANCH  19  21
ATOM     21  C   UNL     1       8.210   8.886  17.993  0.00  0.00    +0.000 C 
BRANCH  21  22
ATOM     22  C   UNL     1       9.197   9.645  18.894  0.00  0.00    +0.000 C 
BRANCH  22  23
ATOM     23  N   UNL     1       8.879  11.080  19.023  0.00  0.00    +0.000 NA
ATOM     24  C   UNL     1       9.478  11.873  17.927  0.00  0.00    +0.000 C 
ATOM     25  C   UNL     1      10.997  12.071  18.072  0.00  0.00    +0.000 C 
ATOM     26  O   UNL     1      11.327  12.683  19.325  0.00  0.00    +0.000 OA
ATOM     27  C   UNL     1      10.820  11.916  20.423  0.00  0.00    +0.000 C 
ATOM     28  C   UNL     1       9.303  11.690  20.304  0.00  0.00    +0.000 C 
ENDBRANCH  22  23
ENDBRANCH  21  22
ENDBRANCH  19  21
ENDBRANCH  15  17
ENDBRANCH   1  15
TORSDOF 8
ENDMDL
MODEL 5
REMARK VINA RESULT:      -6.9      1.313      1.700
REMARK  Name = 
REMARK  10 active torsions:
REMARK  status: ('A' for Active; 'I' for Inactive)
REMARK    1  A    between atoms: C_1  and  O_2
REMARK    2  A    between atoms: O_2  and  C_3
REMARK    3  A    between atoms: C_9  and  S_10
REMARK    4  A    between atoms: S_10  and  N_13
REMARK    5  A    between atoms: N_13  and  C_14
REMARK    6  A    between atoms: C_14  and  C_15
REMARK    7  A    between atoms: C_14  and  C_16
REMARK    8  A    between atoms: N_18  and  C_19
REMARK    9  A    between atoms: C_19  and  C_20
REMARK   10  A    between atoms: C_20  and  N_21
REMARK                            x       y       z     vdW  Elec       q    Type
REMARK                         _______ _______ _______ _____ _____    ______ ____
ROOT
ATOM      1  N   UNL     1       5.859   4.848  17.475  0.00  0.00    +0.000 NA
ATOM      2  H   UNL     1       5.406   5.401  16.742  0.00  0.00    +0.000 HD
ENDROOT
BRANCH   1   3
ATOM      3  S   UNL     1       4.667   3.923  18.259  0.00  0.00    +0.000 S 
ATOM      4  O   UNL     1       5.324   3.244  19.362  0.00  0.00    +0.000 OA
ATOM      5  O   UNL     1       3.961   3.172  17.246  0.00  0.00    +0.000 OA
BRANCH   3  12
ATOM      6  C   UNL     1       2.706   4.758  20.055  0.00  0.00    +0.000 A 
ATOM      7  C   UNL     1       1.842   5.738  20.568  0.00  0.00    +0.000 A 
ATOM      8  C   UNL     1       1.747   6.997  19.966  0.00  0.00    +0.000 A 
ATOM      9  C   UNL     1       2.523   7.289  18.849  0.00  0.00    +0.000 A 
ATOM     10 CL   UNL     1       2.370   8.821  18.082  0.00  0.00    +0.000 Cl
ATOM     11  C   UNL     1       3.415   6.348  18.344  0.00  0.00    +0.000 A 
ATOM     12  C   UNL     1       3.506   5.082  18.946  0.00  0.00    +0.000 A 
BRANCH   6  14
ATOM     13  C   UNL     1       2.084   3.233  21.777  0.00  0.00    +0.000 C 
ATOM     14  O   UNL     1       2.812   3.496  20.579  0.00  0.00    +0.000 OA
ENDBRANCH   6  14
ENDBRANCH   3  12
ENDBRANCH   1   3
BRANCH   1  15
ATOM     15  C   UNL     1       6.757   5.678  18.330  0.00  0.00    +0.000 C 
ATOM     16  C   UNL     1       8.050   4.902  18.563  0.00  0.00    +0.000 C 
BRANCH  15  17
ATOM     17  C   UNL     1       7.114   7.010  17.680  0.00  0.00    +0.000 C 
ATOM     18  O   UNL     1       6.581   7.383  16.637  0.00  0.00    +0.000 OA
ATOM     19  N   UNL     1       8.104   7.752  18.299  0.00  0.00    +0.000 N 
ATOM     20  H   UNL     1       8.421   7.486  19.224  0.00  0.00    +0.000 HD
BRANCH  19  21
ATOM     21  C   UNL     1       8.322   9.110  17.834  0.00  0.00    +0.000 C 
BRANCH  21  22
ATOM     22  C   UNL     1       8.992  10.040  18.858  0.00  0.00    +0.000 C 
BRANCH  22  23
ATOM     23  N   UNL     1       9.793  11.111  18.232  0.00  0.00    +0.000 NA
ATOM     24  C   UNL     1      11.056  11.346  18.966  0.00  0.00    +0.000 C 
ATOM     25  C   UNL     1      10.865  12.096  20.295  0.00  0.00    +0.000 C 
ATOM     26  O   UNL     1      10.201  13.351  20.095  0.00  0.00    +0.000 OA
ATOM     27  C   UNL     1       8.939  13.169  19.442  0.00  0.00    +0.000 C 
ATOM     28  C   UNL     1       9.093  12.411  18.113  0.00  0.00    +0.000 C 
ENDBRANCH  22  23
ENDBRANCH  21  22
ENDBRANCH  19  21
ENDBRANCH  15  17
ENDBRANCH   1  15
TORSDOF 8
ENDMDL
MODEL 6
REMARK VINA RESULT:      -6.8      4.810      7.081
REMARK  Name = 
REMARK  10 active torsions:
REMARK  status: ('A' for Active; 'I' for Inactive)
REMARK    1  A    between atoms: C_1  and  O_2
REMARK    2  A    between atoms: O_2  and  C_3
REMARK    3  A    between atoms: C_9  and  S_10
REMARK    4  A    between atoms: S_10  and  N_13
REMARK    5  A    between atoms: N_13  and  C_14
REMARK    6  A    between atoms: C_14  and  C_15
REMARK    7  A    between atoms: C_14  and  C_16
REMARK    8  A    between atoms: N_18  and  C_19
REMARK    9  A    between atoms: C_19  and  C_20
REMARK   10  A    between atoms: C_20  and  N_21
REMARK                            x       y       z     vdW  Elec       q    Type
REMARK                         _______ _______ _______ _____ _____    ______ ____
ROOT
ATOM      1  N   UNL     1       3.756   5.531  19.025  0.00  0.00    +0.000 NA
ATOM      2  H   UNL     1       4.271   6.283  18.559  0.00  0.00    +0.000 HD
ENDROOT
BRANCH   1   3
ATOM      3  S   UNL     1       4.053   4.081  18.187  0.00  0.00    +0.000 S 
ATOM      4  O   UNL     1       2.823   3.739  17.497  0.00  0.00    +0.000 OA
ATOM      5  O   UNL     1       4.659   3.156  19.116  0.00  0.00    +0.000 OA
BRANCH   3  12
ATOM      6  C   UNL     1       6.396   5.262  17.250  0.00  0.00    +0.000 A 
ATOM      7  C   UNL     1       7.347   5.484  16.239  0.00  0.00    +0.000 A 
ATOM      8  C   UNL     1       7.168   4.952  14.958  0.00  0.00    +0.000 A 
ATOM      9  C   UNL     1       6.041   4.188  14.678  0.00  0.00    +0.000 A 
ATOM     10 CL   UNL     1       5.801   3.575  13.088  0.00  0.00    +0.000 Cl
ATOM     11  C   UNL     1       5.104   3.921  15.671  0.00  0.00    +0.000 A 
ATOM     12  C   UNL     1       5.281   4.459  16.957  0.00  0.00    +0.000 A 
BRANCH   6  14
ATOM     13  C   UNL     1       7.794   5.782  19.109  0.00  0.00    +0.000 C 
ATOM     14  O   UNL     1       6.499   5.789  18.510  0.00  0.00    +0.000 OA
ENDBRANCH   6  14
ENDBRANCH   3  12
ENDBRANCH   1   3
BRANCH   1  15
ATOM     15  C   UNL     1       2.333   5.899  19.278  0.00  0.00    +0.000 C 
ATOM     16  C   UNL     1       1.928   5.341  20.640  0.00  0.00    +0.000 C 
BRANCH  15  17
ATOM     17  C   UNL     1       2.115   7.407  19.301  0.00  0.00    +0.000 C 
ATOM     18  O   UNL     1       1.960   8.021  20.355  0.00  0.00    +0.000 OA
ATOM     19  N   UNL     1       2.054   8.040  18.072  0.00  0.00    +0.000 N 
ATOM     20  H   UNL     1       2.322   7.534  17.237  0.00  0.00    +0.000 HD
BRANCH  19  21
ATOM     21  C   UNL     1       2.058   9.492  18.058  0.00  0.00    +0.000 C 
BRANCH  21  22
ATOM     22  C   UNL     1       0.690  10.141  18.324  0.00  0.00    +0.000 C 
BRANCH  22  23
ATOM     23  N   UNL     1       0.712  11.102  19.444  0.00  0.00    +0.000 NA
ATOM     24  C   UNL     1      -0.529  11.033  20.247  0.00  0.00    +0.000 C 
ATOM     25  C   UNL     1      -1.744  11.675  19.557  0.00  0.00    +0.000 C 
ATOM     26  O   UNL     1      -1.487  13.042  19.213  0.00  0.00    +0.000 OA
ATOM     27  C   UNL     1      -0.327  13.156  18.381  0.00  0.00    +0.000 C 
ATOM     28  C   UNL     1       0.906  12.513  19.037  0.00  0.00    +0.000 C 
ENDBRANCH  22  23
ENDBRANCH  21  22
ENDBRANCH  19  21
ENDBRANCH  15  17
ENDBRANCH   1  15
TORSDOF 8
ENDMDL
MODEL 7
REMARK VINA RESULT:      -6.8      4.903      7.225
REMARK  Name = 
REMARK  10 active torsions:
REMARK  status: ('A' for Active; 'I' for Inactive)
REMARK    1  A    between atoms: C_1  and  O_2
REMARK    2  A    between atoms: O_2  and  C_3
REMARK    3  A    between atoms: C_9  and  S_10
REMARK    4  A    between atoms: S_10  and  N_13
REMARK    5  A    between atoms: N_13  and  C_14
REMARK    6  A    between atoms: C_14  and  C_15
REMARK    7  A    between atoms: C_14  and  C_16
REMARK    8  A    between atoms: N_18  and  C_19
REMARK    9  A    between atoms: C_19  and  C_20
REMARK   10  A    between atoms: C_20  and  N_21
REMARK                            x       y       z     vdW  Elec       q    Type
REMARK                         _______ _______ _______ _____ _____    ______ ____
ROOT
ATOM      1  N   UNL     1       3.003   4.691  18.328  0.00  0.00    +0.000 NA
ATOM      2  H   UNL     1       2.183   4.224  18.726  0.00  0.00    +0.000 HD
ENDROOT
BRANCH   1   3
ATOM      3  S   UNL     1       4.270   3.561  18.240  0.00  0.00    +0.000 S 
ATOM      4  O   UNL     1       3.693   2.325  17.744  0.00  0.00    +0.000 OA
ATOM      5  O   UNL     1       4.972   3.593  19.503  0.00  0.00    +0.000 OA
BRANCH   3  12
ATOM      6  C   UNL     1       6.411   5.091  17.323  0.00  0.00    +0.000 A 
ATOM      7  C   UNL     1       7.290   5.497  16.305  0.00  0.00    +0.000 A 
ATOM      8  C   UNL     1       7.136   5.029  14.996  0.00  0.00    +0.000 A 
ATOM      9  C   UNL     1       6.106   4.145  14.695  0.00  0.00    +0.000 A 
ATOM     10 CL   UNL     1       5.890   3.609  13.075  0.00  0.00    +0.000 Cl
ATOM     11  C   UNL     1       5.245   3.698  15.693  0.00  0.00    +0.000 A 
ATOM     12  C   UNL     1       5.398   4.171  17.007  0.00  0.00    +0.000 A 
BRANCH   6  14
ATOM     13  C   UNL     1       7.797   5.754  19.145  0.00  0.00    +0.000 C 
ATOM     14  O   UNL     1       6.490   5.545  18.613  0.00  0.00    +0.000 OA
ENDBRANCH   6  14
ENDBRANCH   3  12
ENDBRANCH   1   3
BRANCH   1  15
ATOM     15  C   UNL     1       3.287   5.993  18.999  0.00  0.00    +0.000 C 
ATOM     16  C   UNL     1       3.313   7.086  17.934  0.00  0.00    +0.000 C 
BRANCH  15  17
ATOM     17  C   UNL     1       2.228   6.362  20.031  0.00  0.00    +0.000 C 
ATOM     18  O   UNL     1       1.591   5.503  20.636  0.00  0.00    +0.000 OA
ATOM     19  N   UNL     1       1.990   7.712  20.214  0.00  0.00    +0.000 N 
ATOM     20  H   UNL     1       2.623   8.389  19.807  0.00  0.00    +0.000 HD
BRANCH  19  21
ATOM     21  C   UNL     1       1.147   8.105  21.330  0.00  0.00    +0.000 C 
BRANCH  21  22
ATOM     22  C   UNL     1       0.100   9.180  20.995  0.00  0.00    +0.000 C 
BRANCH  22  23
ATOM     23  N   UNL     1       0.609  10.219  20.079  0.00  0.00    +0.000 NA
ATOM     24  C   UNL     1       0.434  11.576  20.641  0.00  0.00    +0.000 C 
ATOM     25  C   UNL     1      -1.020  12.076  20.599  0.00  0.00    +0.000 C 
ATOM     26  O   UNL     1      -1.541  12.054  19.264  0.00  0.00    +0.000 OA
ATOM     27  C   UNL     1      -1.451  10.742  18.696  0.00  0.00    +0.000 C 
ATOM     28  C   UNL     1      -0.010  10.207  18.733  0.00  0.00    +0.000 C 
ENDBRANCH  22  23
ENDBRANCH  21  22
ENDBRANCH  19  21
ENDBRANCH  15  17
ENDBRANCH   1  15
TORSDOF 8
ENDMDL
MODEL 8
REMARK VINA RESULT:      -6.7      5.079      7.298
REMARK  Name = 
REMARK  10 active torsions:
REMARK  status: ('A' for Active; 'I' for Inactive)
REMARK    1  A    between atoms: C_1  and  O_2
REMARK    2  A    between atoms: O_2  and  C_3
REMARK    3  A    between atoms: C_9  and  S_10
REMARK    4  A    between atoms: S_10  and  N_13
REMARK    5  A    between atoms: N_13  and  C_14
REMARK    6  A    between atoms: C_14  and  C_15
REMARK    7  A    between atoms: C_14  and  C_16
REMARK    8  A    between atoms: N_18  and  C_19
REMARK    9  A    between atoms: C_19  and  C_20
REMARK   10  A    between atoms: C_20  and  N_21
REMARK                            x       y       z     vdW  Elec       q    Type
REMARK                         _______ _______ _______ _____ _____    ______ ____
ROOT
ATOM      1  N   UNL     1       3.831   3.812  19.064  0.00  0.00    +0.000 NA
ATOM      2  H   UNL     1       4.395   4.506  19.563  0.00  0.00    +0.000 HD
ENDROOT
BRANCH   1   3
ATOM      3  S   UNL     1       3.422   4.452  17.543  0.00  0.00    +0.000 S 
ATOM      4  O   UNL     1       2.992   5.820  17.768  0.00  0.00    +0.000 OA
ATOM      5  O   UNL     1       2.550   3.503  16.890  0.00  0.00    +0.000 OA
BRANCH   3  12
ATOM      6  C   UNL     1       6.144   4.917  17.172  0.00  0.00    +0.000 A 
ATOM      7  C   UNL     1       7.302   4.891  16.378  0.00  0.00    +0.000 A 
ATOM      8  C   UNL     1       7.244   4.501  15.037  0.00  0.00    +0.000 A 
ATOM      9  C   UNL     1       6.026   4.125  14.479  0.00  0.00    +0.000 A 
ATOM     10 CL   UNL     1       5.949   3.690  12.816  0.00  0.00    +0.000 Cl
ATOM     11  C   UNL     1       4.871   4.105  15.254  0.00  0.00    +0.000 A 
ATOM     12  C   UNL     1       4.930   4.501  16.601  0.00  0.00    +0.000 A 
BRANCH   6  14
ATOM     13  C   UNL     1       7.363   5.824  19.008  0.00  0.00    +0.000 C 
ATOM     14  O   UNL     1       6.135   5.327  18.479  0.00  0.00    +0.000 OA
ENDBRANCH   6  14
ENDBRANCH   3  12
ENDBRANCH   1   3
BRANCH   1  15
ATOM     15  C   UNL     1       2.722   3.280  19.907  0.00  0.00    +0.000 C 
ATOM     16  C   UNL     1       3.325   2.694  21.181  0.00  0.00    +0.000 C 
BRANCH  15  17
ATOM     17  C   UNL     1       1.723   4.359  20.309  0.00  0.00    +0.000 C 
ATOM     18  O   UNL     1       0.513   4.145  20.323  0.00  0.00    +0.000 OA
ATOM     19  N   UNL     1       2.248   5.603  20.610  0.00  0.00    +0.000 N 
ATOM     20  H   UNL     1       3.249   5.707  20.724  0.00  0.00    +0.000 HD
BRANCH  19  21
ATOM     21  C   UNL     1       1.357   6.589  21.196  0.00  0.00    +0.000 C 
BRANCH  21  22
ATOM     22  C   UNL     1       1.516   8.011  20.635  0.00  0.00    +0.000 C 
BRANCH  22  23
ATOM     23  N   UNL     1       0.235   8.734  20.517  0.00  0.00    +0.000 NA
ATOM     24  C   UNL     1       0.431  10.117  20.028  0.00  0.00    +0.000 C 
ATOM     25  C   UNL     1       1.012  11.067  21.088  0.00  0.00    +0.000 C 
ATOM     26  O   UNL     1       0.193  11.101  22.264  0.00  0.00    +0.000 OA
ATOM     27  C   UNL     1       0.024   9.788  22.813  0.00  0.00    +0.000 C 
ATOM     28  C   UNL     1      -0.546   8.809  21.773  0.00  0.00    +0.000 C 
ENDBRANCH  22  23
ENDBRANCH  21  22
ENDBRANCH  19  21
ENDBRANCH  15  17
ENDBRANCH   1  15
TORSDOF 8
ENDMDL
MODEL 9
REMARK VINA RESULT:      -6.6      4.983      7.246
REMARK  Name = 
REMARK  10 active torsions:
REMARK  status: ('A' for Active; 'I' for Inactive)
REMARK    1  A    between atoms: C_1  and  O_2
REMARK    2  A    between atoms: O_2  and  C_3
REMARK    3  A    between atoms: C_9  and  S_10
REMARK    4  A    between atoms: S_10  and  N_13
REMARK    5  A    between atoms: N_13  and  C_14
REMARK    6  A    between atoms: C_14  and  C_15
REMARK    7  A    between atoms: C_14  and  C_16
REMARK    8  A    between atoms: N_18  and  C_19
REMARK    9  A    between atoms: C_19  and  C_20
REMARK   10  A    between atoms: C_20  and  N_21
REMARK                            x       y       z     vdW  Elec       q    Type
REMARK                         _______ _______ _______ _____ _____    ______ ____
ROOT
ATOM      1  N   UNL     1       2.917   4.371  18.734  0.00  0.00    +0.000 NA
ATOM      2  H   UNL     1       2.157   3.920  19.251  0.00  0.00    +0.000 HD
ENDROOT
BRANCH   1   3
ATOM      3  S   UNL     1       4.205   3.268  18.610  0.00  0.00    +0.000 S 
ATOM      4  O   UNL     1       3.650   2.035  18.082  0.00  0.00    +0.000 OA
ATOM      5  O   UNL     1       4.911   3.279  19.871  0.00  0.00    +0.000 OA
BRANCH   3  12
ATOM      6  C   UNL     1       6.442   4.690  17.751  0.00  0.00    +0.000 A 
ATOM      7  C   UNL     1       7.297   5.148  16.735  0.00  0.00    +0.000 A 
ATOM      8  C   UNL     1       7.012   4.893  15.390  0.00  0.00    +0.000 A 
ATOM      9  C   UNL     1       5.874   4.170  15.050  0.00  0.00    +0.000 A 
ATOM     10 CL   UNL     1       5.502   3.897  13.392  0.00  0.00    +0.000 Cl
ATOM     11  C   UNL     1       5.032   3.672  16.039  0.00  0.00    +0.000 A 
ATOM     12  C   UNL     1       5.316   3.933  17.390  0.00  0.00    +0.000 A 
BRANCH   6  14
ATOM     13  C   UNL     1       7.817   5.690  19.422  0.00  0.00    +0.000 C 
ATOM     14  O   UNL     1       6.650   4.944  19.081  0.00  0.00    +0.000 OA
ENDBRANCH   6  14
ENDBRANCH   3  12
ENDBRANCH   1   3
BRANCH   1  15
ATOM     15  C   UNL     1       3.225   5.731  19.262  0.00  0.00    +0.000 C 
ATOM     16  C   UNL     1       3.291   6.701  18.085  0.00  0.00    +0.000 C 
BRANCH  15  17
ATOM     17  C   UNL     1       2.162   6.236  20.231  0.00  0.00    +0.000 C 
ATOM     18  O   UNL     1       1.400   5.465  20.811  0.00  0.00    +0.000 OA
ATOM     19  N   UNL     1       2.071   7.607  20.387  0.00  0.00    +0.000 N 
ATOM     20  H   UNL     1       2.798   8.201  20.008  0.00  0.00    +0.000 HD
BRANCH  19  21
ATOM     21  C   UNL     1       1.221   8.112  21.452  0.00  0.00    +0.000 C 
BRANCH  21  22
ATOM     22  C   UNL     1       1.015   9.635  21.440  0.00  0.00    +0.000 C 
BRANCH  22  23
ATOM     23  N   UNL     1      -0.398  10.028  21.281  0.00  0.00    +0.000 NA
ATOM     24  C   UNL     1      -0.684  10.492  19.906  0.00  0.00    +0.000 C 
ATOM     25  C   UNL     1      -0.131  11.895  19.603  0.00  0.00    +0.000 C 
ATOM     26  O   UNL     1      -0.629  12.864  20.535  0.00  0.00    +0.000 OA
ATOM     27  C   UNL     1      -0.321  12.490  21.883  0.00  0.00    +0.000 C 
ATOM     28  C   UNL     1      -0.851  11.085  22.215  0.00  0.00    +0.000 C 
ENDBRANCH  22  23
ENDBRANCH  21  22
ENDBRANCH  19  21
ENDBRANCH  15  17
ENDBRANCH   1  15
TORSDOF 8
ENDMDL
