MODEL 1
REMARK VINA RESULT:      -6.4      0.000      0.000
REMARK  Name = 
REMARK  7 active torsions:
REMARK  status: ('A' for Active; 'I' for Inactive)
REMARK    1  A    between atoms: C_1  and  O_2
REMARK    2  A    between atoms: O_2  and  C_3
REMARK    3  A    between atoms: C_6  and  C_7
REMARK    4  A    between atoms: C_12  and  C_13
REMARK    5  A    between atoms: C_20  and  C_21
REMARK    6  A    between atoms: C_27  and  O_28
REMARK    7  A    between atoms: O_28  and  C_29
REMARK                            x       y       z     vdW  Elec       q    Type
REMARK                         _______ _______ _______ _____ _____    ______ ____
ROOT
ATOM      1  C   UNL     1      -2.873  12.068  18.873  0.00  0.00    +0.000 A 
ATOM      2  C   UNL     1      -3.235  11.591  17.623  0.00  0.00    +0.000 A 
ATOM      3  S   UNL     1      -4.883  11.208  17.507  0.00  0.00    +0.000 S 
ATOM      4  C   UNL     1      -5.152  11.666  19.121  0.00  0.00    +0.000 A 
ATOM      5  N   UNL     1      -6.382  11.500  19.620  0.00  0.00    +0.000 NA
ATOM      6  C   UNL     1      -6.489  11.879  20.888  0.00  0.00    +0.000 A 
ATOM      7  C   UNL     1      -7.836  11.713  21.526  0.00  0.00    +0.000 C 
ATOM      8  N   UNL     1      -5.511  12.438  21.623  0.00  0.00    +0.000 NA
ATOM      9  C   UNL     1      -4.277  12.678  21.088  0.00  0.00    +0.000 A 
ATOM     10  N   UNL     1      -3.408  13.412  21.877  0.00  0.00    +0.000 N 
ATOM     11  C   UNL     1      -2.476  14.403  21.325  0.00  0.00    +0.000 C 
ATOM     12  C   UNL     1      -2.495  15.706  22.127  0.00  0.00    +0.000 C 
ATOM     13  N   UNL     1      -2.229  15.413  23.541  0.00  0.00    +0.000 N 
ATOM     14  C   UNL     1      -1.054  15.658  24.215  0.00  0.00    +0.000 C 
ATOM     15  C   UNL     1       0.061  16.436  23.554  0.00  0.00    +0.000 C 
ATOM     16  O   UNL     1      -0.883  15.272  25.381  0.00  0.00    +0.000 OA
ATOM     17  C   UNL     1      -3.230  14.503  24.126  0.00  0.00    +0.000 C 
ATOM     18  C   UNL     1      -3.353  13.180  23.333  0.00  0.00    +0.000 C 
ATOM     19  C   UNL     1      -4.036  12.196  19.763  0.00  0.00    +0.000 A 
ENDROOT
BRANCH   1  23
ATOM     20  C   UNL     1       1.300  12.719  19.648  0.00  0.00    +0.000 A 
ATOM     21  C   UNL     1       0.652  13.330  18.570  0.00  0.00    +0.000 A 
ATOM     22  C   UNL     1      -0.725  13.196  18.384  0.00  0.00    +0.000 A 
ATOM     23  C   UNL     1      -1.447  12.283  19.144  0.00  0.00    +0.000 A 
ATOM     24  C   UNL     1      -0.778  11.592  20.166  0.00  0.00    +0.000 A 
ATOM     25  C   UNL     1       0.579  11.828  20.456  0.00  0.00    +0.000 A 
BRANCH  20  27
ATOM     26  C   UNL     1       3.012  14.341  19.824  0.00  0.00    +0.000 C 
ATOM     27  O   UNL     1       2.624  12.965  19.893  0.00  0.00    +0.000 OA
ENDBRANCH  20  27
BRANCH  25  28
ATOM     28  O   UNL     1       1.004  11.107  21.538  0.00  0.00    +0.000 OA
ATOM     29  C   UNL     1       0.620   9.746  21.649  0.00  0.00    +0.000 C 
ENDBRANCH  25  28
ENDBRANCH   1  23
TORSDOF 3
ENDMDL
MODEL 2
REMARK VINA RESULT:      -5.9      3.346      6.765
REMARK  Name = 
REMARK  7 active torsions:
REMARK  status: ('A' for Active; 'I' for Inactive)
REMARK    1  A    between atoms: C_1  and  O_2
REMARK    2  A    between atoms: O_2  and  C_3
REMARK    3  A    between atoms: C_6  and  C_7
REMARK    4  A    between atoms: C_12  and  C_13
REMARK    5  A    between atoms: C_20  and  C_21
REMARK    6  A    between atoms: C_27  and  O_28
REMARK    7  A    between atoms: O_28  and  C_29
REMARK                            x       y       z     vdW  Elec       q    Type
REMARK                         _______ _______ _______ _____ _____    ______ ____
ROOT
ATOM      1  C   UNL     1      -5.453  14.725  22.305  0.00  0.00    +0.000 A 
ATOM      2  C   UNL     1      -6.346  15.752  22.570  0.00  0.00    +0.000 A 
ATOM      3  S   UNL     1      -5.828  16.778  23.817  0.00  0.00    +0.000 S 
ATOM      4  C   UNL     1      -4.404  15.876  24.034  0.00  0.00    +0.000 A 
ATOM      5  N   UNL     1      -3.577  16.242  25.019  0.00  0.00    +0.000 NA
ATOM      6  C   UNL     1      -2.499  15.472  25.112  0.00  0.00    +0.000 A 
ATOM      7  C   UNL     1      -1.527  15.809  26.202  0.00  0.00    +0.000 C 
ATOM      8  N   UNL     1      -2.189  14.456  24.287  0.00  0.00    +0.000 NA
ATOM      9  C   UNL     1      -2.997  14.133  23.233  0.00  0.00    +0.000 A 
ATOM     10  N   UNL     1      -2.494  13.190  22.354  0.00  0.00    +0.000 N 
ATOM     11  C   UNL     1      -2.714  13.258  20.904  0.00  0.00    +0.000 C 
ATOM     12  C   UNL     1      -1.422  13.006  20.123  0.00  0.00    +0.000 C 
ATOM     13  N   UNL     1      -0.839  11.726  20.542  0.00  0.00    +0.000 N 
ATOM     14  C   UNL     1      -0.853  10.552  19.823  0.00  0.00    +0.000 C 
ATOM     15  C   UNL     1      -1.359  10.532  18.399  0.00  0.00    +0.000 C 
ATOM     16  O   UNL     1      -0.434   9.490  20.307  0.00  0.00    +0.000 OA
ATOM     17  C   UNL     1      -0.516  11.698  21.979  0.00  0.00    +0.000 C 
ATOM     18  C   UNL     1      -1.743  12.026  22.863  0.00  0.00    +0.000 C 
ATOM     19  C   UNL     1      -4.239  14.834  23.124  0.00  0.00    +0.000 A 
ENDROOT
BRANCH   1  23
ATOM     20  C   UNL     1      -6.668  11.659  19.553  0.00  0.00    +0.000 A 
ATOM     21  C   UNL     1      -6.687  11.451  20.936  0.00  0.00    +0.000 A 
ATOM     22  C   UNL     1      -6.390  12.484  21.827  0.00  0.00    +0.000 A 
ATOM     23  C   UNL     1      -5.865  13.682  21.357  0.00  0.00    +0.000 A 
ATOM     24  C   UNL     1      -5.751  13.859  19.970  0.00  0.00    +0.000 A 
ATOM     25  C   UNL     1      -6.185  12.879  19.058  0.00  0.00    +0.000 A 
BRANCH  20  27
ATOM     26  C   UNL     1      -7.014   9.345  19.213  0.00  0.00    +0.000 C 
ATOM     27  O   UNL     1      -7.088  10.678  18.696  0.00  0.00    +0.000 OA
ENDBRANCH  20  27
BRANCH  25  28
ATOM     28  O   UNL     1      -6.053  13.293  17.760  0.00  0.00    +0.000 OA
ATOM     29  C   UNL     1      -7.076  14.093  17.189  0.00  0.00    +0.000 C 
ENDBRANCH  25  28
ENDBRANCH   1  23
TORSDOF 3
ENDMDL
MODEL 3
REMARK VINA RESULT:      -5.9      0.949      1.900
REMARK  Name = 
REMARK  7 active torsions:
REMARK  status: ('A' for Active; 'I' for Inactive)
REMARK    1  A    between atoms: C_1  and  O_2
REMARK    2  A    between atoms: O_2  and  C_3
REMARK    3  A    between atoms: C_6  and  C_7
REMARK    4  A    between atoms: C_12  and  C_13
REMARK    5  A    between atoms: C_20  and  C_21
REMARK    6  A    between atoms: C_27  and  O_28
REMARK    7  A    between atoms: O_28  and  C_29
REMARK                            x       y       z     vdW  Elec       q    Type
REMARK                         _______ _______ _______ _____ _____    ______ ____
ROOT
ATOM      1  C   UNL     1      -2.699  12.224  19.163  0.00  0.00    +0.000 A 
ATOM      2  C   UNL     1      -2.886  11.778  17.864  0.00  0.00    +0.000 A 
ATOM      3  S   UNL     1      -4.488  11.324  17.539  0.00  0.00    +0.000 S 
ATOM      4  C   UNL     1      -4.968  11.708  19.124  0.00  0.00    +0.000 A 
ATOM      5  N   UNL     1      -6.239  11.468  19.467  0.00  0.00    +0.000 NA
ATOM      6  C   UNL     1      -6.514  11.793  20.724  0.00  0.00    +0.000 A 
ATOM      7  C   UNL     1      -7.916  11.542  21.191  0.00  0.00    +0.000 C 
ATOM      8  N   UNL     1      -5.658  12.368  21.588  0.00  0.00    +0.000 NA
ATOM      9  C   UNL     1      -4.383  12.685  21.212  0.00  0.00    +0.000 A 
ATOM     10  N   UNL     1      -3.651  13.427  22.123  0.00  0.00    +0.000 N 
ATOM     11  C   UNL     1      -2.712  14.480  21.719  0.00  0.00    +0.000 C 
ATOM     12  C   UNL     1      -2.889  15.749  22.554  0.00  0.00    +0.000 C 
ATOM     13  N   UNL     1      -2.778  15.416  23.979  0.00  0.00    +0.000 N 
ATOM     14  C   UNL     1      -1.705  15.689  24.797  0.00  0.00    +0.000 C 
ATOM     15  C   UNL     1      -0.560  16.542  24.299  0.00  0.00    +0.000 C 
ATOM     16  O   UNL     1      -1.653  15.268  25.962  0.00  0.00    +0.000 OA
ATOM     17  C   UNL     1      -3.794  14.440  24.411  0.00  0.00    +0.000 C 
ATOM     18  C   UNL     1      -3.757  13.143  23.567  0.00  0.00    +0.000 C 
ATOM     19  C   UNL     1      -3.963  12.264  19.911  0.00  0.00    +0.000 A 
ENDROOT
BRANCH   1  23
ATOM     20  C   UNL     1       1.315  12.991  20.483  0.00  0.00    +0.000 A 
ATOM     21  C   UNL     1       0.480  12.094  21.159  0.00  0.00    +0.000 A 
ATOM     22  C   UNL     1      -0.785  11.772  20.666  0.00  0.00    +0.000 A 
ATOM     23  C   UNL     1      -1.327  12.493  19.609  0.00  0.00    +0.000 A 
ATOM     24  C   UNL     1      -0.528  13.466  18.988  0.00  0.00    +0.000 A 
ATOM     25  C   UNL     1       0.803  13.696  19.385  0.00  0.00    +0.000 A 
BRANCH  20  27
ATOM     26  C   UNL     1       2.822  14.423  21.608  0.00  0.00    +0.000 C 
ATOM     27  O   UNL     1       2.601  13.197  20.905  0.00  0.00    +0.000 OA
ENDBRANCH  20  27
BRANCH  25  28
ATOM     28  O   UNL     1       1.418  14.629  18.595  0.00  0.00    +0.000 OA
ATOM     29  C   UNL     1       1.099  15.999  18.776  0.00  0.00    +0.000 C 
ENDBRANCH  25  28
ENDBRANCH   1  23
TORSDOF 3
ENDMDL
MODEL 4
REMARK VINA RESULT:      -5.9      3.500      6.189
REMARK  Name = 
REMARK  7 active torsions:
REMARK  status: ('A' for Active; 'I' for Inactive)
REMARK    1  A    between atoms: C_1  and  O_2
REMARK    2  A    between atoms: O_2  and  C_3
REMARK    3  A    between atoms: C_6  and  C_7
REMARK    4  A    between atoms: C_12  and  C_13
REMARK    5  A    between atoms: C_20  and  C_21
REMARK    6  A    between atoms: C_27  and  O_28
REMARK    7  A    between atoms: O_28  and  C_29
REMARK                            x       y       z     vdW  Elec       q    Type
REMARK                         _______ _______ _______ _____ _____    ______ ____
ROOT
ATOM      1  C   UNL     1      -1.091  11.531  22.395  0.00  0.00    +0.000 A 
ATOM      2  C   UNL     1      -1.025  10.397  23.190  0.00  0.00    +0.000 A 
ATOM      3  S   UNL     1      -0.098   9.155  22.502  0.00  0.00    +0.000 S 
ATOM      4  C   UNL     1       0.234  10.098  21.128  0.00  0.00    +0.000 A 
ATOM      5  N   UNL     1       0.946   9.538  20.143  0.00  0.00    +0.000 NA
ATOM      6  C   UNL     1       1.146  10.350  19.113  0.00  0.00    +0.000 A 
ATOM      7  C   UNL     1       1.924   9.792  17.960  0.00  0.00    +0.000 C 
ATOM      8  N   UNL     1       0.751  11.635  19.040  0.00  0.00    +0.000 NA
ATOM      9  C   UNL     1       0.092  12.228  20.080  0.00  0.00    +0.000 A 
ATOM     10  N   UNL     1      -0.109  13.593  19.966  0.00  0.00    +0.000 N 
ATOM     11  C   UNL     1      -0.032  14.507  21.113  0.00  0.00    +0.000 C 
ATOM     12  C   UNL     1       0.793  15.754  20.789  0.00  0.00    +0.000 C 
ATOM     13  N   UNL     1       0.247  16.403  19.591  0.00  0.00    +0.000 N 
ATOM     14  C   UNL     1      -0.498  17.561  19.562  0.00  0.00    +0.000 C 
ATOM     15  C   UNL     1      -0.687  18.382  20.817  0.00  0.00    +0.000 C 
ATOM     16  O   UNL     1      -1.014  17.973  18.513  0.00  0.00    +0.000 OA
ATOM     17  C   UNL     1       0.271  15.521  18.411  0.00  0.00    +0.000 C 
ATOM     18  C   UNL     1      -0.468  14.185  18.663  0.00  0.00    +0.000 C 
ATOM     19  C   UNL     1      -0.269  11.395  21.185  0.00  0.00    +0.000 A 
ENDROOT
BRANCH   1  23
ATOM     20  C   UNL     1      -3.710  14.707  23.621  0.00  0.00    +0.000 A 
ATOM     21  C   UNL     1      -2.494  14.467  24.271  0.00  0.00    +0.000 A 
ATOM     22  C   UNL     1      -1.601  13.501  23.803  0.00  0.00    +0.000 A 
ATOM     23  C   UNL     1      -1.993  12.612  22.809  0.00  0.00    +0.000 A 
ATOM     24  C   UNL     1      -3.255  12.787  22.220  0.00  0.00    +0.000 A 
ATOM     25  C   UNL     1      -4.103  13.849  22.585  0.00  0.00    +0.000 A 
BRANCH  20  27
ATOM     26  C   UNL     1      -3.950  16.614  24.997  0.00  0.00    +0.000 C 
ATOM     27  O   UNL     1      -4.514  15.743  24.011  0.00  0.00    +0.000 OA
ENDBRANCH  20  27
BRANCH  25  28
ATOM     28  O   UNL     1      -5.245  13.874  21.830  0.00  0.00    +0.000 OA
ATOM     29  C   UNL     1      -5.847  12.645  21.457  0.00  0.00    +0.000 C 
ENDBRANCH  25  28
ENDBRANCH   1  23
TORSDOF 3
ENDMDL
MODEL 5
REMARK VINA RESULT:      -5.8      1.181      1.363
REMARK  Name = 
REMARK  7 active torsions:
REMARK  status: ('A' for Active; 'I' for Inactive)
REMARK    1  A    between atoms: C_1  and  O_2
REMARK    2  A    between atoms: O_2  and  C_3
REMARK    3  A    between atoms: C_6  and  C_7
REMARK    4  A    between atoms: C_12  and  C_13
REMARK    5  A    between atoms: C_20  and  C_21
REMARK    6  A    between atoms: C_27  and  O_28
REMARK    7  A    between atoms: O_28  and  C_29
REMARK                            x       y       z     vdW  Elec       q    Type
REMARK                         _______ _______ _______ _____ _____    ______ ____
ROOT
ATOM      1  C   UNL     1      -3.535  12.464  20.038  0.00  0.00    +0.000 A 
ATOM      2  C   UNL     1      -4.173  11.909  18.939  0.00  0.00    +0.000 A 
ATOM      3  S   UNL     1      -5.844  11.723  19.164  0.00  0.00    +0.000 S 
ATOM      4  C   UNL     1      -5.754  12.374  20.731  0.00  0.00    +0.000 A 
ATOM      5  N   UNL     1      -6.879  12.415  21.455  0.00  0.00    +0.000 NA
ATOM      6  C   UNL     1      -6.704  12.933  22.665  0.00  0.00    +0.000 A 
ATOM      7  C   UNL     1      -7.916  13.001  23.546  0.00  0.00    +0.000 C 
ATOM      8  N   UNL     1      -5.552  13.439  23.142  0.00  0.00    +0.000 NA
ATOM      9  C   UNL     1      -4.424  13.467  22.372  0.00  0.00    +0.000 A 
ATOM     10  N   UNL     1      -3.351  14.165  22.899  0.00  0.00    +0.000 N 
ATOM     11  C   UNL     1      -2.443  14.971  22.073  0.00  0.00    +0.000 C 
ATOM     12  C   UNL     1      -2.175  16.341  22.698  0.00  0.00    +0.000 C 
ATOM     13  N   UNL     1      -1.679  16.165  24.069  0.00  0.00    +0.000 N 
ATOM     14  C   UNL     1      -0.379  16.331  24.490  0.00  0.00    +0.000 C 
ATOM     15  C   UNL     1       0.665  16.892  23.552  0.00  0.00    +0.000 C 
ATOM     16  O   UNL     1      -0.031  16.049  25.646  0.00  0.00    +0.000 OA
ATOM     17  C   UNL     1      -2.639  15.452  24.929  0.00  0.00    +0.000 C 
ATOM     18  C   UNL     1      -3.046  14.079  24.340  0.00  0.00    +0.000 C 
ATOM     19  C   UNL     1      -4.488  12.825  21.096  0.00  0.00    +0.000 A 
ENDROOT
BRANCH   1  23
ATOM     20  C   UNL     1       0.755  12.670  19.982  0.00  0.00    +0.000 A 
ATOM     21  C   UNL     1      -0.023  13.329  19.024  0.00  0.00    +0.000 A 
ATOM     22  C   UNL     1      -1.416  13.343  19.108  0.00  0.00    +0.000 A 
ATOM     23  C   UNL     1      -2.068  12.527  20.024  0.00  0.00    +0.000 A 
ATOM     24  C   UNL     1      -1.290  11.785  20.926  0.00  0.00    +0.000 A 
ATOM     25  C   UNL     1       0.114  11.877  20.945  0.00  0.00    +0.000 A 
BRANCH  20  27
ATOM     26  C   UNL     1       2.661  13.471  18.835  0.00  0.00    +0.000 C 
ATOM     27  O   UNL     1       2.119  12.774  19.961  0.00  0.00    +0.000 OA
ENDBRANCH  20  27
BRANCH  25  28
ATOM     28  O   UNL     1       0.663  11.131  21.953  0.00  0.00    +0.000 OA
ATOM     29  C   UNL     1      -0.006   9.956  22.379  0.00  0.00    +0.000 C 
ENDBRANCH  25  28
ENDBRANCH   1  23
TORSDOF 3
ENDMDL
MODEL 6
REMARK VINA RESULT:      -5.8      3.544      6.201
REMARK  Name = 
REMARK  7 active torsions:
REMARK  status: ('A' for Active; 'I' for Inactive)
REMARK    1  A    between atoms: C_1  and  O_2
REMARK    2  A    between atoms: O_2  and  C_3
REMARK    3  A    between atoms: C_6  and  C_7
REMARK    4  A    between atoms: C_12  and  C_13
REMARK    5  A    between atoms: C_20  and  C_21
REMARK    6  A    between atoms: C_27  and  O_28
REMARK    7  A    between atoms: O_28  and  C_29
REMARK                            x       y       z     vdW  Elec       q    Type
REMARK                         _______ _______ _______ _____ _____    ______ ____
ROOT
ATOM      1  C   UNL     1      -1.072  11.515  22.344  0.00  0.00    +0.000 A 
ATOM      2  C   UNL     1      -1.052  10.367  23.121  0.00  0.00    +0.000 A 
ATOM      3  S   UNL     1      -0.156   9.107  22.424  0.00  0.00    +0.000 S 
ATOM      4  C   UNL     1       0.223  10.061  21.069  0.00  0.00    +0.000 A 
ATOM      5  N   UNL     1       0.929   9.494  20.084  0.00  0.00    +0.000 NA
ATOM      6  C   UNL     1       1.168  10.317  19.070  0.00  0.00    +0.000 A 
ATOM      7  C   UNL     1       1.943   9.753  17.918  0.00  0.00    +0.000 C 
ATOM      8  N   UNL     1       0.815  11.614  19.014  0.00  0.00    +0.000 NA
ATOM      9  C   UNL     1       0.162  12.212  20.055  0.00  0.00    +0.000 A 
ATOM     10  N   UNL     1       0.005  13.584  19.962  0.00  0.00    +0.000 N 
ATOM     11  C   UNL     1       0.097  14.476  21.125  0.00  0.00    +0.000 C 
ATOM     12  C   UNL     1       0.965  15.701  20.831  0.00  0.00    +0.000 C 
ATOM     13  N   UNL     1       0.454  16.387  19.638  0.00  0.00    +0.000 N 
ATOM     14  C   UNL     1      -0.253  17.568  19.618  0.00  0.00    +0.000 C 
ATOM     15  C   UNL     1      -0.432  18.375  20.884  0.00  0.00    +0.000 C 
ATOM     16  O   UNL     1      -0.743  18.014  18.570  0.00  0.00    +0.000 OA
ATOM     17  C   UNL     1       0.466  15.524  18.444  0.00  0.00    +0.000 C 
ATOM     18  C   UNL     1      -0.318  14.208  18.664  0.00  0.00    +0.000 C 
ATOM     19  C   UNL     1      -0.239  11.373  21.142  0.00  0.00    +0.000 A 
ENDROOT
BRANCH   1  23
ATOM     20  C   UNL     1      -3.644  14.732  23.561  0.00  0.00    +0.000 A 
ATOM     21  C   UNL     1      -3.926  13.956  22.432  0.00  0.00    +0.000 A 
ATOM     22  C   UNL     1      -3.143  12.848  22.101  0.00  0.00    +0.000 A 
ATOM     23  C   UNL     1      -1.944  12.618  22.765  0.00  0.00    +0.000 A 
ATOM     24  C   UNL     1      -1.607  13.455  23.839  0.00  0.00    +0.000 A 
ATOM     25  C   UNL     1      -2.462  14.486  24.274  0.00  0.00    +0.000 A 
BRANCH  20  27
ATOM     26  C   UNL     1      -5.887  15.445  23.787  0.00  0.00    +0.000 C 
ATOM     27  O   UNL     1      -4.494  15.733  23.947  0.00  0.00    +0.000 OA
ENDBRANCH  20  27
BRANCH  25  28
ATOM     28  O   UNL     1      -1.973  15.124  25.382  0.00  0.00    +0.000 OA
ATOM     29  C   UNL     1      -0.972  16.115  25.216  0.00  0.00    +0.000 C 
ENDBRANCH  25  28
ENDBRANCH   1  23
TORSDOF 3
ENDMDL
MODEL 7
REMARK VINA RESULT:      -5.7      3.408      5.475
REMARK  Name = 
REMARK  7 active torsions:
REMARK  status: ('A' for Active; 'I' for Inactive)
REMARK    1  A    between atoms: C_1  and  O_2
REMARK    2  A    between atoms: O_2  and  C_3
REMARK    3  A    between atoms: C_6  and  C_7
REMARK    4  A    between atoms: C_12  and  C_13
REMARK    5  A    between atoms: C_20  and  C_21
REMARK    6  A    between atoms: C_27  and  O_28
REMARK    7  A    between atoms: O_28  and  C_29
REMARK                            x       y       z     vdW  Elec       q    Type
REMARK                         _______ _______ _______ _____ _____    ______ ____
ROOT
ATOM      1  C   UNL     1      -1.945  12.746  22.157  0.00  0.00    +0.000 A 
ATOM      2  C   UNL     1      -3.185  12.288  22.573  0.00  0.00    +0.000 A 
ATOM      3  S   UNL     1      -3.777  13.111  23.932  0.00  0.00    +0.000 S 
ATOM      4  C   UNL     1      -2.393  14.094  24.000  0.00  0.00    +0.000 A 
ATOM      5  N   UNL     1      -2.296  14.969  25.008  0.00  0.00    +0.000 NA
ATOM      6  C   UNL     1      -1.178  15.683  24.977  0.00  0.00    +0.000 A 
ATOM      7  C   UNL     1      -0.988  16.678  26.082  0.00  0.00    +0.000 C 
ATOM      8  N   UNL     1      -0.235  15.620  24.019  0.00  0.00    +0.000 NA
ATOM      9  C   UNL     1      -0.373  14.782  22.949  0.00  0.00    +0.000 A 
ATOM     10  N   UNL     1       0.567  14.928  21.943  0.00  0.00    +0.000 N 
ATOM     11  C   UNL     1       0.236  14.792  20.520  0.00  0.00    +0.000 C 
ATOM     12  C   UNL     1       0.843  15.922  19.686  0.00  0.00    +0.000 C 
ATOM     13  N   UNL     1       2.291  15.980  19.922  0.00  0.00    +0.000 N 
ATOM     14  C   UNL     1       3.273  15.555  19.056  0.00  0.00    +0.000 C 
ATOM     15  C   UNL     1       2.920  15.119  17.652  0.00  0.00    +0.000 C 
ATOM     16  O   UNL     1       4.468  15.538  19.388  0.00  0.00    +0.000 OA
ATOM     17  C   UNL     1       2.622  16.227  21.336  0.00  0.00    +0.000 C 
ATOM     18  C   UNL     1       1.981  15.181  22.280  0.00  0.00    +0.000 C 
ATOM     19  C   UNL     1      -1.491  13.890  22.959  0.00  0.00    +0.000 A 
ENDROOT
BRANCH   1  23
ATOM     20  C   UNL     1       0.077  10.575  19.051  0.00  0.00    +0.000 A 
ATOM     21  C   UNL     1       0.652  10.752  20.315  0.00  0.00    +0.000 A 
ATOM     22  C   UNL     1      -0.053  11.369  21.350  0.00  0.00    +0.000 A 
ATOM     23  C   UNL     1      -1.259  12.008  21.089  0.00  0.00    +0.000 A 
ATOM     24  C   UNL     1      -1.794  11.916  19.795  0.00  0.00    +0.000 A 
ATOM     25  C   UNL     1      -1.162  11.173  18.781  0.00  0.00    +0.000 A 
BRANCH  20  27
ATOM     26  C   UNL     1       1.732   8.956  18.570  0.00  0.00    +0.000 C 
ATOM     27  O   UNL     1       0.728   9.854  18.087  0.00  0.00    +0.000 OA
ENDBRANCH  20  27
BRANCH  25  28
ATOM     28  O   UNL     1      -1.895  11.155  17.626  0.00  0.00    +0.000 OA
ATOM     29  C   UNL     1      -2.703  10.024  17.344  0.00  0.00    +0.000 C 
ENDBRANCH  25  28
ENDBRANCH   1  23
TORSDOF 3
ENDMDL
MODEL 8
REMARK VINA RESULT:      -5.7      2.958      5.704
REMARK  Name = 
REMARK  7 active torsions:
REMARK  status: ('A' for Active; 'I' for Inactive)
REMARK    1  A    between atoms: C_1  and  O_2
REMARK    2  A    between atoms: O_2  and  C_3
REMARK    3  A    between atoms: C_6  and  C_7
REMARK    4  A    between atoms: C_12  and  C_13
REMARK    5  A    between atoms: C_20  and  C_21
REMARK    6  A    between atoms: C_27  and  O_28
REMARK    7  A    between atoms: O_28  and  C_29
REMARK                            x       y       z     vdW  Elec       q    Type
REMARK                         _______ _______ _______ _____ _____    ______ ____
ROOT
ATOM      1  C   UNL     1      -5.875  12.974  19.890  0.00  0.00    +0.000 A 
ATOM      2  C   UNL     1      -7.023  12.426  19.339  0.00  0.00    +0.000 A 
ATOM      3  S   UNL     1      -6.701  11.185  18.229  0.00  0.00    +0.000 S 
ATOM      4  C   UNL     1      -5.025  11.352  18.454  0.00  0.00    +0.000 A 
ATOM      5  N   UNL     1      -4.216  10.587  17.713  0.00  0.00    +0.000 NA
ATOM      6  C   UNL     1      -2.928  10.796  17.957  0.00  0.00    +0.000 A 
ATOM      7  C   UNL     1      -1.954   9.986  17.156  0.00  0.00    +0.000 C 
ATOM      8  N   UNL     1      -2.433  11.633  18.887  0.00  0.00    +0.000 NA
ATOM      9  C   UNL     1      -3.262  12.356  19.697  0.00  0.00    +0.000 A 
ATOM     10  N   UNL     1      -2.649  13.046  20.728  0.00  0.00    +0.000 N 
ATOM     11  C   UNL     1      -3.253  13.192  22.058  0.00  0.00    +0.000 C 
ATOM     12  C   UNL     1      -2.244  12.909  23.172  0.00  0.00    +0.000 C 
ATOM     13  N   UNL     1      -1.066  13.767  22.995  0.00  0.00    +0.000 N 
ATOM     14  C   UNL     1      -0.750  14.879  23.743  0.00  0.00    +0.000 C 
ATOM     15  C   UNL     1      -1.554  15.227  24.975  0.00  0.00    +0.000 C 
ATOM     16  O   UNL     1       0.207  15.609  23.447  0.00  0.00    +0.000 OA
ATOM     17  C   UNL     1      -0.394  13.542  21.703  0.00  0.00    +0.000 C 
ATOM     18  C   UNL     1      -1.356  13.720  20.503  0.00  0.00    +0.000 C 
ATOM     19  C   UNL     1      -4.665  12.281  19.427  0.00  0.00    +0.000 A 
ENDROOT
BRANCH   1  23
ATOM     20  C   UNL     1      -6.291  16.460  22.365  0.00  0.00    +0.000 A 
ATOM     21  C   UNL     1      -5.760  16.538  21.073  0.00  0.00    +0.000 A 
ATOM     22  C   UNL     1      -5.723  15.420  20.237  0.00  0.00    +0.000 A 
ATOM     23  C   UNL     1      -6.018  14.160  20.743  0.00  0.00    +0.000 A 
ATOM     24  C   UNL     1      -6.458  14.064  22.072  0.00  0.00    +0.000 A 
ATOM     25  C   UNL     1      -6.638  15.203  22.879  0.00  0.00    +0.000 A 
BRANCH  20  27
ATOM     26  C   UNL     1      -7.731  18.204  23.053  0.00  0.00    +0.000 C 
ATOM     27  O   UNL     1      -6.441  17.589  23.124  0.00  0.00    +0.000 OA
ENDBRANCH  20  27
BRANCH  25  28
ATOM     28  O   UNL     1      -7.148  14.884  24.109  0.00  0.00    +0.000 OA
ATOM     29  C   UNL     1      -7.819  13.646  24.273  0.00  0.00    +0.000 C 
ENDBRANCH  25  28
ENDBRANCH   1  23
TORSDOF 3
ENDMDL
MODEL 9
REMARK VINA RESULT:      -5.7      3.921      6.399
REMARK  Name = 
REMARK  7 active torsions:
REMARK  status: ('A' for Active; 'I' for Inactive)
REMARK    1  A    between atoms: C_1  and  O_2
REMARK    2  A    between atoms: O_2  and  C_3
REMARK    3  A    between atoms: C_6  and  C_7
REMARK    4  A    between atoms: C_12  and  C_13
REMARK    5  A    between atoms: C_20  and  C_21
REMARK    6  A    between atoms: C_27  and  O_28
REMARK    7  A    between atoms: O_28  and  C_29
REMARK                            x       y       z     vdW  Elec       q    Type
REMARK                         _______ _______ _______ _____ _____    ______ ____
ROOT
ATOM      1  C   UNL     1      -0.518  11.734  21.899  0.00  0.00    +0.000 A 
ATOM      2  C   UNL     1      -0.980  10.720  22.722  0.00  0.00    +0.000 A 
ATOM      3  S   UNL     1      -0.501   9.175  22.210  0.00  0.00    +0.000 S 
ATOM      4  C   UNL     1       0.331   9.823  20.877  0.00  0.00    +0.000 A 
ATOM      5  N   UNL     1       0.903   8.968  20.022  0.00  0.00    +0.000 NA
ATOM      6  C   UNL     1       1.521   9.569  19.013  0.00  0.00    +0.000 A 
ATOM      7  C   UNL     1       2.177   8.678  18.001  0.00  0.00    +0.000 C 
ATOM      8  N   UNL     1       1.644  10.900  18.851  0.00  0.00    +0.000 NA
ATOM      9  C   UNL     1       1.126  11.771  19.767  0.00  0.00    +0.000 A 
ATOM     10  N   UNL     1       1.463  13.102  19.592  0.00  0.00    +0.000 N 
ATOM     11  C   UNL     1       1.726  14.011  20.714  0.00  0.00    +0.000 C 
ATOM     12  C   UNL     1       2.990  14.843  20.485  0.00  0.00    +0.000 C 
ATOM     13  N   UNL     1       2.882  15.551  19.204  0.00  0.00    +0.000 N 
ATOM     14  C   UNL     1       2.631  16.895  19.036  0.00  0.00    +0.000 C 
ATOM     15  C   UNL     1       2.602  17.823  20.229  0.00  0.00    +0.000 C 
ATOM     16  O   UNL     1       2.444  17.384  17.913  0.00  0.00    +0.000 OA
ATOM     17  C   UNL     1       2.728  14.632  18.063  0.00  0.00    +0.000 C 
ATOM     18  C   UNL     1       1.520  13.681  18.235  0.00  0.00    +0.000 C 
ATOM     19  C   UNL     1       0.343  11.215  20.827  0.00  0.00    +0.000 A 
ENDROOT
BRANCH   1  23
ATOM     20  C   UNL     1      -1.940  15.724  22.609  0.00  0.00    +0.000 A 
ATOM     21  C   UNL     1      -2.169  15.070  21.394  0.00  0.00    +0.000 A 
ATOM     22  C   UNL     1      -1.795  13.738  21.206  0.00  0.00    +0.000 A 
ATOM     23  C   UNL     1      -0.998  13.098  22.149  0.00  0.00    +0.000 A 
ATOM     24  C   UNL     1      -0.682  13.786  23.330  0.00  0.00    +0.000 A 
ATOM     25  C   UNL     1      -1.177  15.078  23.592  0.00  0.00    +0.000 A 
BRANCH  20  27
ATOM     26  C   UNL     1      -3.833  17.057  23.086  0.00  0.00    +0.000 C 
ATOM     27  O   UNL     1      -2.429  16.984  22.824  0.00  0.00    +0.000 OA
ENDBRANCH  20  27
BRANCH  25  28
ATOM     28  O   UNL     1      -0.809  15.525  24.833  0.00  0.00    +0.000 OA
ATOM     29  C   UNL     1      -1.734  15.416  25.902  0.00  0.00    +0.000 C 
ENDBRANCH  25  28
ENDBRANCH   1  23
TORSDOF 3
ENDMDL
