MODEL 1
REMARK VINA RESULT:      -7.2      0.000      0.000
REMARK  Name = 
REMARK  6 active torsions:
REMARK  status: ('A' for Active; 'I' for Inactive)
REMARK    1  A    between atoms: C_2  and  C_14
REMARK    2  A    between atoms: N_3  and  N_4
REMARK    3  A    between atoms: N_4  and  C_5
REMARK    4  A    between atoms: C_5  and  N_7
REMARK    5  A    between atoms: N_7  and  C_8
REMARK    6  A    between atoms: C_8  and  C_9
REMARK                            x       y       z     vdW  Elec       q    Type
REMARK                         _______ _______ _______ _____ _____    ______ ____
ROOT
ATOM      1  N   UNL     1       6.868   4.078  17.552  0.00  0.00    +0.000 N 
ATOM      2  H   UNL     1       7.386   3.277  17.177  0.00  0.00    +0.000 HD
ENDROOT
BRANCH   1   5
ATOM      3  O   UNL     1       4.229   3.279  17.137  0.00  0.00    +0.000 OA
ATOM      4  C   UNL     1       4.628   3.586  18.255  0.00  0.00    +0.000 C 
ATOM      5  N   UNL     1       5.952   3.817  18.568  0.00  0.00    +0.000 N 
ATOM      6  H   UNL     1       6.227   4.138  19.492  0.00  0.00    +0.000 HD
BRANCH   4   7
ATOM      7  C   UNL     1       3.681   3.687  19.398  0.00  0.00    +0.000 A 
ATOM      8  C   UNL     1       3.566   2.556  20.221  0.00  0.00    +0.000 A 
ATOM      9  C   UNL     1       2.710   2.564  21.326  0.00  0.00    +0.000 A 
ATOM     10  C   UNL     1       1.959   3.700  21.616  0.00  0.00    +0.000 A 
ATOM     11  C   UNL     1       2.050   4.822  20.794  0.00  0.00    +0.000 A 
ATOM     12  C   UNL     1       2.902   4.821  19.681  0.00  0.00    +0.000 A 
ATOM     13 BR   UNL     1       2.854   6.383  18.597  0.00  0.00    +0.000 Br
ENDBRANCH   4   7
ENDBRANCH   1   5
BRANCH   1  14
ATOM     14  C   UNL     1       7.265   5.359  17.273  0.00  0.00    +0.000 C 
ATOM     15  S   UNL     1       7.732   6.501  18.402  0.00  0.00    +0.000 S 
BRANCH  14  16
ATOM     16  N   UNL     1       7.176   5.747  15.966  0.00  0.00    +0.000 N 
ATOM     17  H   UNL     1       7.779   6.527  15.738  0.00  0.00    +0.000 HD
BRANCH  16  18
ATOM     18  C   UNL     1       5.987   5.594  15.146  0.00  0.00    +0.000 C 
BRANCH  18  19
ATOM     19  C   UNL     1       6.315   4.834  13.921  0.00  0.00    +0.000 A 
ATOM     20  C   UNL     1       7.362   4.878  13.028  0.00  0.00    +0.000 A 
ATOM     21  C   UNL     1       7.095   3.890  12.051  0.00  0.00    +0.000 A 
ATOM     22  C   UNL     1       5.900   3.311  12.405  0.00  0.00    +0.000 A 
ATOM     23  O   UNL     1       5.413   3.884  13.536  0.00  0.00    +0.000 OA
ENDBRANCH  18  19
ENDBRANCH  16  18
ENDBRANCH  14  16
ENDBRANCH   1  14
TORSDOF 6
ENDMDL
MODEL 2
REMARK VINA RESULT:      -7.0      0.954      1.163
REMARK  Name = 
REMARK  6 active torsions:
REMARK  status: ('A' for Active; 'I' for Inactive)
REMARK    1  A    between atoms: C_2  and  C_14
REMARK    2  A    between atoms: N_3  and  N_4
REMARK    3  A    between atoms: N_4  and  C_5
REMARK    4  A    between atoms: C_5  and  N_7
REMARK    5  A    between atoms: N_7  and  C_8
REMARK    6  A    between atoms: C_8  and  C_9
REMARK                            x       y       z     vdW  Elec       q    Type
REMARK                         _______ _______ _______ _____ _____    ______ ____
ROOT
ATOM      1  N   UNL     1       7.059   4.270  18.410  0.00  0.00    +0.000 N 
ATOM      2  H   UNL     1       7.948   3.897  18.755  0.00  0.00    +0.000 HD
ENDROOT
BRANCH   1   5
ATOM      3  O   UNL     1       4.690   3.113  17.502  0.00  0.00    +0.000 OA
ATOM      4  C   UNL     1       4.759   3.621  18.616  0.00  0.00    +0.000 C 
ATOM      5  N   UNL     1       5.933   4.050  19.201  0.00  0.00    +0.000 N 
ATOM      6  H   UNL     1       5.931   4.530  20.096  0.00  0.00    +0.000 HD
BRANCH   4   7
ATOM      7  C   UNL     1       3.542   3.771  19.459  0.00  0.00    +0.000 A 
ATOM      8  C   UNL     1       3.243   2.708  20.325  0.00  0.00    +0.000 A 
ATOM      9  C   UNL     1       2.126   2.766  21.164  0.00  0.00    +0.000 A 
ATOM     10  C   UNL     1       1.297   3.884  21.141  0.00  0.00    +0.000 A 
ATOM     11  C   UNL     1       1.572   4.937  20.270  0.00  0.00    +0.000 A 
ATOM     12  C   UNL     1       2.688   4.885  19.422  0.00  0.00    +0.000 A 
ATOM     13 BR   UNL     1       2.887   6.347  18.223  0.00  0.00    +0.000 Br
ENDBRANCH   4   7
ENDBRANCH   1   5
BRANCH   1  14
ATOM     14  C   UNL     1       7.033   5.180  17.386  0.00  0.00    +0.000 C 
ATOM     15  S   UNL     1       6.630   6.796  17.527  0.00  0.00    +0.000 S 
BRANCH  14  16
ATOM     16  N   UNL     1       7.269   4.684  16.135  0.00  0.00    +0.000 N 
ATOM     17  H   UNL     1       8.102   5.064  15.704  0.00  0.00    +0.000 HD
BRANCH  16  18
ATOM     18  C   UNL     1       6.232   4.221  15.229  0.00  0.00    +0.000 C 
BRANCH  18  19
ATOM     19  C   UNL     1       6.685   4.367  13.828  0.00  0.00    +0.000 A 
ATOM     20  C   UNL     1       6.432   3.665  12.671  0.00  0.00    +0.000 A 
ATOM     21  C   UNL     1       7.175   4.302  11.648  0.00  0.00    +0.000 A 
ATOM     22  C   UNL     1       7.838   5.347  12.248  0.00  0.00    +0.000 A 
ATOM     23  O   UNL     1       7.553   5.389  13.574  0.00  0.00    +0.000 OA
ENDBRANCH  18  19
ENDBRANCH  16  18
ENDBRANCH  14  16
ENDBRANCH   1  14
TORSDOF 6
ENDMDL
MODEL 3
REMARK VINA RESULT:      -6.9      2.564      3.478
REMARK  Name = 
REMARK  6 active torsions:
REMARK  status: ('A' for Active; 'I' for Inactive)
REMARK    1  A    between atoms: C_2  and  C_14
REMARK    2  A    between atoms: N_3  and  N_4
REMARK    3  A    between atoms: N_4  and  C_5
REMARK    4  A    between atoms: C_5  and  N_7
REMARK    5  A    between atoms: N_7  and  C_8
REMARK    6  A    between atoms: C_8  and  C_9
REMARK                            x       y       z     vdW  Elec       q    Type
REMARK                         _______ _______ _______ _____ _____    ______ ____
ROOT
ATOM      1  N   UNL     1       5.646   3.344  16.818  0.00  0.00    +0.000 N 
ATOM      2  H   UNL     1       6.452   2.714  16.776  0.00  0.00    +0.000 HD
ENDROOT
BRANCH   1   5
ATOM      3  O   UNL     1       3.772   1.444  17.626  0.00  0.00    +0.000 OA
ATOM      4  C   UNL     1       3.922   2.489  18.249  0.00  0.00    +0.000 C 
ATOM      5  N   UNL     1       4.942   3.389  18.019  0.00  0.00    +0.000 N 
ATOM      6  H   UNL     1       4.983   4.277  18.513  0.00  0.00    +0.000 HD
BRANCH   4   7
ATOM      7  C   UNL     1       3.005   2.844  19.366  0.00  0.00    +0.000 A 
ATOM      8  C   UNL     1       3.297   2.286  20.620  0.00  0.00    +0.000 A 
ATOM      9  C   UNL     1       2.499   2.574  21.731  0.00  0.00    +0.000 A 
ATOM     10  C   UNL     1       1.399   3.417  21.597  0.00  0.00    +0.000 A 
ATOM     11  C   UNL     1       1.087   3.961  20.351  0.00  0.00    +0.000 A 
ATOM     12  C   UNL     1       1.880   3.673  19.232  0.00  0.00    +0.000 A 
ATOM     13 BR   UNL     1       1.282   4.406  17.582  0.00  0.00    +0.000 Br
ENDBRANCH   4   7
ENDBRANCH   1   5
BRANCH   1  14
ATOM     14  C   UNL     1       5.453   4.297  15.852  0.00  0.00    +0.000 C 
ATOM     15  S   UNL     1       6.117   4.277  14.318  0.00  0.00    +0.000 S 
BRANCH  14  16
ATOM     16  N   UNL     1       4.730   5.394  16.225  0.00  0.00    +0.000 N 
ATOM     17  H   UNL     1       3.756   5.342  15.955  0.00  0.00    +0.000 HD
BRANCH  16  18
ATOM     18  C   UNL     1       5.284   6.729  16.373  0.00  0.00    +0.000 C 
BRANCH  18  19
ATOM     19  C   UNL     1       6.388   6.710  17.357  0.00  0.00    +0.000 A 
ATOM     20  C   UNL     1       7.576   7.398  17.464  0.00  0.00    +0.000 A 
ATOM     21  C   UNL     1       8.207   6.923  18.639  0.00  0.00    +0.000 A 
ATOM     22  C   UNL     1       7.368   5.972  19.169  0.00  0.00    +0.000 A 
ATOM     23  O   UNL     1       6.264   5.829  18.393  0.00  0.00    +0.000 OA
ENDBRANCH  18  19
ENDBRANCH  16  18
ENDBRANCH  14  16
ENDBRANCH   1  14
TORSDOF 6
ENDMDL
MODEL 4
REMARK VINA RESULT:      -6.9      0.899      1.113
REMARK  Name = 
REMARK  6 active torsions:
REMARK  status: ('A' for Active; 'I' for Inactive)
REMARK    1  A    between atoms: C_2  and  C_14
REMARK    2  A    between atoms: N_3  and  N_4
REMARK    3  A    between atoms: N_4  and  C_5
REMARK    4  A    between atoms: C_5  and  N_7
REMARK    5  A    between atoms: N_7  and  C_8
REMARK    6  A    between atoms: C_8  and  C_9
REMARK                            x       y       z     vdW  Elec       q    Type
REMARK                         _______ _______ _______ _____ _____    ______ ____
ROOT
ATOM      1  N   UNL     1       7.019   4.333  17.418  0.00  0.00    +0.000 N 
ATOM      2  H   UNL     1       7.857   3.747  17.355  0.00  0.00    +0.000 HD
ENDROOT
BRANCH   1   5
ATOM      3  O   UNL     1       4.347   3.704  16.929  0.00  0.00    +0.000 OA
ATOM      4  C   UNL     1       4.759   3.867  18.072  0.00  0.00    +0.000 C 
ATOM      5  N   UNL     1       6.091   4.003  18.403  0.00  0.00    +0.000 N 
ATOM      6  H   UNL     1       6.379   4.208  19.356  0.00  0.00    +0.000 HD
BRANCH   4   7
ATOM      7  C   UNL     1       3.816   3.884  19.224  0.00  0.00    +0.000 A 
ATOM      8  C   UNL     1       3.719   2.701  19.973  0.00  0.00    +0.000 A 
ATOM      9  C   UNL     1       2.869   2.629  21.081  0.00  0.00    +0.000 A 
ATOM     10  C   UNL     1       2.106   3.734  21.445  0.00  0.00    +0.000 A 
ATOM     11  C   UNL     1       2.178   4.908  20.695  0.00  0.00    +0.000 A 
ATOM     12  C   UNL     1       3.025   4.987  19.581  0.00  0.00    +0.000 A 
ATOM     13 BR   UNL     1       2.952   6.615  18.599  0.00  0.00    +0.000 Br
ENDBRANCH   4   7
ENDBRANCH   1   5
BRANCH   1  14
ATOM     14  C   UNL     1       6.957   5.538  16.768  0.00  0.00    +0.000 C 
ATOM     15  S   UNL     1       7.064   7.042  17.492  0.00  0.00    +0.000 S 
BRANCH  14  16
ATOM     16  N   UNL     1       6.692   5.487  15.429  0.00  0.00    +0.000 N 
ATOM     17  H   UNL     1       5.734   5.718  15.201  0.00  0.00    +0.000 HD
BRANCH  16  18
ATOM     18  C   UNL     1       7.383   4.620  14.490  0.00  0.00    +0.000 C 
BRANCH  18  19
ATOM     19  C   UNL     1       6.420   4.067  13.512  0.00  0.00    +0.000 A 
ATOM     20  C   UNL     1       5.053   3.898  13.519  0.00  0.00    +0.000 A 
ATOM     21  C   UNL     1       4.720   3.303  12.279  0.00  0.00    +0.000 A 
ATOM     22  C   UNL     1       5.904   3.142  11.598  0.00  0.00    +0.000 A 
ATOM     23  O   UNL     1       6.944   3.596  12.344  0.00  0.00    +0.000 OA
ENDBRANCH  18  19
ENDBRANCH  16  18
ENDBRANCH  14  16
ENDBRANCH   1  14
TORSDOF 6
ENDMDL
MODEL 5
REMARK VINA RESULT:      -6.7      2.598      4.146
REMARK  Name = 
REMARK  6 active torsions:
REMARK  status: ('A' for Active; 'I' for Inactive)
REMARK    1  A    between atoms: C_2  and  C_14
REMARK    2  A    between atoms: N_3  and  N_4
REMARK    3  A    between atoms: N_4  and  C_5
REMARK    4  A    between atoms: C_5  and  N_7
REMARK    5  A    between atoms: N_7  and  C_8
REMARK    6  A    between atoms: C_8  and  C_9
REMARK                            x       y       z     vdW  Elec       q    Type
REMARK                         _______ _______ _______ _____ _____    ______ ____
ROOT
ATOM      1  N   UNL     1       5.945   3.729  17.218  0.00  0.00    +0.000 N 
ATOM      2  H   UNL     1       6.911   3.408  17.331  0.00  0.00    +0.000 HD
ENDROOT
BRANCH   1   5
ATOM      3  O   UNL     1       4.120   1.671  17.678  0.00  0.00    +0.000 OA
ATOM      4  C   UNL     1       4.136   2.672  18.386  0.00  0.00    +0.000 C 
ATOM      5  N   UNL     1       5.116   3.642  18.334  0.00  0.00    +0.000 N 
ATOM      6  H   UNL     1       5.048   4.490  18.890  0.00  0.00    +0.000 HD
BRANCH   4   7
ATOM      7  C   UNL     1       3.086   2.889  19.417  0.00  0.00    +0.000 A 
ATOM      8  C   UNL     1       3.367   2.418  20.710  0.00  0.00    +0.000 A 
ATOM      9  C   UNL     1       2.445   2.589  21.746  0.00  0.00    +0.000 A 
ATOM     10  C   UNL     1       1.232   3.226  21.499  0.00  0.00    +0.000 A 
ATOM     11  C   UNL     1       0.932   3.679  20.215  0.00  0.00    +0.000 A 
ATOM     12  C   UNL     1       1.850   3.508  19.169  0.00  0.00    +0.000 A 
ATOM     13 BR   UNL     1       1.270   4.089  17.453  0.00  0.00    +0.000 Br
ENDBRANCH   4   7
ENDBRANCH   1   5
BRANCH   1  14
ATOM     14  C   UNL     1       5.577   4.467  16.123  0.00  0.00    +0.000 C 
ATOM     15  S   UNL     1       6.290   4.390  14.612  0.00  0.00    +0.000 S 
BRANCH  14  16
ATOM     16  N   UNL     1       4.606   5.405  16.328  0.00  0.00    +0.000 N 
ATOM     17  H   UNL     1       3.807   5.295  15.716  0.00  0.00    +0.000 HD
BRANCH  16  18
ATOM     18  C   UNL     1       4.856   6.749  16.820  0.00  0.00    +0.000 C 
BRANCH  18  19
ATOM     19  C   UNL     1       3.763   7.164  17.726  0.00  0.00    +0.000 A 
ATOM     20  C   UNL     1       2.832   8.178  17.687  0.00  0.00    +0.000 A 
ATOM     21  C   UNL     1       2.055   8.051  18.863  0.00  0.00    +0.000 A 
ATOM     22  C   UNL     1       2.565   6.973  19.547  0.00  0.00    +0.000 A 
ATOM     23  O   UNL     1       3.609   6.433  18.868  0.00  0.00    +0.000 OA
ENDBRANCH  18  19
ENDBRANCH  16  18
ENDBRANCH  14  16
ENDBRANCH   1  14
TORSDOF 6
ENDMDL
MODEL 6
REMARK VINA RESULT:      -6.7      2.544      3.705
REMARK  Name = 
REMARK  6 active torsions:
REMARK  status: ('A' for Active; 'I' for Inactive)
REMARK    1  A    between atoms: C_2  and  C_14
REMARK    2  A    between atoms: N_3  and  N_4
REMARK    3  A    between atoms: N_4  and  C_5
REMARK    4  A    between atoms: C_5  and  N_7
REMARK    5  A    between atoms: N_7  and  C_8
REMARK    6  A    between atoms: C_8  and  C_9
REMARK                            x       y       z     vdW  Elec       q    Type
REMARK                         _______ _______ _______ _____ _____    ______ ____
ROOT
ATOM      1  N   UNL     1       6.393   4.092  18.043  0.00  0.00    +0.000 N 
ATOM      2  H   UNL     1       6.877   3.350  17.528  0.00  0.00    +0.000 HD
ENDROOT
BRANCH   1   5
ATOM      3  O   UNL     1       4.180   2.509  17.430  0.00  0.00    +0.000 OA
ATOM      4  C   UNL     1       4.288   3.047  18.526  0.00  0.00    +0.000 C 
ATOM      5  N   UNL     1       5.427   3.692  18.964  0.00  0.00    +0.000 N 
ATOM      6  H   UNL     1       5.444   4.186  19.852  0.00  0.00    +0.000 HD
BRANCH   4   7
ATOM      7  C   UNL     1       3.172   2.998  19.509  0.00  0.00    +0.000 A 
ATOM      8  C   UNL     1       3.472   2.465  20.773  0.00  0.00    +0.000 A 
ATOM      9  C   UNL     1       2.489   2.391  21.765  0.00  0.00    +0.000 A 
ATOM     10  C   UNL     1       1.200   2.843  21.502  0.00  0.00    +0.000 A 
ATOM     11  C   UNL     1       0.885   3.355  20.243  0.00  0.00    +0.000 A 
ATOM     12  C   UNL     1       1.863   3.428  19.242  0.00  0.00    +0.000 A 
ATOM     13 BR   UNL     1       1.270   4.059  17.548  0.00  0.00    +0.000 Br
ENDBRANCH   4   7
ENDBRANCH   1   5
BRANCH   1  14
ATOM     14  C   UNL     1       6.872   5.375  18.036  0.00  0.00    +0.000 C 
ATOM     15  S   UNL     1       7.933   6.024  19.154  0.00  0.00    +0.000 S 
BRANCH  14  16
ATOM     16  N   UNL     1       6.355   6.206  17.083  0.00  0.00    +0.000 N 
ATOM     17  H   UNL     1       6.733   7.144  17.123  0.00  0.00    +0.000 HD
BRANCH  16  18
ATOM     18  C   UNL     1       5.024   6.074  16.516  0.00  0.00    +0.000 C 
BRANCH  18  19
ATOM     19  C   UNL     1       4.030   6.702  17.413  0.00  0.00    +0.000 A 
ATOM     20  C   UNL     1       3.126   7.729  17.257  0.00  0.00    +0.000 A 
ATOM     21  C   UNL     1       2.456   7.861  18.497  0.00  0.00    +0.000 A 
ATOM     22  C   UNL     1       2.998   6.913  19.331  0.00  0.00    +0.000 A 
ATOM     23  O   UNL     1       3.962   6.209  18.684  0.00  0.00    +0.000 OA
ENDBRANCH  18  19
ENDBRANCH  16  18
ENDBRANCH  14  16
ENDBRANCH   1  14
TORSDOF 6
ENDMDL
MODEL 7
REMARK VINA RESULT:      -6.7      1.514      1.609
REMARK  Name = 
REMARK  6 active torsions:
REMARK  status: ('A' for Active; 'I' for Inactive)
REMARK    1  A    between atoms: C_2  and  C_14
REMARK    2  A    between atoms: N_3  and  N_4
REMARK    3  A    between atoms: N_4  and  C_5
REMARK    4  A    between atoms: C_5  and  N_7
REMARK    5  A    between atoms: N_7  and  C_8
REMARK    6  A    between atoms: C_8  and  C_9
REMARK                            x       y       z     vdW  Elec       q    Type
REMARK                         _______ _______ _______ _____ _____    ______ ____
ROOT
ATOM      1  N   UNL     1       6.489   3.871  18.474  0.00  0.00    +0.000 N 
ATOM      2  H   UNL     1       7.038   3.034  18.688  0.00  0.00    +0.000 HD
ENDROOT
BRANCH   1   5
ATOM      3  O   UNL     1       5.289   1.853  19.979  0.00  0.00    +0.000 OA
ATOM      4  C   UNL     1       4.660   2.851  19.645  0.00  0.00    +0.000 C 
ATOM      5  N   UNL     1       5.228   3.964  19.059  0.00  0.00    +0.000 N 
ATOM      6  H   UNL     1       4.655   4.738  18.734  0.00  0.00    +0.000 HD
BRANCH   4   7
ATOM      7  C   UNL     1       3.198   2.948  19.902  0.00  0.00    +0.000 A 
ATOM      8  C   UNL     1       2.778   2.747  21.226  0.00  0.00    +0.000 A 
ATOM      9  C   UNL     1       1.424   2.832  21.564  0.00  0.00    +0.000 A 
ATOM     10  C   UNL     1       0.479   3.112  20.582  0.00  0.00    +0.000 A 
ATOM     11  C   UNL     1       0.882   3.293  19.259  0.00  0.00    +0.000 A 
ATOM     12  C   UNL     1       2.237   3.206  18.911  0.00  0.00    +0.000 A 
ATOM     13 BR   UNL     1       2.630   3.381  17.059  0.00  0.00    +0.000 Br
ENDBRANCH   4   7
ENDBRANCH   1   5
BRANCH   1  14
ATOM     14  C   UNL     1       7.075   4.962  17.887  0.00  0.00    +0.000 C 
ATOM     15  S   UNL     1       7.780   6.243  18.698  0.00  0.00    +0.000 S 
BRANCH  14  16
ATOM     16  N   UNL     1       6.983   5.036  16.526  0.00  0.00    +0.000 N 
ATOM     17  H   UNL     1       7.119   5.972  16.166  0.00  0.00    +0.000 HD
BRANCH  16  18
ATOM     18  C   UNL     1       6.175   4.146  15.711  0.00  0.00    +0.000 C 
BRANCH  18  19
ATOM     19  C   UNL     1       6.590   4.245  14.295  0.00  0.00    +0.000 A 
ATOM     20  C   UNL     1       7.421   5.101  13.607  0.00  0.00    +0.000 A 
ATOM     21  C   UNL     1       7.404   4.675  12.258  0.00  0.00    +0.000 A 
ATOM     22  C   UNL     1       6.559   3.592  12.207  0.00  0.00    +0.000 A 
ATOM     23  O   UNL     1       6.053   3.328  13.438  0.00  0.00    +0.000 OA
ENDBRANCH  18  19
ENDBRANCH  16  18
ENDBRANCH  14  16
ENDBRANCH   1  14
TORSDOF 6
ENDMDL
MODEL 8
REMARK VINA RESULT:      -6.7      3.321      6.318
REMARK  Name = 
REMARK  6 active torsions:
REMARK  status: ('A' for Active; 'I' for Inactive)
REMARK    1  A    between atoms: C_2  and  C_14
REMARK    2  A    between atoms: N_3  and  N_4
REMARK    3  A    between atoms: N_4  and  C_5
REMARK    4  A    between atoms: C_5  and  N_7
REMARK    5  A    between atoms: N_7  and  C_8
REMARK    6  A    between atoms: C_8  and  C_9
REMARK                            x       y       z     vdW  Elec       q    Type
REMARK                         _______ _______ _______ _____ _____    ______ ____
ROOT
ATOM      1  N   UNL     1       1.921   4.293  18.923  0.00  0.00    +0.000 N 
ATOM      2  H   UNL     1       0.945   4.181  18.632  0.00  0.00    +0.000 HD
ENDROOT
BRANCH   1   5
ATOM      3  O   UNL     1       3.792   2.433  18.019  0.00  0.00    +0.000 OA
ATOM      4  C   UNL     1       3.840   3.603  17.658  0.00  0.00    +0.000 C 
ATOM      5  N   UNL     1       2.855   4.534  17.917  0.00  0.00    +0.000 N 
ATOM      6  H   UNL     1       2.971   5.511  17.660  0.00  0.00    +0.000 HD
BRANCH   4   7
ATOM      7  C   UNL     1       4.984   4.102  16.847  0.00  0.00    +0.000 A 
ATOM      8  C   UNL     1       4.992   3.749  15.489  0.00  0.00    +0.000 A 
ATOM      9  C   UNL     1       6.020   4.184  14.647  0.00  0.00    +0.000 A 
ATOM     10  C   UNL     1       7.050   4.969  15.156  0.00  0.00    +0.000 A 
ATOM     11  C   UNL     1       7.064   5.308  16.509  0.00  0.00    +0.000 A 
ATOM     12  C   UNL     1       6.039   4.873  17.360  0.00  0.00    +0.000 A 
ATOM     13 BR   UNL     1       6.236   5.331  19.196  0.00  0.00    +0.000 Br
ENDBRANCH   4   7
ENDBRANCH   1   5
BRANCH   1  14
ATOM     14  C   UNL     1       2.242   4.483  20.241  0.00  0.00    +0.000 C 
ATOM     15  S   UNL     1       2.063   3.352  21.460  0.00  0.00    +0.000 S 
BRANCH  14  16
ATOM     16  N   UNL     1       2.652   5.739  20.586  0.00  0.00    +0.000 N 
ATOM     17  H   UNL     1       3.475   5.744  21.175  0.00  0.00    +0.000 HD
BRANCH  16  18
ATOM     18  C   UNL     1       1.768   6.885  20.710  0.00  0.00    +0.000 C 
BRANCH  18  19
ATOM     19  C   UNL     1       1.938   7.781  19.546  0.00  0.00    +0.000 A 
ATOM     20  C   UNL     1       1.401   9.002  19.202  0.00  0.00    +0.000 A 
ATOM     21  C   UNL     1       1.960   9.343  17.948  0.00  0.00    +0.000 A 
ATOM     22  C   UNL     1       2.796   8.308  17.604  0.00  0.00    +0.000 A 
ATOM     23  O   UNL     1       2.783   7.350  18.565  0.00  0.00    +0.000 OA
ENDBRANCH  18  19
ENDBRANCH  16  18
ENDBRANCH  14  16
ENDBRANCH   1  14
TORSDOF 6
ENDMDL
MODEL 9
REMARK VINA RESULT:      -6.6      1.321      1.688
REMARK  Name = 
REMARK  6 active torsions:
REMARK  status: ('A' for Active; 'I' for Inactive)
REMARK    1  A    between atoms: C_2  and  C_14
REMARK    2  A    between atoms: N_3  and  N_4
REMARK    3  A    between atoms: N_4  and  C_5
REMARK    4  A    between atoms: C_5  and  N_7
REMARK    5  A    between atoms: N_7  and  C_8
REMARK    6  A    between atoms: C_8  and  C_9
REMARK                            x       y       z     vdW  Elec       q    Type
REMARK                         _______ _______ _______ _____ _____    ______ ____
ROOT
ATOM      1  N   UNL     1       6.984   4.135  17.717  0.00  0.00    +0.000 N 
ATOM      2  H   UNL     1       7.601   3.352  17.479  0.00  0.00    +0.000 HD
ENDROOT
BRANCH   1   5
ATOM      3  O   UNL     1       4.429   3.252  17.031  0.00  0.00    +0.000 OA
ATOM      4  C   UNL     1       4.691   3.602  18.177  0.00  0.00    +0.000 C 
ATOM      5  N   UNL     1       5.965   3.879  18.631  0.00  0.00    +0.000 N 
ATOM      6  H   UNL     1       6.124   4.235  19.569  0.00  0.00    +0.000 HD
BRANCH   4   7
ATOM      7  C   UNL     1       3.617   3.712  19.201  0.00  0.00    +0.000 A 
ATOM      8  C   UNL     1       2.700   4.762  19.039  0.00  0.00    +0.000 A 
ATOM      9  C   UNL     1       1.650   4.935  19.945  0.00  0.00    +0.000 A 
ATOM     10  C   UNL     1       1.510   4.065  21.023  0.00  0.00    +0.000 A 
ATOM     11  C   UNL     1       2.428   3.031  21.206  0.00  0.00    +0.000 A 
ATOM     12  C   UNL     1       3.486   2.853  20.304  0.00  0.00    +0.000 A 
ATOM     13 BR   UNL     1       4.713   1.463  20.729  0.00  0.00    +0.000 Br
ENDBRANCH   4   7
ENDBRANCH   1   5
BRANCH   1  14
ATOM     14  C   UNL     1       7.323   5.419  17.380  0.00  0.00    +0.000 C 
ATOM     15  S   UNL     1       7.713   6.638  18.457  0.00  0.00    +0.000 S 
BRANCH  14  16
ATOM     16  N   UNL     1       7.237   5.737  16.054  0.00  0.00    +0.000 N 
ATOM     17  H   UNL     1       7.861   6.485  15.781  0.00  0.00    +0.000 HD
BRANCH  16  18
ATOM     18  C   UNL     1       6.039   5.574  15.249  0.00  0.00    +0.000 C 
BRANCH  18  19
ATOM     19  C   UNL     1       6.362   4.840  14.007  0.00  0.00    +0.000 A 
ATOM     20  C   UNL     1       7.397   4.917  13.101  0.00  0.00    +0.000 A 
ATOM     21  C   UNL     1       7.133   3.941  12.111  0.00  0.00    +0.000 A 
ATOM     22  C   UNL     1       5.952   3.336  12.472  0.00  0.00    +0.000 A 
ATOM     23  O   UNL     1       5.472   3.882  13.618  0.00  0.00    +0.000 OA
ENDBRANCH  18  19
ENDBRANCH  16  18
ENDBRANCH  14  16
ENDBRANCH   1  14
TORSDOF 6
ENDMDL
