MODEL 1
REMARK VINA RESULT:      -7.4      0.000      0.000
REMARK  Name = 
REMARK  3 active torsions:
REMARK  status: ('A' for Active; 'I' for Inactive)
REMARK    1  A    between atoms: C_4  and  C_5
REMARK    2  A    between atoms: C_8  and  N_9
REMARK    3  A    between atoms: C_10  and  C_12
REMARK                            x       y       z     vdW  Elec       q    Type
REMARK                         _______ _______ _______ _____ _____    ______ ____
ROOT
ATOM      1  C   UNL     1       2.605   7.485  18.476  0.00  0.00    +0.000 A 
ATOM      2  C   UNL     1       2.304   7.180  19.817  0.00  0.00    +0.000 A 
ATOM      3  C   UNL     1       1.453   8.008  20.563  0.00  0.00    +0.000 A 
ATOM      4  C   UNL     1       0.893   9.153  19.982  0.00  0.00    +0.000 A 
ATOM      5  C   UNL     1       1.173   9.454  18.644  0.00  0.00    +0.000 A 
ATOM      6  C   UNL     1       2.024   8.630  17.898  0.00  0.00    +0.000 A 
ENDROOT
BRANCH   1  10
ATOM      7  N   UNL     1       6.100   5.971  15.415  0.00  0.00    +0.000 N 
ATOM      8  C   UNL     1       5.046   5.957  16.355  0.00  0.00    +0.000 A 
ATOM      9  N   UNL     1       4.470   7.071  16.851  0.00  0.00    +0.000 NA
ATOM     10  C   UNL     1       3.519   6.611  17.692  0.00  0.00    +0.000 A 
ATOM     11  C   UNL     1       3.540   5.223  17.681  0.00  0.00    +0.000 A 
ATOM     12  N   UNL     1       4.503   4.825  16.838  0.00  0.00    +0.000 N 
ATOM     13  H   UNL     1       6.465   6.862  15.053  0.00  0.00    +0.000 HD
ATOM     14  H   UNL     1       6.495   5.085  15.064  0.00  0.00    +0.000 HD
ATOM     15  H   UNL     1       4.768   3.842  16.601  0.00  0.00    +0.000 HD
ENDBRANCH   1  10
BRANCH   4  16
ATOM     16  N   UNL     1       0.008   9.978  20.726  0.00  0.00    +0.000 N 
ATOM     17  C   UNL     1       0.415  11.097  21.398  0.00  0.00    +0.000 C 
ATOM     18  O   UNL     1       1.594  11.420  21.392  0.00  0.00    +0.000 OA
ATOM     19  H   UNL     1      -0.985   9.712  20.715  0.00  0.00    +0.000 HD
BRANCH  17  20
ATOM     20  C   UNL     1      -0.567  11.944  22.132  0.00  0.00    +0.000 A 
ATOM     21  C   UNL     1      -1.740  11.485  22.729  0.00  0.00    +0.000 A 
ATOM     22  C   UNL     1      -2.342  12.594  23.268  0.00  0.00    +0.000 A 
ATOM     23  C   UNL     1      -3.539  12.708  23.968  0.00  0.00    +0.000 A 
ATOM     24  C   UNL     1      -3.924  13.986  24.403  0.00  0.00    +0.000 A 
ATOM     25  C   UNL     1      -3.109  15.108  24.132  0.00  0.00    +0.000 A 
ATOM     26  C   UNL     1      -1.898  14.959  23.423  0.00  0.00    +0.000 A 
ATOM     27  C   UNL     1      -1.543  13.672  23.001  0.00  0.00    +0.000 A 
ATOM     28  N   UNL     1      -0.450  13.289  22.309  0.00  0.00    +0.000 N 
ATOM     29  H   UNL     1       0.323  13.907  21.973  0.00  0.00    +0.000 HD
ENDBRANCH  17  20
ENDBRANCH   4  16
TORSDOF 3
ENDMDL
MODEL 2
REMARK VINA RESULT:      -7.4      1.909      9.938
REMARK  Name = 
REMARK  3 active torsions:
REMARK  status: ('A' for Active; 'I' for Inactive)
REMARK    1  A    between atoms: C_4  and  C_5
REMARK    2  A    between atoms: C_8  and  N_9
REMARK    3  A    between atoms: C_10  and  C_12
REMARK                            x       y       z     vdW  Elec       q    Type
REMARK                         _______ _______ _______ _____ _____    ______ ____
ROOT
ATOM      1  C   UNL     1      -1.041  11.153  22.350  0.00  0.00    +0.000 A 
ATOM      2  C   UNL     1      -0.850  11.261  20.960  0.00  0.00    +0.000 A 
ATOM      3  C   UNL     1      -0.070  10.321  20.271  0.00  0.00    +0.000 A 
ATOM      4  C   UNL     1       0.532   9.261  20.962  0.00  0.00    +0.000 A 
ATOM      5  C   UNL     1       0.333   9.137  22.341  0.00  0.00    +0.000 A 
ATOM      6  C   UNL     1      -0.443  10.075  23.031  0.00  0.00    +0.000 A 
ENDROOT
BRANCH   1  10
ATOM      7  N   UNL     1      -4.739  13.324  24.694  0.00  0.00    +0.000 N 
ATOM      8  C   UNL     1      -3.476  13.101  24.101  0.00  0.00    +0.000 A 
ATOM      9  N   UNL     1      -3.119  11.941  23.514  0.00  0.00    +0.000 NA
ATOM     10  C   UNL     1      -1.859  12.159  23.078  0.00  0.00    +0.000 A 
ATOM     11  C   UNL     1      -1.486  13.455  23.411  0.00  0.00    +0.000 A 
ATOM     12  N   UNL     1      -2.509  14.035  24.052  0.00  0.00    +0.000 N 
ATOM     13  H   UNL     1      -5.457  12.587  24.683  0.00  0.00    +0.000 HD
ATOM     14  H   UNL     1      -4.959  14.236  25.121  0.00  0.00    +0.000 HD
ATOM     15  H   UNL     1      -2.549  15.010  24.427  0.00  0.00    +0.000 HD
ENDBRANCH   1  10
BRANCH   4  16
ATOM     16  N   UNL     1       1.300   8.291  20.264  0.00  0.00    +0.000 N 
ATOM     17  C   UNL     1       1.811   8.500  19.013  0.00  0.00    +0.000 C 
ATOM     18  O   UNL     1       1.602   9.556  18.434  0.00  0.00    +0.000 OA
ATOM     19  H   UNL     1       1.486   7.410  20.760  0.00  0.00    +0.000 HD
BRANCH  17  20
ATOM     20  C   UNL     1       2.640   7.457  18.346  0.00  0.00    +0.000 A 
ATOM     21  C   UNL     1       2.464   6.080  18.477  0.00  0.00    +0.000 A 
ATOM     22  C   UNL     1       3.447   5.505  17.714  0.00  0.00    +0.000 A 
ATOM     23  C   UNL     1       3.736   4.161  17.496  0.00  0.00    +0.000 A 
ATOM     24  C   UNL     1       4.823   3.851  16.663  0.00  0.00    +0.000 A 
ATOM     25  C   UNL     1       5.586   4.883  16.071  0.00  0.00    +0.000 A 
ATOM     26  C   UNL     1       5.265   6.237  16.309  0.00  0.00    +0.000 A 
ATOM     27  C   UNL     1       4.178   6.513  17.145  0.00  0.00    +0.000 A 
ATOM     28  N   UNL     1       3.693   7.715  17.520  0.00  0.00    +0.000 N 
ATOM     29  H   UNL     1       4.060   8.651  17.236  0.00  0.00    +0.000 HD
ENDBRANCH  17  20
ENDBRANCH   4  16
TORSDOF 3
ENDMDL
MODEL 3
REMARK VINA RESULT:      -7.3      1.974     10.012
REMARK  Name = 
REMARK  3 active torsions:
REMARK  status: ('A' for Active; 'I' for Inactive)
REMARK    1  A    between atoms: C_4  and  C_5
REMARK    2  A    between atoms: C_8  and  N_9
REMARK    3  A    between atoms: C_10  and  C_12
REMARK                            x       y       z     vdW  Elec       q    Type
REMARK                         _______ _______ _______ _____ _____    ______ ____
ROOT
ATOM      1  C   UNL     1      -1.053  11.112  22.306  0.00  0.00    +0.000 A 
ATOM      2  C   UNL     1      -0.982  11.125  20.900  0.00  0.00    +0.000 A 
ATOM      3  C   UNL     1      -0.208  10.176  20.216  0.00  0.00    +0.000 A 
ATOM      4  C   UNL     1       0.507   9.203  20.927  0.00  0.00    +0.000 A 
ATOM      5  C   UNL     1       0.428   9.173  22.323  0.00  0.00    +0.000 A 
ATOM      6  C   UNL     1      -0.342  10.120  23.008  0.00  0.00    +0.000 A 
ENDROOT
BRANCH   1  10
ATOM      7  N   UNL     1      -4.721  13.305  24.675  0.00  0.00    +0.000 N 
ATOM      8  C   UNL     1      -3.469  13.080  24.061  0.00  0.00    +0.000 A 
ATOM      9  N   UNL     1      -3.113  11.909  23.494  0.00  0.00    +0.000 NA
ATOM     10  C   UNL     1      -1.865  12.129  23.027  0.00  0.00    +0.000 A 
ATOM     11  C   UNL     1      -1.497  13.435  23.322  0.00  0.00    +0.000 A 
ATOM     12  N   UNL     1      -2.512  14.020  23.971  0.00  0.00    +0.000 N 
ATOM     13  H   UNL     1      -5.433  12.562  24.697  0.00  0.00    +0.000 HD
ATOM     14  H   UNL     1      -4.941  14.225  25.086  0.00  0.00    +0.000 HD
ATOM     15  H   UNL     1      -2.553  15.004  24.323  0.00  0.00    +0.000 HD
ENDBRANCH   1  10
BRANCH   4  16
ATOM     16  N   UNL     1       1.269   8.223  20.237  0.00  0.00    +0.000 N 
ATOM     17  C   UNL     1       1.853   8.448  19.021  0.00  0.00    +0.000 C 
ATOM     18  O   UNL     1       1.717   9.529  18.467  0.00  0.00    +0.000 OA
ATOM     19  H   UNL     1       1.394   7.321  20.713  0.00  0.00    +0.000 HD
BRANCH  17  20
ATOM     20  C   UNL     1       2.671   7.392  18.362  0.00  0.00    +0.000 A 
ATOM     21  C   UNL     1       3.723   7.621  17.476  0.00  0.00    +0.000 A 
ATOM     22  C   UNL     1       4.175   6.381  17.104  0.00  0.00    +0.000 A 
ATOM     23  C   UNL     1       5.200   6.029  16.233  0.00  0.00    +0.000 A 
ATOM     24  C   UNL     1       5.446   4.662  16.027  0.00  0.00    +0.000 A 
ATOM     25  C   UNL     1       4.668   3.689  16.695  0.00  0.00    +0.000 A 
ATOM     26  C   UNL     1       3.637   4.078  17.576  0.00  0.00    +0.000 A 
ATOM     27  C   UNL     1       3.416   5.448  17.758  0.00  0.00    +0.000 A 
ATOM     28  N   UNL     1       2.493   6.052  18.535  0.00  0.00    +0.000 N 
ATOM     29  H   UNL     1       1.783   5.581  19.140  0.00  0.00    +0.000 HD
ENDBRANCH  17  20
ENDBRANCH   4  16
TORSDOF 3
ENDMDL
MODEL 4
REMARK VINA RESULT:      -7.3      1.537      1.688
REMARK  Name = 
REMARK  3 active torsions:
REMARK  status: ('A' for Active; 'I' for Inactive)
REMARK    1  A    between atoms: C_4  and  C_5
REMARK    2  A    between atoms: C_8  and  N_9
REMARK    3  A    between atoms: C_10  and  C_12
REMARK                            x       y       z     vdW  Elec       q    Type
REMARK                         _______ _______ _______ _____ _____    ______ ____
ROOT
ATOM      1  C   UNL     1       3.422   6.548  18.621  0.00  0.00    +0.000 A 
ATOM      2  C   UNL     1       2.747   6.309  19.834  0.00  0.00    +0.000 A 
ATOM      3  C   UNL     1       1.781   7.211  20.302  0.00  0.00    +0.000 A 
ATOM      4  C   UNL     1       1.477   8.365  19.568  0.00  0.00    +0.000 A 
ATOM      5  C   UNL     1       2.131   8.601  18.354  0.00  0.00    +0.000 A 
ATOM      6  C   UNL     1       3.097   7.704  17.885  0.00  0.00    +0.000 A 
ENDROOT
BRANCH   1  10
ATOM      7  N   UNL     1       7.698   4.297  17.901  0.00  0.00    +0.000 N 
ATOM      8  C   UNL     1       6.325   4.617  17.825  0.00  0.00    +0.000 A 
ATOM      9  N   UNL     1       5.756   5.640  18.494  0.00  0.00    +0.000 NA
ATOM     10  C   UNL     1       4.455   5.595  18.135  0.00  0.00    +0.000 A 
ATOM     11  C   UNL     1       4.269   4.542  17.249  0.00  0.00    +0.000 A 
ATOM     12  N   UNL     1       5.450   3.937  17.063  0.00  0.00    +0.000 N 
ATOM     13  H   UNL     1       8.335   4.864  18.477  0.00  0.00    +0.000 HD
ATOM     14  H   UNL     1       8.079   3.507  17.358  0.00  0.00    +0.000 HD
ATOM     15  H   UNL     1       5.648   3.115  16.448  0.00  0.00    +0.000 HD
ENDBRANCH   1  10
BRANCH   4  16
ATOM     16  N   UNL     1       0.479   9.267  20.025  0.00  0.00    +0.000 N 
ATOM     17  C   UNL     1       0.554   9.923  21.222  0.00  0.00    +0.000 C 
ATOM     18  O   UNL     1       1.506   9.734  21.965  0.00  0.00    +0.000 OA
ATOM     19  H   UNL     1      -0.312   9.435  19.390  0.00  0.00    +0.000 HD
BRANCH  17  20
ATOM     20  C   UNL     1      -0.507  10.885  21.630  0.00  0.00    +0.000 A 
ATOM     21  C   UNL     1      -1.134  10.914  22.876  0.00  0.00    +0.000 A 
ATOM     22  C   UNL     1      -2.047  11.936  22.809  0.00  0.00    +0.000 A 
ATOM     23  C   UNL     1      -2.945  12.393  23.769  0.00  0.00    +0.000 A 
ATOM     24  C   UNL     1      -3.781  13.467  23.424  0.00  0.00    +0.000 A 
ATOM     25  C   UNL     1      -3.698  14.053  22.141  0.00  0.00    +0.000 A 
ATOM     26  C   UNL     1      -2.773  13.568  21.191  0.00  0.00    +0.000 A 
ATOM     27  C   UNL     1      -1.955  12.496  21.564  0.00  0.00    +0.000 A 
ATOM     28  N   UNL     1      -1.014  11.866  20.832  0.00  0.00    +0.000 N 
ATOM     29  H   UNL     1      -0.739  12.086  19.848  0.00  0.00    +0.000 HD
ENDBRANCH  17  20
ENDBRANCH   4  16
TORSDOF 3
ENDMDL
MODEL 5
REMARK VINA RESULT:      -7.3      1.251      1.491
REMARK  Name = 
REMARK  3 active torsions:
REMARK  status: ('A' for Active; 'I' for Inactive)
REMARK    1  A    between atoms: C_4  and  C_5
REMARK    2  A    between atoms: C_8  and  N_9
REMARK    3  A    between atoms: C_10  and  C_12
REMARK                            x       y       z     vdW  Elec       q    Type
REMARK                         _______ _______ _______ _____ _____    ______ ____
ROOT
ATOM      1  C   UNL     1       3.029   7.350  18.527  0.00  0.00    +0.000 A 
ATOM      2  C   UNL     1       2.497   7.014  19.786  0.00  0.00    +0.000 A 
ATOM      3  C   UNL     1       1.467   7.778  20.352  0.00  0.00    +0.000 A 
ATOM      4  C   UNL     1       0.956   8.891  19.670  0.00  0.00    +0.000 A 
ATOM      5  C   UNL     1       1.468   9.221  18.411  0.00  0.00    +0.000 A 
ATOM      6  C   UNL     1       2.498   8.461  17.845  0.00  0.00    +0.000 A 
ENDROOT
BRANCH   1  10
ATOM      7  N   UNL     1       6.628   4.090  17.981  0.00  0.00    +0.000 N 
ATOM      8  C   UNL     1       5.701   5.119  17.705  0.00  0.00    +0.000 A 
ATOM      9  N   UNL     1       4.797   5.571  18.597  0.00  0.00    +0.000 NA
ATOM     10  C   UNL     1       4.131   6.543  17.936  0.00  0.00    +0.000 A 
ATOM     11  C   UNL     1       4.655   6.658  16.655  0.00  0.00    +0.000 A 
ATOM     12  N   UNL     1       5.639   5.758  16.523  0.00  0.00    +0.000 N 
ATOM     13  H   UNL     1       6.656   3.648  18.910  0.00  0.00    +0.000 HD
ATOM     14  H   UNL     1       7.303   3.791  17.260  0.00  0.00    +0.000 HD
ATOM     15  H   UNL     1       6.236   5.595  15.680  0.00  0.00    +0.000 HD
ENDBRANCH   1  10
BRANCH   4  16
ATOM     16  N   UNL     1      -0.107   9.651  20.228  0.00  0.00    +0.000 N 
ATOM     17  C   UNL     1       0.084  10.632  21.161  0.00  0.00    +0.000 C 
ATOM     18  O   UNL     1       1.210  10.880  21.568  0.00  0.00    +0.000 OA
ATOM     19  H   UNL     1      -1.050   9.450  19.872  0.00  0.00    +0.000 HD
BRANCH  17  20
ATOM     20  C   UNL     1      -1.067  11.421  21.682  0.00  0.00    +0.000 A 
ATOM     21  C   UNL     1      -1.556  11.370  22.987  0.00  0.00    +0.000 A 
ATOM     22  C   UNL     1      -2.621  12.233  23.020  0.00  0.00    +0.000 A 
ATOM     23  C   UNL     1      -3.473  12.558  24.071  0.00  0.00    +0.000 A 
ATOM     24  C   UNL     1      -4.501  13.481  23.819  0.00  0.00    +0.000 A 
ATOM     25  C   UNL     1      -4.648  14.053  22.535  0.00  0.00    +0.000 A 
ATOM     26  C   UNL     1      -3.764  13.705  21.491  0.00  0.00    +0.000 A 
ATOM     27  C   UNL     1      -2.751  12.782  21.773  0.00  0.00    +0.000 A 
ATOM     28  N   UNL     1      -1.805  12.296  20.943  0.00  0.00    +0.000 N 
ATOM     29  H   UNL     1      -1.674  12.542  19.936  0.00  0.00    +0.000 HD
ENDBRANCH  17  20
ENDBRANCH   4  16
TORSDOF 3
ENDMDL
MODEL 6
REMARK VINA RESULT:      -7.3      1.344      1.854
REMARK  Name = 
REMARK  3 active torsions:
REMARK  status: ('A' for Active; 'I' for Inactive)
REMARK    1  A    between atoms: C_4  and  C_5
REMARK    2  A    between atoms: C_8  and  N_9
REMARK    3  A    between atoms: C_10  and  C_12
REMARK                            x       y       z     vdW  Elec       q    Type
REMARK                         _______ _______ _______ _____ _____    ______ ____
ROOT
ATOM      1  C   UNL     1       3.133   6.303  18.988  0.00  0.00    +0.000 A 
ATOM      2  C   UNL     1       2.456   6.112  20.207  0.00  0.00    +0.000 A 
ATOM      3  C   UNL     1       1.585   7.094  20.701  0.00  0.00    +0.000 A 
ATOM      4  C   UNL     1       1.380   8.281  19.986  0.00  0.00    +0.000 A 
ATOM      5  C   UNL     1       2.036   8.471  18.765  0.00  0.00    +0.000 A 
ATOM      6  C   UNL     1       2.908   7.494  18.270  0.00  0.00    +0.000 A 
ENDROOT
BRANCH   1  10
ATOM      7  N   UNL     1       5.838   3.561  15.981  0.00  0.00    +0.000 N 
ATOM      8  C   UNL     1       5.245   4.072  17.156  0.00  0.00    +0.000 A 
ATOM      9  N   UNL     1       4.397   5.120  17.172  0.00  0.00    +0.000 NA
ATOM     10  C   UNL     1       4.067   5.265  18.474  0.00  0.00    +0.000 A 
ATOM     11  C   UNL     1       4.724   4.293  19.216  0.00  0.00    +0.000 A 
ATOM     12  N   UNL     1       5.460   3.551  18.377  0.00  0.00    +0.000 N 
ATOM     13  H   UNL     1       5.622   3.976  15.064  0.00  0.00    +0.000 HD
ATOM     14  H   UNL     1       6.473   2.750  16.029  0.00  0.00    +0.000 HD
ATOM     15  H   UNL     1       6.066   2.735  18.622  0.00  0.00    +0.000 HD
ENDBRANCH   1  10
BRANCH   4  16
ATOM     16  N   UNL     1       0.477   9.265  20.469  0.00  0.00    +0.000 N 
ATOM     17  C   UNL     1       0.662   9.939  21.644  0.00  0.00    +0.000 C 
ATOM     18  O   UNL     1       1.634   9.694  22.344  0.00  0.00    +0.000 OA
ATOM     19  H   UNL     1      -0.331   9.479  19.870  0.00  0.00    +0.000 HD
BRANCH  17  20
ATOM     20  C   UNL     1      -0.302  10.987  22.080  0.00  0.00    +0.000 A 
ATOM     21  C   UNL     1      -0.226  12.340  21.752  0.00  0.00    +0.000 A 
ATOM     22  C   UNL     1      -1.293  12.935  22.375  0.00  0.00    +0.000 A 
ATOM     23  C   UNL     1      -1.687  14.269  22.390  0.00  0.00    +0.000 A 
ATOM     24  C   UNL     1      -2.834  14.606  23.127  0.00  0.00    +0.000 A 
ATOM     25  C   UNL     1      -3.553  13.608  23.824  0.00  0.00    +0.000 A 
ATOM     26  C   UNL     1      -3.129  12.263  23.786  0.00  0.00    +0.000 A 
ATOM     27  C   UNL     1      -1.982  11.960  23.044  0.00  0.00    +0.000 A 
ATOM     28  N   UNL     1      -1.389  10.761  22.870  0.00  0.00    +0.000 N 
ATOM     29  H   UNL     1      -1.702   9.847  23.269  0.00  0.00    +0.000 HD
ENDBRANCH  17  20
ENDBRANCH   4  16
TORSDOF 3
ENDMDL
MODEL 7
REMARK VINA RESULT:      -7.3      0.564      1.553
REMARK  Name = 
REMARK  3 active torsions:
REMARK  status: ('A' for Active; 'I' for Inactive)
REMARK    1  A    between atoms: C_4  and  C_5
REMARK    2  A    between atoms: C_8  and  N_9
REMARK    3  A    between atoms: C_10  and  C_12
REMARK                            x       y       z     vdW  Elec       q    Type
REMARK                         _______ _______ _______ _____ _____    ______ ____
ROOT
ATOM      1  C   UNL     1       2.589   7.440  18.581  0.00  0.00    +0.000 A 
ATOM      2  C   UNL     1       2.006   8.582  18.001  0.00  0.00    +0.000 A 
ATOM      3  C   UNL     1       1.122   9.384  18.738  0.00  0.00    +0.000 A 
ATOM      4  C   UNL     1       0.806   9.055  20.062  0.00  0.00    +0.000 A 
ATOM      5  C   UNL     1       1.395   7.930  20.652  0.00  0.00    +0.000 A 
ATOM      6  C   UNL     1       2.276   7.127  19.918  0.00  0.00    +0.000 A 
ENDROOT
BRANCH   1  10
ATOM      7  N   UNL     1       6.145   5.998  15.556  0.00  0.00    +0.000 N 
ATOM      8  C   UNL     1       5.070   5.962  16.471  0.00  0.00    +0.000 A 
ATOM      9  N   UNL     1       4.489   7.064  16.987  0.00  0.00    +0.000 NA
ATOM     10  C   UNL     1       3.516   6.585  17.792  0.00  0.00    +0.000 A 
ATOM     11  C   UNL     1       3.530   5.197  17.738  0.00  0.00    +0.000 A 
ATOM     12  N   UNL     1       4.509   4.820  16.905  0.00  0.00    +0.000 N 
ATOM     13  H   UNL     1       6.524   6.898  15.231  0.00  0.00    +0.000 HD
ATOM     14  H   UNL     1       6.544   5.121  15.187  0.00  0.00    +0.000 HD
ATOM     15  H   UNL     1       4.775   3.842  16.644  0.00  0.00    +0.000 HD
ENDBRANCH   1  10
BRANCH   4  16
ATOM     16  N   UNL     1      -0.066   9.880  20.820  0.00  0.00    +0.000 N 
ATOM     17  C   UNL     1       0.320  11.070  21.373  0.00  0.00    +0.000 C 
ATOM     18  O   UNL     1       1.470  11.462  21.239  0.00  0.00    +0.000 OA
ATOM     19  H   UNL     1      -1.037   9.554  20.917  0.00  0.00    +0.000 HD
BRANCH  17  20
ATOM     20  C   UNL     1      -0.651  11.910  22.127  0.00  0.00    +0.000 A 
ATOM     21  C   UNL     1      -0.495  13.266  22.411  0.00  0.00    +0.000 A 
ATOM     22  C   UNL     1      -1.605  13.626  23.132  0.00  0.00    +0.000 A 
ATOM     23  C   UNL     1      -1.954  14.858  23.676  0.00  0.00    +0.000 A 
ATOM     24  C   UNL     1      -3.163  14.942  24.385  0.00  0.00    +0.000 A 
ATOM     25  C   UNL     1      -3.986  13.802  24.530  0.00  0.00    +0.000 A 
ATOM     26  C   UNL     1      -3.605  12.567  23.963  0.00  0.00    +0.000 A 
ATOM     27  C   UNL     1      -2.394  12.516  23.264  0.00  0.00    +0.000 A 
ATOM     28  N   UNL     1      -1.825  11.457  22.650  0.00  0.00    +0.000 N 
ATOM     29  H   UNL     1      -2.210  10.488  22.597  0.00  0.00    +0.000 HD
ENDBRANCH  17  20
ENDBRANCH   4  16
TORSDOF 3
ENDMDL
MODEL 8
REMARK VINA RESULT:      -7.2      2.428      4.494
REMARK  Name = 
REMARK  3 active torsions:
REMARK  status: ('A' for Active; 'I' for Inactive)
REMARK    1  A    between atoms: C_4  and  C_5
REMARK    2  A    between atoms: C_8  and  N_9
REMARK    3  A    between atoms: C_10  and  C_12
REMARK                            x       y       z     vdW  Elec       q    Type
REMARK                         _______ _______ _______ _____ _____    ______ ____
ROOT
ATOM      1  C   UNL     1       4.967   5.303  15.764  0.00  0.00    +0.000 A 
ATOM      2  C   UNL     1       5.112   6.692  15.942  0.00  0.00    +0.000 A 
ATOM      3  C   UNL     1       4.389   7.363  16.938  0.00  0.00    +0.000 A 
ATOM      4  C   UNL     1       3.508   6.657  17.768  0.00  0.00    +0.000 A 
ATOM      5  C   UNL     1       3.370   5.274  17.608  0.00  0.00    +0.000 A 
ATOM      6  C   UNL     1       4.089   4.602  16.613  0.00  0.00    +0.000 A 
ENDROOT
BRANCH   1  10
ATOM      7  N   UNL     1       6.063   2.482  11.927  0.00  0.00    +0.000 N 
ATOM      8  C   UNL     1       6.198   3.365  13.022  0.00  0.00    +0.000 A 
ATOM      9  N   UNL     1       5.161   3.793  13.770  0.00  0.00    +0.000 NA
ATOM     10  C   UNL     1       5.726   4.597  14.697  0.00  0.00    +0.000 A 
ATOM     11  C   UNL     1       7.099   4.631  14.488  0.00  0.00    +0.000 A 
ATOM     12  N   UNL     1       7.381   3.854  13.434  0.00  0.00    +0.000 N 
ATOM     13  H   UNL     1       5.139   2.113  11.666  0.00  0.00    +0.000 HD
ATOM     14  H   UNL     1       6.895   2.181  11.397  0.00  0.00    +0.000 HD
ATOM     15  H   UNL     1       8.325   3.662  13.025  0.00  0.00    +0.000 HD
ENDBRANCH   1  10
BRANCH   4  16
ATOM     16  N   UNL     1       2.794   7.329  18.797  0.00  0.00    +0.000 N 
ATOM     17  C   UNL     1       2.005   8.422  18.570  0.00  0.00    +0.000 C 
ATOM     18  O   UNL     1       1.900   8.877  17.440  0.00  0.00    +0.000 OA
ATOM     19  H   UNL     1       2.873   6.933  19.742  0.00  0.00    +0.000 HD
BRANCH  17  20
ATOM     20  C   UNL     1       1.252   9.062  19.684  0.00  0.00    +0.000 A 
ATOM     21  C   UNL     1       1.005   8.483  20.928  0.00  0.00    +0.000 A 
ATOM     22  C   UNL     1       0.270   9.405  21.629  0.00  0.00    +0.000 A 
ATOM     23  C   UNL     1      -0.250   9.338  22.918  0.00  0.00    +0.000 A 
ATOM     24  C   UNL     1      -0.981  10.441  23.387  0.00  0.00    +0.000 A 
ATOM     25  C   UNL     1      -1.170  11.574  22.565  0.00  0.00    +0.000 A 
ATOM     26  C   UNL     1      -0.626  11.613  21.263  0.00  0.00    +0.000 A 
ATOM     27  C   UNL     1       0.096  10.498  20.824  0.00  0.00    +0.000 A 
ATOM     28  N   UNL     1       0.694  10.304  19.630  0.00  0.00    +0.000 N 
ATOM     29  H   UNL     1       0.716  10.973  18.828  0.00  0.00    +0.000 HD
ENDBRANCH  17  20
ENDBRANCH   4  16
TORSDOF 3
ENDMDL
MODEL 9
REMARK VINA RESULT:      -7.2      0.648      1.039
REMARK  Name = 
REMARK  3 active torsions:
REMARK  status: ('A' for Active; 'I' for Inactive)
REMARK    1  A    between atoms: C_4  and  C_5
REMARK    2  A    between atoms: C_8  and  N_9
REMARK    3  A    between atoms: C_10  and  C_12
REMARK                            x       y       z     vdW  Elec       q    Type
REMARK                         _______ _______ _______ _____ _____    ______ ____
ROOT
ATOM      1  C   UNL     1       2.555   7.363  18.742  0.00  0.00    +0.000 A 
ATOM      2  C   UNL     1       2.210   7.060  20.073  0.00  0.00    +0.000 A 
ATOM      3  C   UNL     1       1.341   7.893  20.792  0.00  0.00    +0.000 A 
ATOM      4  C   UNL     1       0.807   9.042  20.193  0.00  0.00    +0.000 A 
ATOM      5  C   UNL     1       1.132   9.341  18.866  0.00  0.00    +0.000 A 
ATOM      6  C   UNL     1       2.001   8.512  18.147  0.00  0.00    +0.000 A 
ENDROOT
BRANCH   1  10
ATOM      7  N   UNL     1       4.884   3.408  17.066  0.00  0.00    +0.000 N 
ATOM      8  C   UNL     1       4.500   4.753  17.260  0.00  0.00    +0.000 A 
ATOM      9  N   UNL     1       3.516   5.138  18.098  0.00  0.00    +0.000 NA
ATOM     10  C   UNL     1       3.488   6.484  17.988  0.00  0.00    +0.000 A 
ATOM     11  C   UNL     1       4.464   6.882  17.084  0.00  0.00    +0.000 A 
ATOM     12  N   UNL     1       5.091   5.787  16.634  0.00  0.00    +0.000 N 
ATOM     13  H   UNL     1       4.420   2.652  17.588  0.00  0.00    +0.000 HD
ATOM     14  H   UNL     1       5.651   3.175  16.417  0.00  0.00    +0.000 HD
ATOM     15  H   UNL     1       5.880   5.747  15.948  0.00  0.00    +0.000 HD
ENDBRANCH   1  10
BRANCH   4  16
ATOM     16  N   UNL     1      -0.096   9.873  20.909  0.00  0.00    +0.000 N 
ATOM     17  C   UNL     1       0.287  11.024  21.541  0.00  0.00    +0.000 C 
ATOM     18  O   UNL     1       1.458  11.374  21.520  0.00  0.00    +0.000 OA
ATOM     19  H   UNL     1      -1.082   9.584  20.911  0.00  0.00    +0.000 HD
BRANCH  17  20
ATOM     20  C   UNL     1      -0.714  11.874  22.245  0.00  0.00    +0.000 A 
ATOM     21  C   UNL     1      -1.854  11.406  22.896  0.00  0.00    +0.000 A 
ATOM     22  C   UNL     1      -2.489  12.520  23.382  0.00  0.00    +0.000 A 
ATOM     23  C   UNL     1      -3.675  12.629  24.102  0.00  0.00    +0.000 A 
ATOM     24  C   UNL     1      -4.103  13.915  24.469  0.00  0.00    +0.000 A 
ATOM     25  C   UNL     1      -3.340  15.050  24.114  0.00  0.00    +0.000 A 
ATOM     26  C   UNL     1      -2.139  14.906  23.386  0.00  0.00    +0.000 A 
ATOM     27  C   UNL     1      -1.741  13.612  23.033  0.00  0.00    +0.000 A 
ATOM     28  N   UNL     1      -0.648  13.232  22.339  0.00  0.00    +0.000 N 
ATOM     29  H   UNL     1       0.092  13.858  21.950  0.00  0.00    +0.000 HD
ENDBRANCH  17  20
ENDBRANCH   4  16
TORSDOF 3
ENDMDL
