MODEL 1
REMARK VINA RESULT:      -9.3      0.000      0.000
REMARK  Name = 
REMARK  7 active torsions:
REMARK  status: ('A' for Active; 'I' for Inactive)
REMARK    1  A    between atoms: C_2  and  C_14
REMARK    2  A    between atoms: N_3  and  C_4
REMARK    3  A    between atoms: C_9  and  C_10
REMARK    4  A    between atoms: N_12  and  O_13
REMARK    5  A    between atoms: C_17  and  C_18
REMARK    6  A    between atoms: C_18  and  C_19
REMARK    7  A    between atoms: C_21  and  C_22
REMARK                            x       y       z     vdW  Elec       q    Type
REMARK                         _______ _______ _______ _____ _____    ______ ____
ROOT
ATOM      1  C   UNL     1       0.380  10.266  20.187  0.00  0.00    +0.000 A 
ATOM      2  C   UNL     1       1.058   9.810  19.043  0.00  0.00    +0.000 A 
ATOM      3  C   UNL     1       1.748   8.530  18.995  0.00  0.00    +0.000 A 
ATOM      4  C   UNL     1       1.804   7.642  20.098  0.00  0.00    +0.000 A 
ATOM      5  C   UNL     1       1.093   8.098  21.222  0.00  0.00    +0.000 A 
ATOM      6  C   UNL     1       0.396   9.371  21.269  0.00  0.00    +0.000 A 
ENDROOT
BRANCH   1   8
ATOM      7  O   UNL     1      -0.401  12.283  19.146  0.00  0.00    +0.000 OA
ATOM      8  C   UNL     1      -0.301  11.681  20.216  0.00  0.00    +0.000 C 
ATOM      9  N   UNL     1      -0.683  12.241  21.435  0.00  0.00    +0.000 N 
ATOM     10  H   UNL     1      -0.843  11.576  22.181  0.00  0.00    +0.000 HD
BRANCH   9  11
ATOM     11  C   UNL     1      -1.347  13.600  21.703  0.00  0.00    +0.000 C 
ATOM     12  C   UNL     1      -0.676  14.493  22.766  0.00  0.00    +0.000 C 
ATOM     13  C   UNL     1      -1.510  15.731  23.131  0.00  0.00    +0.000 C 
ATOM     14  O   UNL     1      -2.842  15.381  23.500  0.00  0.00    +0.000 OA
ATOM     15  C   UNL     1      -3.542  14.771  22.415  0.00  0.00    +0.000 C 
ATOM     16  C   UNL     1      -2.868  13.450  22.019  0.00  0.00    +0.000 C 
BRANCH  16  17
ATOM     17  C   UNL     1      -3.135  12.429  23.116  0.00  0.00    +0.000 C 
ATOM     18  O   UNL     1      -2.343  11.516  23.356  0.00  0.00    +0.000 OA
ATOM     19  N   UNL     1      -4.293  12.584  23.845  0.00  0.00    +0.000 N 
ATOM     20  H   UNL     1      -5.090  13.095  23.457  0.00  0.00    +0.000 HD
BRANCH  19  21
ATOM     21  O   UNL     1      -4.587  11.561  24.765  0.00  0.00    +0.000 OA
ATOM     22  H   UNL     1      -5.431  11.198  24.418  0.00  0.00    +0.000 HD
ENDBRANCH  19  21
ENDBRANCH  16  17
ENDBRANCH   9  11
ENDBRANCH   1   8
BRANCH   4  23
ATOM     23  C   UNL     1       2.542   6.199  20.072  0.00  0.00    +0.000 C 
BRANCH  23  24
ATOM     24  C   UNL     1       2.695   5.404  18.707  0.00  0.00    +0.000 A 
ATOM     25  C   UNL     1       2.043   4.180  18.769  0.00  0.00    +0.000 A 
ATOM     26  C   UNL     1       2.917   3.147  18.511  0.00  0.00    +0.000 A 
ATOM     27  N   UNL     1       3.493   3.145  17.310  0.00  0.00    +0.000 NA
ATOM     28  C   UNL     1       4.024   4.302  16.963  0.00  0.00    +0.000 A 
ATOM     29  C   UNL     1       5.033   4.154  16.002  0.00  0.00    +0.000 A 
ATOM     30  C   UNL     1       5.705   5.233  15.473  0.00  0.00    +0.000 A 
ATOM     31  C   UNL     1       5.314   6.496  15.896  0.00  0.00    +0.000 A 
ATOM     32  C   UNL     1       4.355   6.655  16.945  0.00  0.00    +0.000 A 
ATOM     33  C   UNL     1       3.685   5.546  17.583  0.00  0.00    +0.000 A 
BRANCH  26  34
ATOM     34  C   UNL     1       3.869   2.719  19.639  0.00  0.00    +0.000 C 
ATOM     35  F   UNL     1       4.985   3.497  19.757  0.00  0.00    +0.000 F 
ATOM     36  F   UNL     1       3.273   2.725  20.859  0.00  0.00    +0.000 F 
ATOM     37  F   UNL     1       4.362   1.452  19.465  0.00  0.00    +0.000 F 
ENDBRANCH  26  34
ENDBRANCH  23  24
ENDBRANCH   4  23
TORSDOF 7
ENDMDL
MODEL 2
REMARK VINA RESULT:      -9.3      2.244      3.367
REMARK  Name = 
REMARK  7 active torsions:
REMARK  status: ('A' for Active; 'I' for Inactive)
REMARK    1  A    between atoms: C_2  and  C_14
REMARK    2  A    between atoms: N_3  and  C_4
REMARK    3  A    between atoms: C_9  and  C_10
REMARK    4  A    between atoms: N_12  and  O_13
REMARK    5  A    between atoms: C_17  and  C_18
REMARK    6  A    between atoms: C_18  and  C_19
REMARK    7  A    between atoms: C_21  and  C_22
REMARK                            x       y       z     vdW  Elec       q    Type
REMARK                         _______ _______ _______ _____ _____    ______ ____
ROOT
ATOM      1  C   UNL     1       0.314   9.960  21.007  0.00  0.00    +0.000 A 
ATOM      2  C   UNL     1       0.413  10.357  19.661  0.00  0.00    +0.000 A 
ATOM      3  C   UNL     1       1.152   9.594  18.668  0.00  0.00    +0.000 A 
ATOM      4  C   UNL     1       1.842   8.394  18.973  0.00  0.00    +0.000 A 
ATOM      5  C   UNL     1       1.705   7.994  20.314  0.00  0.00    +0.000 A 
ATOM      6  C   UNL     1       0.961   8.749  21.305  0.00  0.00    +0.000 A 
ENDROOT
BRANCH   1   8
ATOM      7  O   UNL     1      -0.192  10.646  23.250  0.00  0.00    +0.000 OA
ATOM      8  C   UNL     1      -0.443  10.845  22.060  0.00  0.00    +0.000 C 
ATOM      9  N   UNL     1      -1.417  11.746  21.635  0.00  0.00    +0.000 N 
ATOM     10  H   UNL     1      -1.331  12.050  20.673  0.00  0.00    +0.000 HD
BRANCH   9  11
ATOM     11  C   UNL     1      -2.284  12.695  22.477  0.00  0.00    +0.000 C 
ATOM     12  C   UNL     1      -3.045  12.061  23.658  0.00  0.00    +0.000 C 
ATOM     13  C   UNL     1      -4.049  13.021  24.317  0.00  0.00    +0.000 C 
ATOM     14  O   UNL     1      -4.939  13.593  23.361  0.00  0.00    +0.000 OA
ATOM     15  C   UNL     1      -4.238  14.390  22.405  0.00  0.00    +0.000 C 
ATOM     16  C   UNL     1      -3.269  13.521  21.591  0.00  0.00    +0.000 C 
BRANCH  16  17
ATOM     17  C   UNL     1      -4.085  12.640  20.657  0.00  0.00    +0.000 C 
ATOM     18  O   UNL     1      -3.631  12.239  19.584  0.00  0.00    +0.000 OA
ATOM     19  N   UNL     1      -5.351  12.291  21.074  0.00  0.00    +0.000 N 
ATOM     20  H   UNL     1      -5.852  12.865  21.758  0.00  0.00    +0.000 HD
BRANCH  19  21
ATOM     21  O   UNL     1      -6.138  11.587  20.145  0.00  0.00    +0.000 OA
ATOM     22  H   UNL     1      -6.788  11.128  20.721  0.00  0.00    +0.000 HD
ENDBRANCH  19  21
ENDBRANCH  16  17
ENDBRANCH   9  11
ENDBRANCH   1   8
BRANCH   4  23
ATOM     23  C   UNL     1       2.654   7.505  17.887  0.00  0.00    +0.000 C 
BRANCH  23  24
ATOM     24  C   UNL     1       3.356   6.151  18.326  0.00  0.00    +0.000 A 
ATOM     25  C   UNL     1       4.737   6.297  18.360  0.00  0.00    +0.000 A 
ATOM     26  C   UNL     1       5.345   5.378  17.532  0.00  0.00    +0.000 A 
ATOM     27  N   UNL     1       5.147   4.093  17.828  0.00  0.00    +0.000 NA
ATOM     28  C   UNL     1       3.884   3.773  18.030  0.00  0.00    +0.000 A 
ATOM     29  C   UNL     1       3.643   2.409  17.817  0.00  0.00    +0.000 A 
ATOM     30  C   UNL     1       2.399   1.847  17.999  0.00  0.00    +0.000 A 
ATOM     31  C   UNL     1       1.385   2.680  18.452  0.00  0.00    +0.000 A 
ATOM     32  C   UNL     1       1.593   4.089  18.579  0.00  0.00    +0.000 A 
ATOM     33  C   UNL     1       2.861   4.730  18.320  0.00  0.00    +0.000 A 
BRANCH  26  34
ATOM     34  C   UNL     1       5.332   5.660  16.022  0.00  0.00    +0.000 C 
ATOM     35  F   UNL     1       6.561   5.603  15.430  0.00  0.00    +0.000 F 
ATOM     36  F   UNL     1       4.540   4.798  15.334  0.00  0.00    +0.000 F 
ATOM     37  F   UNL     1       4.875   6.916  15.721  0.00  0.00    +0.000 F 
ENDBRANCH  26  34
ENDBRANCH  23  24
ENDBRANCH   4  23
TORSDOF 7
ENDMDL
MODEL 3
REMARK VINA RESULT:      -9.2      2.097      3.318
REMARK  Name = 
REMARK  7 active torsions:
REMARK  status: ('A' for Active; 'I' for Inactive)
REMARK    1  A    between atoms: C_2  and  C_14
REMARK    2  A    between atoms: N_3  and  C_4
REMARK    3  A    between atoms: C_9  and  C_10
REMARK    4  A    between atoms: N_12  and  O_13
REMARK    5  A    between atoms: C_17  and  C_18
REMARK    6  A    between atoms: C_18  and  C_19
REMARK    7  A    between atoms: C_21  and  C_22
REMARK                            x       y       z     vdW  Elec       q    Type
REMARK                         _______ _______ _______ _____ _____    ______ ____
ROOT
ATOM      1  C   UNL     1       0.644  10.693  19.940  0.00  0.00    +0.000 A 
ATOM      2  C   UNL     1       1.149  10.792  18.631  0.00  0.00    +0.000 A 
ATOM      3  C   UNL     1       1.868   9.708  17.980  0.00  0.00    +0.000 A 
ATOM      4  C   UNL     1       2.128   8.466  18.612  0.00  0.00    +0.000 A 
ATOM      5  C   UNL     1       1.588   8.371  19.907  0.00  0.00    +0.000 A 
ATOM      6  C   UNL     1       0.863   9.449  20.555  0.00  0.00    +0.000 A 
ENDROOT
BRANCH   1   8
ATOM      7  O   UNL     1       0.483  13.007  20.557  0.00  0.00    +0.000 OA
ATOM      8  C   UNL     1      -0.073  11.910  20.627  0.00  0.00    +0.000 C 
ATOM      9  N   UNL     1      -1.243  11.702  21.355  0.00  0.00    +0.000 N 
ATOM     10  H   UNL     1      -1.764  10.872  21.103  0.00  0.00    +0.000 HD
BRANCH   9  11
ATOM     11  C   UNL     1      -2.100  12.728  22.113  0.00  0.00    +0.000 C 
ATOM     12  C   UNL     1      -2.946  12.185  23.281  0.00  0.00    +0.000 C 
ATOM     13  C   UNL     1      -3.930  13.220  23.849  0.00  0.00    +0.000 C 
ATOM     14  O   UNL     1      -4.745  13.790  22.827  0.00  0.00    +0.000 OA
ATOM     15  C   UNL     1      -3.961  14.509  21.873  0.00  0.00    +0.000 C 
ATOM     16  C   UNL     1      -3.000  13.559  21.146  0.00  0.00    +0.000 C 
BRANCH  16  17
ATOM     17  C   UNL     1      -3.815  12.677  20.211  0.00  0.00    +0.000 C 
ATOM     18  O   UNL     1      -3.282  12.009  19.323  0.00  0.00    +0.000 OA
ATOM     19  N   UNL     1      -5.177  12.641  20.415  0.00  0.00    +0.000 N 
ATOM     20  H   UNL     1      -5.654  13.412  20.890  0.00  0.00    +0.000 HD
BRANCH  19  21
ATOM     21  O   UNL     1      -5.927  11.926  19.464  0.00  0.00    +0.000 OA
ATOM     22  H   UNL     1      -5.234  11.595  18.851  0.00  0.00    +0.000 HD
ENDBRANCH  19  21
ENDBRANCH  16  17
ENDBRANCH   9  11
ENDBRANCH   1   8
BRANCH   4  23
ATOM     23  C   UNL     1       2.903   7.228  17.909  0.00  0.00    +0.000 C 
BRANCH  23  24
ATOM     24  C   UNL     1       3.502   6.053  18.793  0.00  0.00    +0.000 A 
ATOM     25  C   UNL     1       4.848   5.859  18.514  0.00  0.00    +0.000 A 
ATOM     26  C   UNL     1       5.081   4.562  18.112  0.00  0.00    +0.000 A 
ATOM     27  N   UNL     1       4.793   3.607  18.997  0.00  0.00    +0.000 NA
ATOM     28  C   UNL     1       3.597   3.718  19.541  0.00  0.00    +0.000 A 
ATOM     29  C   UNL     1       3.122   2.494  20.028  0.00  0.00    +0.000 A 
ATOM     30  C   UNL     1       1.905   2.379  20.664  0.00  0.00    +0.000 A 
ATOM     31  C   UNL     1       1.173   3.544  20.850  0.00  0.00    +0.000 A 
ATOM     32  C   UNL     1       1.601   4.781  20.274  0.00  0.00    +0.000 A 
ATOM     33  C   UNL     1       2.831   4.927  19.531  0.00  0.00    +0.000 A 
BRANCH  26  34
ATOM     34  C   UNL     1       4.707   4.183  16.670  0.00  0.00    +0.000 C 
ATOM     35  F   UNL     1       5.545   3.273  16.094  0.00  0.00    +0.000 F 
ATOM     36  F   UNL     1       3.457   3.662  16.573  0.00  0.00    +0.000 F 
ATOM     37  F   UNL     1       4.738   5.254  15.816  0.00  0.00    +0.000 F 
ENDBRANCH  26  34
ENDBRANCH  23  24
ENDBRANCH   4  23
TORSDOF 7
ENDMDL
MODEL 4
REMARK VINA RESULT:      -9.2      2.245      3.434
REMARK  Name = 
REMARK  7 active torsions:
REMARK  status: ('A' for Active; 'I' for Inactive)
REMARK    1  A    between atoms: C_2  and  C_14
REMARK    2  A    between atoms: N_3  and  C_4
REMARK    3  A    between atoms: C_9  and  C_10
REMARK    4  A    between atoms: N_12  and  O_13
REMARK    5  A    between atoms: C_17  and  C_18
REMARK    6  A    between atoms: C_18  and  C_19
REMARK    7  A    between atoms: C_21  and  C_22
REMARK                            x       y       z     vdW  Elec       q    Type
REMARK                         _______ _______ _______ _____ _____    ______ ____
ROOT
ATOM      1  C   UNL     1       0.350  10.097  21.051  0.00  0.00    +0.000 A 
ATOM      2  C   UNL     1       0.973   8.884  21.395  0.00  0.00    +0.000 A 
ATOM      3  C   UNL     1       1.688   8.064  20.429  0.00  0.00    +0.000 A 
ATOM      4  C   UNL     1       1.807   8.413  19.060  0.00  0.00    +0.000 A 
ATOM      5  C   UNL     1       1.209   9.644  18.741  0.00  0.00    +0.000 A 
ATOM      6  C   UNL     1       0.502  10.468  19.705  0.00  0.00    +0.000 A 
ENDROOT
BRANCH   1   8
ATOM      7  O   UNL     1      -0.280  10.649  23.301  0.00  0.00    +0.000 OA
ATOM      8  C   UNL     1      -0.463  10.921  22.113  0.00  0.00    +0.000 C 
ATOM      9  N   UNL     1      -1.411  11.850  21.689  0.00  0.00    +0.000 N 
ATOM     10  H   UNL     1      -1.270  12.211  20.754  0.00  0.00    +0.000 HD
BRANCH   9  11
ATOM     11  C   UNL     1      -2.322  12.751  22.538  0.00  0.00    +0.000 C 
ATOM     12  C   UNL     1      -3.077  12.067  23.694  0.00  0.00    +0.000 C 
ATOM     13  C   UNL     1      -4.123  12.978  24.357  0.00  0.00    +0.000 C 
ATOM     14  O   UNL     1      -5.019  13.537  23.400  0.00  0.00    +0.000 OA
ATOM     15  C   UNL     1      -4.333  14.378  22.471  0.00  0.00    +0.000 C 
ATOM     16  C   UNL     1      -3.323  13.561  21.654  0.00  0.00    +0.000 C 
BRANCH  16  17
ATOM     17  C   UNL     1      -4.095  12.671  20.690  0.00  0.00    +0.000 C 
ATOM     18  O   UNL     1      -3.607  12.297  19.623  0.00  0.00    +0.000 OA
ATOM     19  N   UNL     1      -5.360  12.285  21.074  0.00  0.00    +0.000 N 
ATOM     20  H   UNL     1      -5.891  12.836  21.754  0.00  0.00    +0.000 HD
BRANCH  19  21
ATOM     21  O   UNL     1      -6.107  11.573  20.118  0.00  0.00    +0.000 OA
ATOM     22  H   UNL     1      -5.437  11.379  19.426  0.00  0.00    +0.000 HD
ENDBRANCH  19  21
ENDBRANCH  16  17
ENDBRANCH   9  11
ENDBRANCH   1   8
BRANCH   4  23
ATOM     23  C   UNL     1       2.617   7.538  17.962  0.00  0.00    +0.000 C 
BRANCH  23  24
ATOM     24  C   UNL     1       3.325   6.181  18.385  0.00  0.00    +0.000 A 
ATOM     25  C   UNL     1       4.705   6.333  18.424  0.00  0.00    +0.000 A 
ATOM     26  C   UNL     1       5.320   5.428  17.586  0.00  0.00    +0.000 A 
ATOM     27  N   UNL     1       5.127   4.139  17.864  0.00  0.00    +0.000 NA
ATOM     28  C   UNL     1       3.865   3.810  18.058  0.00  0.00    +0.000 A 
ATOM     29  C   UNL     1       3.632   2.448  17.826  0.00  0.00    +0.000 A 
ATOM     30  C   UNL     1       2.390   1.877  17.997  0.00  0.00    +0.000 A 
ATOM     31  C   UNL     1       1.370   2.699  18.458  0.00  0.00    +0.000 A 
ATOM     32  C   UNL     1       1.571   4.107  18.605  0.00  0.00    +0.000 A 
ATOM     33  C   UNL     1       2.837   4.758  18.358  0.00  0.00    +0.000 A 
BRANCH  26  34
ATOM     34  C   UNL     1       5.310   5.731  16.080  0.00  0.00    +0.000 C 
ATOM     35  F   UNL     1       4.785   6.949  15.755  0.00  0.00    +0.000 F 
ATOM     36  F   UNL     1       6.550   5.695  15.530  0.00  0.00    +0.000 F 
ATOM     37  F   UNL     1       4.553   4.840  15.365  0.00  0.00    +0.000 F 
ENDBRANCH  26  34
ENDBRANCH  23  24
ENDBRANCH   4  23
TORSDOF 7
ENDMDL
MODEL 5
REMARK VINA RESULT:      -9.1      2.092      3.307
REMARK  Name = 
REMARK  7 active torsions:
REMARK  status: ('A' for Active; 'I' for Inactive)
REMARK    1  A    between atoms: C_2  and  C_14
REMARK    2  A    between atoms: N_3  and  C_4
REMARK    3  A    between atoms: C_9  and  C_10
REMARK    4  A    between atoms: N_12  and  O_13
REMARK    5  A    between atoms: C_17  and  C_18
REMARK    6  A    between atoms: C_18  and  C_19
REMARK    7  A    between atoms: C_21  and  C_22
REMARK                            x       y       z     vdW  Elec       q    Type
REMARK                         _______ _______ _______ _____ _____    ______ ____
ROOT
ATOM      1  C   UNL     1       0.774  10.446  20.373  0.00  0.00    +0.000 A 
ATOM      2  C   UNL     1       1.084  10.633  19.014  0.00  0.00    +0.000 A 
ATOM      3  C   UNL     1       1.705   9.600  18.199  0.00  0.00    +0.000 A 
ATOM      4  C   UNL     1       2.060   8.326  18.708  0.00  0.00    +0.000 A 
ATOM      5  C   UNL     1       1.713   8.144  20.058  0.00  0.00    +0.000 A 
ATOM      6  C   UNL     1       1.085   9.170  20.871  0.00  0.00    +0.000 A 
ENDROOT
BRANCH   1   8
ATOM      7  O   UNL     1       0.911  12.527  21.561  0.00  0.00    +0.000 OA
ATOM      8  C   UNL     1       0.159  11.608  21.232  0.00  0.00    +0.000 C 
ATOM      9  N   UNL     1      -1.165  11.526  21.660  0.00  0.00    +0.000 N 
ATOM     10  H   UNL     1      -1.760  10.925  21.105  0.00  0.00    +0.000 HD
BRANCH   9  11
ATOM     11  C   UNL     1      -1.965  12.526  22.510  0.00  0.00    +0.000 C 
ATOM     12  C   UNL     1      -3.042  11.929  23.438  0.00  0.00    +0.000 C 
ATOM     13  C   UNL     1      -3.938  12.994  24.089  0.00  0.00    +0.000 C 
ATOM     14  O   UNL     1      -4.505  13.873  23.119  0.00  0.00    +0.000 OA
ATOM     15  C   UNL     1      -3.495  14.611  22.429  0.00  0.00    +0.000 C 
ATOM     16  C   UNL     1      -2.585  13.662  21.637  0.00  0.00    +0.000 C 
BRANCH  16  17
ATOM     17  C   UNL     1      -3.374  13.119  20.454  0.00  0.00    +0.000 C 
ATOM     18  O   UNL     1      -2.925  12.229  19.730  0.00  0.00    +0.000 OA
ATOM     19  N   UNL     1      -4.626  13.653  20.240  0.00  0.00    +0.000 N 
ATOM     20  H   UNL     1      -4.864  14.583  20.594  0.00  0.00    +0.000 HD
BRANCH  19  21
ATOM     21  O   UNL     1      -5.286  13.235  19.071  0.00  0.00    +0.000 OA
ATOM     22  H   UNL     1      -4.939  13.859  18.395  0.00  0.00    +0.000 HD
ENDBRANCH  19  21
ENDBRANCH  16  17
ENDBRANCH   9  11
ENDBRANCH   1   8
BRANCH   4  23
ATOM     23  C   UNL     1       2.730   7.143  17.823  0.00  0.00    +0.000 C 
BRANCH  23  24
ATOM     24  C   UNL     1       3.301   5.842  18.530  0.00  0.00    +0.000 A 
ATOM     25  C   UNL     1       4.688   5.881  18.595  0.00  0.00    +0.000 A 
ATOM     26  C   UNL     1       5.237   4.781  17.975  0.00  0.00    +0.000 A 
ATOM     27  N   UNL     1       4.922   3.592  18.489  0.00  0.00    +0.000 NA
ATOM     28  C   UNL     1       3.631   3.416  18.692  0.00  0.00    +0.000 A 
ATOM     29  C   UNL     1       3.281   2.060  18.720  0.00  0.00    +0.000 A 
ATOM     30  C   UNL     1       1.988   1.641  18.949  0.00  0.00    +0.000 A 
ATOM     31  C   UNL     1       1.037   2.621  19.199  0.00  0.00    +0.000 A 
ATOM     32  C   UNL     1       1.362   4.008  19.078  0.00  0.00    +0.000 A 
ATOM     33  C   UNL     1       2.686   4.488  18.761  0.00  0.00    +0.000 A 
BRANCH  26  34
ATOM     34  C   UNL     1       5.290   4.780  16.439  0.00  0.00    +0.000 C 
ATOM     35  F   UNL     1       5.130   6.011  15.871  0.00  0.00    +0.000 F 
ATOM     36  F   UNL     1       6.459   4.289  15.954  0.00  0.00    +0.000 F 
ATOM     37  F   UNL     1       4.298   4.021  15.874  0.00  0.00    +0.000 F 
ENDBRANCH  26  34
ENDBRANCH  23  24
ENDBRANCH   4  23
TORSDOF 7
ENDMDL
MODEL 6
REMARK VINA RESULT:      -9.1      0.226      1.062
REMARK  Name = 
REMARK  7 active torsions:
REMARK  status: ('A' for Active; 'I' for Inactive)
REMARK    1  A    between atoms: C_2  and  C_14
REMARK    2  A    between atoms: N_3  and  C_4
REMARK    3  A    between atoms: C_9  and  C_10
REMARK    4  A    between atoms: N_12  and  O_13
REMARK    5  A    between atoms: C_17  and  C_18
REMARK    6  A    between atoms: C_18  and  C_19
REMARK    7  A    between atoms: C_21  and  C_22
REMARK                            x       y       z     vdW  Elec       q    Type
REMARK                         _______ _______ _______ _____ _____    ______ ____
ROOT
ATOM      1  C   UNL     1       0.674  10.417  20.215  0.00  0.00    +0.000 A 
ATOM      2  C   UNL     1       0.673   9.591  21.354  0.00  0.00    +0.000 A 
ATOM      3  C   UNL     1       1.191   8.232  21.341  0.00  0.00    +0.000 A 
ATOM      4  C   UNL     1       1.729   7.623  20.180  0.00  0.00    +0.000 A 
ATOM      5  C   UNL     1       1.754   8.472  19.061  0.00  0.00    +0.000 A 
ATOM      6  C   UNL     1       1.245   9.832  19.073  0.00  0.00    +0.000 A 
ENDROOT
BRANCH   1   8
ATOM      7  O   UNL     1       0.328  12.621  19.331  0.00  0.00    +0.000 OA
ATOM      8  C   UNL     1       0.049  11.857  20.257  0.00  0.00    +0.000 C 
ATOM      9  N   UNL     1      -0.711  12.250  21.357  0.00  0.00    +0.000 N 
ATOM     10  H   UNL     1      -1.126  11.493  21.884  0.00  0.00    +0.000 HD
BRANCH   9  11
ATOM     11  C   UNL     1      -1.402  13.598  21.617  0.00  0.00    +0.000 C 
ATOM     12  C   UNL     1      -0.733  14.522  22.653  0.00  0.00    +0.000 C 
ATOM     13  C   UNL     1      -1.590  15.746  23.015  0.00  0.00    +0.000 C 
ATOM     14  O   UNL     1      -2.906  15.372  23.413  0.00  0.00    +0.000 OA
ATOM     15  C   UNL     1      -3.611  14.729  22.350  0.00  0.00    +0.000 C 
ATOM     16  C   UNL     1      -2.914  13.417  21.962  0.00  0.00    +0.000 C 
BRANCH  16  17
ATOM     17  C   UNL     1      -3.137  12.408  23.079  0.00  0.00    +0.000 C 
ATOM     18  O   UNL     1      -2.320  11.517  23.318  0.00  0.00    +0.000 OA
ATOM     19  N   UNL     1      -4.285  12.547  23.826  0.00  0.00    +0.000 N 
ATOM     20  H   UNL     1      -5.101  13.033  23.445  0.00  0.00    +0.000 HD
BRANCH  19  21
ATOM     21  O   UNL     1      -4.539  11.532  24.767  0.00  0.00    +0.000 OA
ATOM     22  H   UNL     1      -4.457  10.715  24.226  0.00  0.00    +0.000 HD
ENDBRANCH  19  21
ENDBRANCH  16  17
ENDBRANCH   9  11
ENDBRANCH   1   8
BRANCH   4  23
ATOM     23  C   UNL     1       2.338   6.121  20.136  0.00  0.00    +0.000 C 
BRANCH  23  24
ATOM     24  C   UNL     1       2.544   5.382  18.746  0.00  0.00    +0.000 A 
ATOM     25  C   UNL     1       1.892   4.156  18.735  0.00  0.00    +0.000 A 
ATOM     26  C   UNL     1       2.778   3.135  18.468  0.00  0.00    +0.000 A 
ATOM     27  N   UNL     1       3.399   3.182  17.290  0.00  0.00    +0.000 NA
ATOM     28  C   UNL     1       3.940   4.352  17.011  0.00  0.00    +0.000 A 
ATOM     29  C   UNL     1       4.984   4.244  16.083  0.00  0.00    +0.000 A 
ATOM     30  C   UNL     1       5.674   5.344  15.624  0.00  0.00    +0.000 A 
ATOM     31  C   UNL     1       5.264   6.589  16.083  0.00  0.00    +0.000 A 
ATOM     32  C   UNL     1       4.266   6.705  17.100  0.00  0.00    +0.000 A 
ATOM     33  C   UNL     1       3.576   5.570  17.667  0.00  0.00    +0.000 A 
BRANCH  26  34
ATOM     34  C   UNL     1       3.688   2.662  19.613  0.00  0.00    +0.000 C 
ATOM     35  F   UNL     1       3.083   2.638  20.837  0.00  0.00    +0.000 F 
ATOM     36  F   UNL     1       4.180   1.414  19.409  0.00  0.00    +0.000 F 
ATOM     37  F   UNL     1       4.777   3.474  19.794  0.00  0.00    +0.000 F 
ENDBRANCH  26  34
ENDBRANCH  23  24
ENDBRANCH   4  23
TORSDOF 7
ENDMDL
MODEL 7
REMARK VINA RESULT:      -9.1      2.105      3.428
REMARK  Name = 
REMARK  7 active torsions:
REMARK  status: ('A' for Active; 'I' for Inactive)
REMARK    1  A    between atoms: C_2  and  C_14
REMARK    2  A    between atoms: N_3  and  C_4
REMARK    3  A    between atoms: C_9  and  C_10
REMARK    4  A    between atoms: N_12  and  O_13
REMARK    5  A    between atoms: C_17  and  C_18
REMARK    6  A    between atoms: C_18  and  C_19
REMARK    7  A    between atoms: C_21  and  C_22
REMARK                            x       y       z     vdW  Elec       q    Type
REMARK                         _______ _______ _______ _____ _____    ______ ____
ROOT
ATOM      1  C   UNL     1       0.757  10.744  19.853  0.00  0.00    +0.000 A 
ATOM      2  C   UNL     1       0.910   9.517  20.522  0.00  0.00    +0.000 A 
ATOM      3  C   UNL     1       1.563   8.366  19.918  0.00  0.00    +0.000 A 
ATOM      4  C   UNL     1       2.089   8.381  18.602  0.00  0.00    +0.000 A 
ATOM      5  C   UNL     1       1.958   9.625  17.959  0.00  0.00    +0.000 A 
ATOM      6  C   UNL     1       1.315  10.777  18.564  0.00  0.00    +0.000 A 
ENDROOT
BRANCH   1   8
ATOM      7  O   UNL     1       0.474  13.068  20.382  0.00  0.00    +0.000 OA
ATOM      8  C   UNL     1      -0.008  11.942  20.520  0.00  0.00    +0.000 C 
ATOM      9  N   UNL     1      -1.134  11.694  21.304  0.00  0.00    +0.000 N 
ATOM     10  H   UNL     1      -1.610  10.824  21.108  0.00  0.00    +0.000 HD
BRANCH   9  11
ATOM     11  C   UNL     1      -2.023  12.697  22.055  0.00  0.00    +0.000 C 
ATOM     12  C   UNL     1      -2.864  12.131  23.217  0.00  0.00    +0.000 C 
ATOM     13  C   UNL     1      -3.880  13.140  23.776  0.00  0.00    +0.000 C 
ATOM     14  O   UNL     1      -4.702  13.688  22.748  0.00  0.00    +0.000 OA
ATOM     15  C   UNL     1      -3.929  14.428  21.801  0.00  0.00    +0.000 C 
ATOM     16  C   UNL     1      -2.937  13.505  21.081  0.00  0.00    +0.000 C 
BRANCH  16  17
ATOM     17  C   UNL     1      -3.721  12.601  20.140  0.00  0.00    +0.000 C 
ATOM     18  O   UNL     1      -3.160  11.917  19.282  0.00  0.00    +0.000 OA
ATOM     19  N   UNL     1      -5.088  12.566  20.302  0.00  0.00    +0.000 N 
ATOM     20  H   UNL     1      -5.582  13.344  20.746  0.00  0.00    +0.000 HD
BRANCH  19  21
ATOM     21  O   UNL     1      -5.807  11.829  19.343  0.00  0.00    +0.000 OA
ATOM     22  H   UNL     1      -6.452  11.333  19.895  0.00  0.00    +0.000 HD
ENDBRANCH  19  21
ENDBRANCH  16  17
ENDBRANCH   9  11
ENDBRANCH   1   8
BRANCH   4  23
ATOM     23  C   UNL     1       2.844   7.127  17.906  0.00  0.00    +0.000 C 
BRANCH  23  24
ATOM     24  C   UNL     1       3.613   6.062  18.797  0.00  0.00    +0.000 A 
ATOM     25  C   UNL     1       4.935   5.938  18.392  0.00  0.00    +0.000 A 
ATOM     26  C   UNL     1       5.222   4.633  18.053  0.00  0.00    +0.000 A 
ATOM     27  N   UNL     1       5.094   3.728  19.024  0.00  0.00    +0.000 NA
ATOM     28  C   UNL     1       3.954   3.799  19.682  0.00  0.00    +0.000 A 
ATOM     29  C   UNL     1       3.621   2.584  20.295  0.00  0.00    +0.000 A 
ATOM     30  C   UNL     1       2.486   2.435  21.061  0.00  0.00    +0.000 A 
ATOM     31  C   UNL     1       1.692   3.560  21.246  0.00  0.00    +0.000 A 
ATOM     32  C   UNL     1       1.969   4.777  20.549  0.00  0.00    +0.000 A 
ATOM     33  C   UNL     1       3.104   4.950  19.673  0.00  0.00    +0.000 A 
BRANCH  26  34
ATOM     34  C   UNL     1       4.734   4.127  16.687  0.00  0.00    +0.000 C 
ATOM     35  F   UNL     1       3.489   3.567  16.707  0.00  0.00    +0.000 F 
ATOM     36  F   UNL     1       4.693   5.107  15.749  0.00  0.00    +0.000 F 
ATOM     37  F   UNL     1       5.534   3.142  16.169  0.00  0.00    +0.000 F 
ENDBRANCH  26  34
ENDBRANCH  23  24
ENDBRANCH   4  23
TORSDOF 7
ENDMDL
MODEL 8
REMARK VINA RESULT:      -9.1      2.226      3.774
REMARK  Name = 
REMARK  7 active torsions:
REMARK  status: ('A' for Active; 'I' for Inactive)
REMARK    1  A    between atoms: C_2  and  C_14
REMARK    2  A    between atoms: N_3  and  C_4
REMARK    3  A    between atoms: C_9  and  C_10
REMARK    4  A    between atoms: N_12  and  O_13
REMARK    5  A    between atoms: C_17  and  C_18
REMARK    6  A    between atoms: C_18  and  C_19
REMARK    7  A    between atoms: C_21  and  C_22
REMARK                            x       y       z     vdW  Elec       q    Type
REMARK                         _______ _______ _______ _____ _____    ______ ____
ROOT
ATOM      1  C   UNL     1       0.521  10.088  20.334  0.00  0.00    +0.000 A 
ATOM      2  C   UNL     1       0.887  10.324  18.997  0.00  0.00    +0.000 A 
ATOM      3  C   UNL     1       1.710   9.400  18.231  0.00  0.00    +0.000 A 
ATOM      4  C   UNL     1       2.220   8.193  18.770  0.00  0.00    +0.000 A 
ATOM      5  C   UNL     1       1.818   7.956  20.096  0.00  0.00    +0.000 A 
ATOM      6  C   UNL     1       0.989   8.872  20.859  0.00  0.00    +0.000 A 
ENDROOT
BRANCH   1   8
ATOM      7  O   UNL     1      -0.066  11.262  22.343  0.00  0.00    +0.000 OA
ATOM      8  C   UNL     1      -0.318  11.140  21.143  0.00  0.00    +0.000 C 
ATOM      9  N   UNL     1      -1.358  11.825  20.517  0.00  0.00    +0.000 N 
ATOM     10  H   UNL     1      -1.286  11.888  19.510  0.00  0.00    +0.000 HD
BRANCH   9  11
ATOM     11  C   UNL     1      -2.310  12.877  21.107  0.00  0.00    +0.000 C 
ATOM     12  C   UNL     1      -3.686  13.015  20.427  0.00  0.00    +0.000 C 
ATOM     13  C   UNL     1      -4.493  14.223  20.930  0.00  0.00    +0.000 C 
ATOM     14  O   UNL     1      -3.741  15.431  20.849  0.00  0.00    +0.000 OA
ATOM     15  C   UNL     1      -2.584  15.384  21.686  0.00  0.00    +0.000 C 
ATOM     16  C   UNL     1      -1.629  14.278  21.218  0.00  0.00    +0.000 C 
BRANCH  16  17
ATOM     17  C   UNL     1      -0.993  14.717  19.907  0.00  0.00    +0.000 C 
ATOM     18  O   UNL     1      -0.152  14.024  19.331  0.00  0.00    +0.000 OA
ATOM     19  N   UNL     1      -1.414  15.918  19.379  0.00  0.00    +0.000 N 
ATOM     20  H   UNL     1      -1.828  16.635  19.980  0.00  0.00    +0.000 HD
BRANCH  19  21
ATOM     21  O   UNL     1      -0.726  16.370  18.240  0.00  0.00    +0.000 OA
ATOM     22  H   UNL     1       0.104  16.733  18.622  0.00  0.00    +0.000 HD
ENDBRANCH  19  21
ENDBRANCH  16  17
ENDBRANCH   9  11
ENDBRANCH   1   8
BRANCH   4  23
ATOM     23  C   UNL     1       3.118   7.130  17.939  0.00  0.00    +0.000 C 
BRANCH  23  24
ATOM     24  C   UNL     1       3.545   5.752  18.603  0.00  0.00    +0.000 A 
ATOM     25  C   UNL     1       4.925   5.607  18.601  0.00  0.00    +0.000 A 
ATOM     26  C   UNL     1       5.294   4.454  17.942  0.00  0.00    +0.000 A 
ATOM     27  N   UNL     1       4.849   3.309  18.458  0.00  0.00    +0.000 NA
ATOM     28  C   UNL     1       3.557   3.301  18.721  0.00  0.00    +0.000 A 
ATOM     29  C   UNL     1       3.031   2.003  18.751  0.00  0.00    +0.000 A 
ATOM     30  C   UNL     1       1.707   1.754  19.037  0.00  0.00    +0.000 A 
ATOM     31  C   UNL     1       0.906   2.847  19.344  0.00  0.00    +0.000 A 
ATOM     32  C   UNL     1       1.406   4.181  19.223  0.00  0.00    +0.000 A 
ATOM     33  C   UNL     1       2.767   4.487  18.848  0.00  0.00    +0.000 A 
BRANCH  26  34
ATOM     34  C   UNL     1       5.275   4.473  16.405  0.00  0.00    +0.000 C 
ATOM     35  F   UNL     1       6.296   3.779  15.822  0.00  0.00    +0.000 F 
ATOM     36  F   UNL     1       4.127   3.965  15.889  0.00  0.00    +0.000 F 
ATOM     37  F   UNL     1       5.394   5.738  15.889  0.00  0.00    +0.000 F 
ENDBRANCH  26  34
ENDBRANCH  23  24
ENDBRANCH   4  23
TORSDOF 7
ENDMDL
MODEL 9
REMARK VINA RESULT:      -9.1      2.358      3.745
REMARK  Name = 
REMARK  7 active torsions:
REMARK  status: ('A' for Active; 'I' for Inactive)
REMARK    1  A    between atoms: C_2  and  C_14
REMARK    2  A    between atoms: N_3  and  C_4
REMARK    3  A    between atoms: C_9  and  C_10
REMARK    4  A    between atoms: N_12  and  O_13
REMARK    5  A    between atoms: C_17  and  C_18
REMARK    6  A    between atoms: C_18  and  C_19
REMARK    7  A    between atoms: C_21  and  C_22
REMARK                            x       y       z     vdW  Elec       q    Type
REMARK                         _______ _______ _______ _____ _____    ______ ____
ROOT
ATOM      1  C   UNL     1       0.500  10.168  20.258  0.00  0.00    +0.000 A 
ATOM      2  C   UNL     1       0.817  10.585  18.953  0.00  0.00    +0.000 A 
ATOM      3  C   UNL     1       1.641   9.794  18.052  0.00  0.00    +0.000 A 
ATOM      4  C   UNL     1       2.202   8.545  18.416  0.00  0.00    +0.000 A 
ATOM      5  C   UNL     1       1.847   8.127  19.710  0.00  0.00    +0.000 A 
ATOM      6  C   UNL     1       1.018   8.910  20.608  0.00  0.00    +0.000 A 
ENDROOT
BRANCH   1   8
ATOM      7  O   UNL     1      -0.027  11.090  22.410  0.00  0.00    +0.000 OA
ATOM      8  C   UNL     1      -0.343  11.080  21.219  0.00  0.00    +0.000 C 
ATOM      9  N   UNL     1      -1.452  11.766  20.726  0.00  0.00    +0.000 N 
ATOM     10  H   UNL     1      -1.442  11.938  19.729  0.00  0.00    +0.000 HD
BRANCH   9  11
ATOM     11  C   UNL     1      -2.420  12.695  21.476  0.00  0.00    +0.000 C 
ATOM     12  C   UNL     1      -3.848  12.801  20.905  0.00  0.00    +0.000 C 
ATOM     13  C   UNL     1      -4.687  13.902  21.574  0.00  0.00    +0.000 C 
ATOM     14  O   UNL     1      -4.017  15.161  21.557  0.00  0.00    +0.000 OA
ATOM     15  C   UNL     1      -2.801  15.116  22.306  0.00  0.00    +0.000 C 
ATOM     16  C   UNL     1      -1.818  14.122  21.672  0.00  0.00    +0.000 C 
BRANCH  16  17
ATOM     17  C   UNL     1      -1.307  14.720  20.369  0.00  0.00    +0.000 C 
ATOM     18  O   UNL     1      -0.437  14.161  19.699  0.00  0.00    +0.000 OA
ATOM     19  N   UNL     1      -1.875  15.906  19.960  0.00  0.00    +0.000 N 
ATOM     20  H   UNL     1      -2.322  16.531  20.636  0.00  0.00    +0.000 HD
BRANCH  19  21
ATOM     21  O   UNL     1      -1.303  16.509  18.826  0.00  0.00    +0.000 OA
ATOM     22  H   UNL     1      -1.769  16.059  18.087  0.00  0.00    +0.000 HD
ENDBRANCH  19  21
ENDBRANCH  16  17
ENDBRANCH   9  11
ENDBRANCH   1   8
BRANCH   4  23
ATOM     23  C   UNL     1       3.103   7.626  17.430  0.00  0.00    +0.000 C 
BRANCH  23  24
ATOM     24  C   UNL     1       3.701   6.249  17.945  0.00  0.00    +0.000 A 
ATOM     25  C   UNL     1       5.089   6.277  17.939  0.00  0.00    +0.000 A 
ATOM     26  C   UNL     1       5.595   5.257  17.163  0.00  0.00    +0.000 A 
ATOM     27  N   UNL     1       5.298   4.017  17.550  0.00  0.00    +0.000 NA
ATOM     28  C   UNL     1       4.019   3.820  17.801  0.00  0.00    +0.000 A 
ATOM     29  C   UNL     1       3.659   2.471  17.687  0.00  0.00    +0.000 A 
ATOM     30  C   UNL     1       2.378   2.030  17.935  0.00  0.00    +0.000 A 
ATOM     31  C   UNL     1       1.450   2.975  18.351  0.00  0.00    +0.000 A 
ATOM     32  C   UNL     1       1.779   4.366  18.378  0.00  0.00    +0.000 A 
ATOM     33  C   UNL     1       3.088   4.878  18.048  0.00  0.00    +0.000 A 
BRANCH  26  34
ATOM     34  C   UNL     1       5.564   5.438  15.637  0.00  0.00    +0.000 C 
ATOM     35  F   UNL     1       5.038   6.629  15.224  0.00  0.00    +0.000 F 
ATOM     36  F   UNL     1       6.796   5.353  15.074  0.00  0.00    +0.000 F 
ATOM     37  F   UNL     1       4.794   4.496  15.006  0.00  0.00    +0.000 F 
ENDBRANCH  26  34
ENDBRANCH  23  24
ENDBRANCH   4  23
TORSDOF 7
ENDMDL
