MODEL 1
REMARK VINA RESULT:      -8.7      0.000      0.000
REMARK  Name = 
REMARK  5 active torsions:
REMARK  status: ('A' for Active; 'I' for Inactive)
REMARK    1  A    between atoms: C_1  and  N_2
REMARK    2  A    between atoms: C_3  and  C_5
REMARK    3  A    between atoms: C_5  and  C_6
REMARK    4  A    between atoms: C_6  and  N_7
REMARK    5  A    between atoms: C_9  and  C_10
REMARK                            x       y       z     vdW  Elec       q    Type
REMARK                         _______ _______ _______ _____ _____    ______ ____
ROOT
ATOM      1  N   UNL     1       5.073   5.155  18.440  0.00  0.00    +0.000 N 
ATOM      2  N   UNL     1       4.258   6.256  18.470  0.00  0.00    +0.000 NA
ATOM      3  C   UNL     1       3.112   6.211  19.084  0.00  0.00    +0.000 A 
ATOM      4  C   UNL     1       2.623   4.963  19.737  0.00  0.00    +0.000 A 
ATOM      5  C   UNL     1       1.333   4.792  20.261  0.00  0.00    +0.000 A 
ATOM      6  C   UNL     1       0.972   3.612  20.916  0.00  0.00    +0.000 A 
ATOM      7  C   UNL     1       1.875   2.559  21.001  0.00  0.00    +0.000 A 
ATOM      8  C   UNL     1       3.135   2.689  20.425  0.00  0.00    +0.000 A 
ATOM      9  C   UNL     1       3.504   3.888  19.795  0.00  0.00    +0.000 A 
ATOM     10  C   UNL     1       4.815   3.978  19.134  0.00  0.00    +0.000 A 
ATOM     11  O   UNL     1       5.573   3.016  19.166  0.00  0.00    +0.000 OA
ENDROOT
BRANCH   3  12
ATOM     12  C   UNL     1       2.316   7.482  19.104  0.00  0.00    +0.000 A 
ATOM     13  C   UNL     1       2.168   8.207  17.911  0.00  0.00    +0.000 A 
ATOM     14  C   UNL     1       1.442   9.404  17.894  0.00  0.00    +0.000 A 
ATOM     15  C   UNL     1       0.847   9.871  19.065  0.00  0.00    +0.000 A 
ATOM     16 CL   UNL     1      -0.052  11.337  19.052  0.00  0.00    +0.000 Cl
ATOM     17  C   UNL     1       0.996   9.169  20.258  0.00  0.00    +0.000 A 
ATOM     18  C   UNL     1       1.766   8.004  20.284  0.00  0.00    +0.000 A 
ENDBRANCH   3  12
BRANCH   1  19
ATOM     19  C   UNL     1       6.306   5.294  17.662  0.00  0.00    +0.000 C 
BRANCH  19  20
ATOM     20  C   UNL     1       7.435   5.966  18.439  0.00  0.00    +0.000 C 
BRANCH  20  23
ATOM     21  C   UNL     1       8.778   9.500  18.413  0.00  0.00    +0.000 C 
ATOM     22  N   UNL     1       8.427   8.151  18.773  0.00  0.00    +0.000 N 
ATOM     23  C   UNL     1       7.697   7.358  17.916  0.00  0.00    +0.000 C 
ATOM     24  O   UNL     1       7.273   7.743  16.830  0.00  0.00    +0.000 OA
ATOM     25  H   UNL     1       8.849   7.735  19.594  0.00  0.00    +0.000 HD
ENDBRANCH  20  23
ENDBRANCH  19  20
ENDBRANCH   1  19
TORSDOF 4
ENDMDL
MODEL 2
REMARK VINA RESULT:      -8.6      1.643      2.006
REMARK  Name = 
REMARK  5 active torsions:
REMARK  status: ('A' for Active; 'I' for Inactive)
REMARK    1  A    between atoms: C_1  and  N_2
REMARK    2  A    between atoms: C_3  and  C_5
REMARK    3  A    between atoms: C_5  and  C_6
REMARK    4  A    between atoms: C_6  and  N_7
REMARK    5  A    between atoms: C_9  and  C_10
REMARK                            x       y       z     vdW  Elec       q    Type
REMARK                         _______ _______ _______ _____ _____    ______ ____
ROOT
ATOM      1  N   UNL     1       5.289   5.141  19.295  0.00  0.00    +0.000 N 
ATOM      2  N   UNL     1       4.467   6.235  19.230  0.00  0.00    +0.000 NA
ATOM      3  C   UNL     1       3.179   6.085  19.116  0.00  0.00    +0.000 A 
ATOM      4  C   UNL     1       2.555   4.735  19.011  0.00  0.00    +0.000 A 
ATOM      5  C   UNL     1       1.204   4.504  18.713  0.00  0.00    +0.000 A 
ATOM      6  C   UNL     1       0.681   3.209  18.697  0.00  0.00    +0.000 A 
ATOM      7  C   UNL     1       1.516   2.118  18.914  0.00  0.00    +0.000 A 
ATOM      8  C   UNL     1       2.872   2.329  19.143  0.00  0.00    +0.000 A 
ATOM      9  C   UNL     1       3.387   3.635  19.190  0.00  0.00    +0.000 A 
ATOM     10  C   UNL     1       4.834   3.829  19.365  0.00  0.00    +0.000 A 
ATOM     11  O   UNL     1       5.562   2.853  19.492  0.00  0.00    +0.000 OA
ENDROOT
BRANCH   3  12
ATOM     12  C   UNL     1       2.360   7.341  19.103  0.00  0.00    +0.000 A 
ATOM     13  C   UNL     1       2.256   8.070  17.907  0.00  0.00    +0.000 A 
ATOM     14  C   UNL     1       1.510   9.254  17.861  0.00  0.00    +0.000 A 
ATOM     15  C   UNL     1       0.851   9.704  19.004  0.00  0.00    +0.000 A 
ATOM     16 CL   UNL     1      -0.073  11.154  18.954  0.00  0.00    +0.000 Cl
ATOM     17  C   UNL     1       0.955   8.999  20.199  0.00  0.00    +0.000 A 
ATOM     18  C   UNL     1       1.744   7.847  20.258  0.00  0.00    +0.000 A 
ENDBRANCH   3  12
BRANCH   1  19
ATOM     19  C   UNL     1       6.725   5.425  19.351  0.00  0.00    +0.000 C 
BRANCH  19  20
ATOM     20  C   UNL     1       7.237   6.180  18.126  0.00  0.00    +0.000 C 
BRANCH  20  23
ATOM     21  C   UNL     1       6.717   4.901  14.607  0.00  0.00    +0.000 C 
ATOM     22  N   UNL     1       6.674   5.663  15.826  0.00  0.00    +0.000 N 
ATOM     23  C   UNL     1       7.374   5.255  16.940  0.00  0.00    +0.000 C 
ATOM     24  O   UNL     1       8.037   4.222  16.984  0.00  0.00    +0.000 OA
ATOM     25  H   UNL     1       6.250   6.583  15.819  0.00  0.00    +0.000 HD
ENDBRANCH  20  23
ENDBRANCH  19  20
ENDBRANCH   1  19
TORSDOF 4
ENDMDL
MODEL 3
REMARK VINA RESULT:      -8.6      1.401      1.873
REMARK  Name = 
REMARK  5 active torsions:
REMARK  status: ('A' for Active; 'I' for Inactive)
REMARK    1  A    between atoms: C_1  and  N_2
REMARK    2  A    between atoms: C_3  and  C_5
REMARK    3  A    between atoms: C_5  and  C_6
REMARK    4  A    between atoms: C_6  and  N_7
REMARK    5  A    between atoms: C_9  and  C_10
REMARK                            x       y       z     vdW  Elec       q    Type
REMARK                         _______ _______ _______ _____ _____    ______ ____
ROOT
ATOM      1  N   UNL     1       5.107   5.232  18.866  0.00  0.00    +0.000 N 
ATOM      2  N   UNL     1       4.287   6.328  18.842  0.00  0.00    +0.000 NA
ATOM      3  C   UNL     1       3.051   6.236  19.240  0.00  0.00    +0.000 A 
ATOM      4  C   UNL     1       2.471   4.939  19.692  0.00  0.00    +0.000 A 
ATOM      5  C   UNL     1       1.111   4.727  19.965  0.00  0.00    +0.000 A 
ATOM      6  C   UNL     1       0.655   3.499  20.448  0.00  0.00    +0.000 A 
ATOM      7  C   UNL     1       1.543   2.440  20.604  0.00  0.00    +0.000 A 
ATOM      8  C   UNL     1       2.883   2.614  20.272  0.00  0.00    +0.000 A 
ATOM      9  C   UNL     1       3.341   3.861  19.817  0.00  0.00    +0.000 A 
ATOM     10  C   UNL     1       4.747   4.002  19.406  0.00  0.00    +0.000 A 
ATOM     11  O   UNL     1       5.498   3.039  19.492  0.00  0.00    +0.000 OA
ENDROOT
BRANCH   3  12
ATOM     12  C   UNL     1       2.248   7.502  19.224  0.00  0.00    +0.000 A 
ATOM     13  C   UNL     1       2.102   8.196  18.011  0.00  0.00    +0.000 A 
ATOM     14  C   UNL     1       1.370   9.388  17.961  0.00  0.00    +0.000 A 
ATOM     15  C   UNL     1       0.766   9.881  19.116  0.00  0.00    +0.000 A 
ATOM     16 CL   UNL     1      -0.140  11.341  19.061  0.00  0.00    +0.000 Cl
ATOM     17  C   UNL     1       0.912   9.210  20.327  0.00  0.00    +0.000 A 
ATOM     18  C   UNL     1       1.688   8.050  20.387  0.00  0.00    +0.000 A 
ENDBRANCH   3  12
BRANCH   1  19
ATOM     19  C   UNL     1       6.456   5.432  18.331  0.00  0.00    +0.000 C 
BRANCH  19  20
ATOM     20  C   UNL     1       6.550   6.609  17.362  0.00  0.00    +0.000 C 
BRANCH  20  23
ATOM     21  C   UNL     1       7.038   4.787  14.086  0.00  0.00    +0.000 C 
ATOM     22  N   UNL     1       7.188   5.312  15.417  0.00  0.00    +0.000 N 
ATOM     23  C   UNL     1       6.251   6.170  15.949  0.00  0.00    +0.000 C 
ATOM     24  O   UNL     1       5.267   6.567  15.331  0.00  0.00    +0.000 OA
ATOM     25  H   UNL     1       7.907   4.930  16.020  0.00  0.00    +0.000 HD
ENDBRANCH  20  23
ENDBRANCH  19  20
ENDBRANCH   1  19
TORSDOF 4
ENDMDL
MODEL 4
REMARK VINA RESULT:      -8.6      1.561      1.613
REMARK  Name = 
REMARK  5 active torsions:
REMARK  status: ('A' for Active; 'I' for Inactive)
REMARK    1  A    between atoms: C_1  and  N_2
REMARK    2  A    between atoms: C_3  and  C_5
REMARK    3  A    between atoms: C_5  and  C_6
REMARK    4  A    between atoms: C_6  and  N_7
REMARK    5  A    between atoms: C_9  and  C_10
REMARK                            x       y       z     vdW  Elec       q    Type
REMARK                         _______ _______ _______ _____ _____    ______ ____
ROOT
ATOM      1  N   UNL     1       4.614   5.492  16.791  0.00  0.00    +0.000 N 
ATOM      2  N   UNL     1       3.901   6.488  17.404  0.00  0.00    +0.000 NA
ATOM      3  C   UNL     1       2.909   6.198  18.195  0.00  0.00    +0.000 A 
ATOM      4  C   UNL     1       2.484   4.789  18.431  0.00  0.00    +0.000 A 
ATOM      5  C   UNL     1       1.324   4.412  19.124  0.00  0.00    +0.000 A 
ATOM      6  C   UNL     1       1.029   3.068  19.360  0.00  0.00    +0.000 A 
ATOM      7  C   UNL     1       1.856   2.074  18.849  0.00  0.00    +0.000 A 
ATOM      8  C   UNL     1       2.973   2.431  18.099  0.00  0.00    +0.000 A 
ATOM      9  C   UNL     1       3.283   3.785  17.892  0.00  0.00    +0.000 A 
ATOM     10  C   UNL     1       4.429   4.137  17.040  0.00  0.00    +0.000 A 
ATOM     11  O   UNL     1       5.109   3.245  16.547  0.00  0.00    +0.000 OA
ENDROOT
BRANCH   3  12
ATOM     12  C   UNL     1       2.223   7.356  18.857  0.00  0.00    +0.000 A 
ATOM     13  C   UNL     1       1.876   8.472  18.080  0.00  0.00    +0.000 A 
ATOM     14  C   UNL     1       1.246   9.576  18.667  0.00  0.00    +0.000 A 
ATOM     15  C   UNL     1       0.945   9.561  20.027  0.00  0.00    +0.000 A 
ATOM     16 CL   UNL     1       0.165  10.910  20.755  0.00  0.00    +0.000 Cl
ATOM     17  C   UNL     1       1.294   8.466  20.812  0.00  0.00    +0.000 A 
ATOM     18  C   UNL     1       1.971   7.388  20.236  0.00  0.00    +0.000 A 
ENDBRANCH   3  12
BRANCH   1  19
ATOM     19  C   UNL     1       5.663   5.932  15.868  0.00  0.00    +0.000 C 
BRANCH  19  20
ATOM     20  C   UNL     1       7.073   5.670  16.391  0.00  0.00    +0.000 C 
BRANCH  20  23
ATOM     21  C   UNL     1       8.090   8.941  17.990  0.00  0.00    +0.000 C 
ATOM     22  N   UNL     1       7.748   7.900  17.058  0.00  0.00    +0.000 N 
ATOM     23  C   UNL     1       7.427   6.634  17.497  0.00  0.00    +0.000 C 
ATOM     24  O   UNL     1       7.445   6.303  18.680  0.00  0.00    +0.000 OA
ATOM     25  H   UNL     1       7.596   8.139  16.085  0.00  0.00    +0.000 HD
ENDBRANCH  20  23
ENDBRANCH  19  20
ENDBRANCH   1  19
TORSDOF 4
ENDMDL
MODEL 5
REMARK VINA RESULT:      -8.5      1.641      1.722
REMARK  Name = 
REMARK  5 active torsions:
REMARK  status: ('A' for Active; 'I' for Inactive)
REMARK    1  A    between atoms: C_1  and  N_2
REMARK    2  A    between atoms: C_3  and  C_5
REMARK    3  A    between atoms: C_5  and  C_6
REMARK    4  A    between atoms: C_6  and  N_7
REMARK    5  A    between atoms: C_9  and  C_10
REMARK                            x       y       z     vdW  Elec       q    Type
REMARK                         _______ _______ _______ _____ _____    ______ ____
ROOT
ATOM      1  N   UNL     1       5.540   6.074  17.260  0.00  0.00    +0.000 N 
ATOM      2  N   UNL     1       4.610   6.970  17.717  0.00  0.00    +0.000 NA
ATOM      3  C   UNL     1       3.422   6.568  18.062  0.00  0.00    +0.000 A 
ATOM      4  C   UNL     1       3.012   5.140  17.935  0.00  0.00    +0.000 A 
ATOM      5  C   UNL     1       1.704   4.667  18.119  0.00  0.00    +0.000 A 
ATOM      6  C   UNL     1       1.414   3.303  18.046  0.00  0.00    +0.000 A 
ATOM      7  C   UNL     1       2.415   2.395  17.723  0.00  0.00    +0.000 A 
ATOM      8  C   UNL     1       3.703   2.856  17.469  0.00  0.00    +0.000 A 
ATOM      9  C   UNL     1       3.997   4.225  17.575  0.00  0.00    +0.000 A 
ATOM     10  C   UNL     1       5.348   4.698  17.236  0.00  0.00    +0.000 A 
ATOM     11  O   UNL     1       6.200   3.888  16.892  0.00  0.00    +0.000 OA
ENDROOT
BRANCH   3  12
ATOM     12  C   UNL     1       2.492   7.615  18.597  0.00  0.00    +0.000 A 
ATOM     13  C   UNL     1       2.059   8.639  17.739  0.00  0.00    +0.000 A 
ATOM     14  C   UNL     1       1.201   9.641  18.208  0.00  0.00    +0.000 A 
ATOM     15  C   UNL     1       0.758   9.614  19.529  0.00  0.00    +0.000 A 
ATOM     16 CL   UNL     1      -0.301  10.837  20.111  0.00  0.00    +0.000 Cl
ATOM     17  C   UNL     1       1.189   8.612  20.394  0.00  0.00    +0.000 A 
ATOM     18  C   UNL     1       2.089   7.644  19.940  0.00  0.00    +0.000 A 
ENDBRANCH   3  12
BRANCH   1  19
ATOM     19  C   UNL     1       6.821   6.645  16.833  0.00  0.00    +0.000 C 
BRANCH  19  20
ATOM     20  C   UNL     1       7.743   6.991  18.000  0.00  0.00    +0.000 C 
BRANCH  20  23
ATOM     21  C   UNL     1       9.284  10.225  19.205  0.00  0.00    +0.000 C 
ATOM     22  N   UNL     1       8.891   8.850  19.047  0.00  0.00    +0.000 N 
ATOM     23  C   UNL     1       8.035   8.471  18.036  0.00  0.00    +0.000 C 
ATOM     24  O   UNL     1       7.532   9.261  17.242  0.00  0.00    +0.000 OA
ATOM     25  H   UNL     1       9.364   8.136  19.588  0.00  0.00    +0.000 HD
ENDBRANCH  20  23
ENDBRANCH  19  20
ENDBRANCH   1  19
TORSDOF 4
ENDMDL
MODEL 6
REMARK VINA RESULT:      -8.5      1.456      2.281
REMARK  Name = 
REMARK  5 active torsions:
REMARK  status: ('A' for Active; 'I' for Inactive)
REMARK    1  A    between atoms: C_1  and  N_2
REMARK    2  A    between atoms: C_3  and  C_5
REMARK    3  A    between atoms: C_5  and  C_6
REMARK    4  A    between atoms: C_6  and  N_7
REMARK    5  A    between atoms: C_9  and  C_10
REMARK                            x       y       z     vdW  Elec       q    Type
REMARK                         _______ _______ _______ _____ _____    ______ ____
ROOT
ATOM      1  N   UNL     1       5.137   5.103  18.826  0.00  0.00    +0.000 N 
ATOM      2  N   UNL     1       4.344   6.219  18.776  0.00  0.00    +0.000 NA
ATOM      3  C   UNL     1       3.107   6.167  19.177  0.00  0.00    +0.000 A 
ATOM      4  C   UNL     1       2.496   4.896  19.661  0.00  0.00    +0.000 A 
ATOM      5  C   UNL     1       1.131   4.725  19.940  0.00  0.00    +0.000 A 
ATOM      6  C   UNL     1       0.646   3.520  20.454  0.00  0.00    +0.000 A 
ATOM      7  C   UNL     1       1.507   2.444  20.635  0.00  0.00    +0.000 A 
ATOM      8  C   UNL     1       2.851   2.577  20.297  0.00  0.00    +0.000 A 
ATOM      9  C   UNL     1       3.340   3.801  19.811  0.00  0.00    +0.000 A 
ATOM     10  C   UNL     1       4.747   3.897  19.396  0.00  0.00    +0.000 A 
ATOM     11  O   UNL     1       5.475   2.918  19.505  0.00  0.00    +0.000 OA
ENDROOT
BRANCH   3  12
ATOM     12  C   UNL     1       2.336   7.452  19.130  0.00  0.00    +0.000 A 
ATOM     13  C   UNL     1       1.749   7.934  20.312  0.00  0.00    +0.000 A 
ATOM     14  C   UNL     1       1.012   9.123  20.304  0.00  0.00    +0.000 A 
ATOM     15  C   UNL     1       0.873   9.845  19.119  0.00  0.00    +0.000 A 
ATOM     16 CL   UNL     1      -0.026  11.311  19.102  0.00  0.00    +0.000 Cl
ATOM     17  C   UNL     1       1.438   9.374  17.938  0.00  0.00    +0.000 A 
ATOM     18  C   UNL     1       2.127   8.158  17.937  0.00  0.00    +0.000 A 
ENDBRANCH   3  12
BRANCH   1  19
ATOM     19  C   UNL     1       6.490   5.257  18.285  0.00  0.00    +0.000 C 
BRANCH  19  20
ATOM     20  C   UNL     1       6.588   6.334  17.207  0.00  0.00    +0.000 C 
BRANCH  20  23
ATOM     21  C   UNL     1       6.338   3.995  14.249  0.00  0.00    +0.000 C 
ATOM     22  N   UNL     1       6.703   4.634  15.485  0.00  0.00    +0.000 N 
ATOM     23  C   UNL     1       6.106   5.812  15.876  0.00  0.00    +0.000 C 
ATOM     24  O   UNL     1       5.270   6.405  15.199  0.00  0.00    +0.000 OA
ATOM     25  H   UNL     1       7.291   4.136  16.143  0.00  0.00    +0.000 HD
ENDBRANCH  20  23
ENDBRANCH  19  20
ENDBRANCH   1  19
TORSDOF 4
ENDMDL
MODEL 7
REMARK VINA RESULT:      -8.5      1.640      2.250
REMARK  Name = 
REMARK  5 active torsions:
REMARK  status: ('A' for Active; 'I' for Inactive)
REMARK    1  A    between atoms: C_1  and  N_2
REMARK    2  A    between atoms: C_3  and  C_5
REMARK    3  A    between atoms: C_5  and  C_6
REMARK    4  A    between atoms: C_6  and  N_7
REMARK    5  A    between atoms: C_9  and  C_10
REMARK                            x       y       z     vdW  Elec       q    Type
REMARK                         _______ _______ _______ _____ _____    ______ ____
ROOT
ATOM      1  N   UNL     1       5.311   5.077  19.296  0.00  0.00    +0.000 N 
ATOM      2  N   UNL     1       4.508   6.184  19.204  0.00  0.00    +0.000 NA
ATOM      3  C   UNL     1       3.221   6.054  19.068  0.00  0.00    +0.000 A 
ATOM      4  C   UNL     1       2.576   4.714  18.965  0.00  0.00    +0.000 A 
ATOM      5  C   UNL     1       1.227   4.502  18.644  0.00  0.00    +0.000 A 
ATOM      6  C   UNL     1       0.683   3.215  18.631  0.00  0.00    +0.000 A 
ATOM      7  C   UNL     1       1.494   2.114  18.876  0.00  0.00    +0.000 A 
ATOM      8  C   UNL     1       2.850   2.304  19.128  0.00  0.00    +0.000 A 
ATOM      9  C   UNL     1       3.386   3.601  19.171  0.00  0.00    +0.000 A 
ATOM     10  C   UNL     1       4.833   3.774  19.371  0.00  0.00    +0.000 A 
ATOM     11  O   UNL     1       5.541   2.786  19.522  0.00  0.00    +0.000 OA
ENDROOT
BRANCH   3  12
ATOM     12  C   UNL     1       2.423   7.324  19.027  0.00  0.00    +0.000 A 
ATOM     13  C   UNL     1       1.808   7.776  20.206  0.00  0.00    +0.000 A 
ATOM     14  C   UNL     1       1.046   8.950  20.203  0.00  0.00    +0.000 A 
ATOM     15  C   UNL     1       0.911   9.686  19.027  0.00  0.00    +0.000 A 
ATOM     16 CL   UNL     1      -0.018  11.133  19.015  0.00  0.00    +0.000 Cl
ATOM     17  C   UNL     1       1.505   9.244  17.848  0.00  0.00    +0.000 A 
ATOM     18  C   UNL     1       2.220   8.043  17.841  0.00  0.00    +0.000 A 
ENDBRANCH   3  12
BRANCH   1  19
ATOM     19  C   UNL     1       6.750   5.337  19.376  0.00  0.00    +0.000 C 
BRANCH  19  20
ATOM     20  C   UNL     1       7.287   6.119  18.179  0.00  0.00    +0.000 C 
BRANCH  20  23
ATOM     21  C   UNL     1       5.683   5.069  14.921  0.00  0.00    +0.000 C 
ATOM     22  N   UNL     1       5.989   5.703  16.176  0.00  0.00    +0.000 N 
ATOM     23  C   UNL     1       7.103   5.340  16.899  0.00  0.00    +0.000 C 
ATOM     24  O   UNL     1       7.874   4.448  16.554  0.00  0.00    +0.000 OA
ATOM     25  H   UNL     1       5.466   6.525  16.453  0.00  0.00    +0.000 HD
ENDBRANCH  20  23
ENDBRANCH  19  20
ENDBRANCH   1  19
TORSDOF 4
ENDMDL
MODEL 8
REMARK VINA RESULT:      -8.4      1.694      2.512
REMARK  Name = 
REMARK  5 active torsions:
REMARK  status: ('A' for Active; 'I' for Inactive)
REMARK    1  A    between atoms: C_1  and  N_2
REMARK    2  A    between atoms: C_3  and  C_5
REMARK    3  A    between atoms: C_5  and  C_6
REMARK    4  A    between atoms: C_6  and  N_7
REMARK    5  A    between atoms: C_9  and  C_10
REMARK                            x       y       z     vdW  Elec       q    Type
REMARK                         _______ _______ _______ _____ _____    ______ ____
ROOT
ATOM      1  N   UNL     1       4.924   5.616  18.315  0.00  0.00    +0.000 N 
ATOM      2  N   UNL     1       4.031   6.643  18.466  0.00  0.00    +0.000 NA
ATOM      3  C   UNL     1       2.951   6.479  19.173  0.00  0.00    +0.000 A 
ATOM      4  C   UNL     1       2.623   5.169  19.805  0.00  0.00    +0.000 A 
ATOM      5  C   UNL     1       1.402   4.869  20.429  0.00  0.00    +0.000 A 
ATOM      6  C   UNL     1       1.196   3.639  21.056  0.00  0.00    +0.000 A 
ATOM      7  C   UNL     1       2.184   2.662  21.013  0.00  0.00    +0.000 A 
ATOM      8  C   UNL     1       3.374   2.919  20.339  0.00  0.00    +0.000 A 
ATOM      9  C   UNL     1       3.589   4.170  19.738  0.00  0.00    +0.000 A 
ATOM     10  C   UNL     1       4.824   4.395  18.972  0.00  0.00    +0.000 A 
ATOM     11  O   UNL     1       5.656   3.499  18.894  0.00  0.00    +0.000 OA
ENDROOT
BRANCH   3  12
ATOM     12  C   UNL     1       2.061   7.677  19.321  0.00  0.00    +0.000 A 
ATOM     13  C   UNL     1       1.803   8.472  18.193  0.00  0.00    +0.000 A 
ATOM     14  C   UNL     1       0.987   9.605  18.296  0.00  0.00    +0.000 A 
ATOM     15  C   UNL     1       0.412   9.937  19.522  0.00  0.00    +0.000 A 
ATOM     16 CL   UNL     1      -0.596  11.323  19.656  0.00  0.00    +0.000 Cl
ATOM     17  C   UNL     1       0.669   9.165  20.651  0.00  0.00    +0.000 A 
ATOM     18  C   UNL     1       1.527   8.066  20.558  0.00  0.00    +0.000 A 
ENDBRANCH   3  12
BRANCH   1  19
ATOM     19  C   UNL     1       6.069   5.889  17.442  0.00  0.00    +0.000 C 
BRANCH  19  20
ATOM     20  C   UNL     1       5.680   6.059  15.975  0.00  0.00    +0.000 C 
BRANCH  20  23
ATOM     21  C   UNL     1       6.203   3.591  13.160  0.00  0.00    +0.000 C 
ATOM     22  N   UNL     1       5.646   4.536  14.091  0.00  0.00    +0.000 N 
ATOM     23  C   UNL     1       6.413   5.068  15.104  0.00  0.00    +0.000 C 
ATOM     24  O   UNL     1       7.583   4.755  15.303  0.00  0.00    +0.000 OA
ATOM     25  H   UNL     1       4.729   4.926  13.908  0.00  0.00    +0.000 HD
ENDBRANCH  20  23
ENDBRANCH  19  20
ENDBRANCH   1  19
TORSDOF 4
ENDMDL
MODEL 9
REMARK VINA RESULT:      -8.4      1.093      1.144
REMARK  Name = 
REMARK  5 active torsions:
REMARK  status: ('A' for Active; 'I' for Inactive)
REMARK    1  A    between atoms: C_1  and  N_2
REMARK    2  A    between atoms: C_3  and  C_5
REMARK    3  A    between atoms: C_5  and  C_6
REMARK    4  A    between atoms: C_6  and  N_7
REMARK    5  A    between atoms: C_9  and  C_10
REMARK                            x       y       z     vdW  Elec       q    Type
REMARK                         _______ _______ _______ _____ _____    ______ ____
ROOT
ATOM      1  N   UNL     1       5.241   4.740  19.274  0.00  0.00    +0.000 N 
ATOM      2  N   UNL     1       4.506   5.893  19.185  0.00  0.00    +0.000 NA
ATOM      3  C   UNL     1       3.207   5.843  19.133  0.00  0.00    +0.000 A 
ATOM      4  C   UNL     1       2.473   4.546  19.125  0.00  0.00    +0.000 A 
ATOM      5  C   UNL     1       1.096   4.411  18.896  0.00  0.00    +0.000 A 
ATOM      6  C   UNL     1       0.472   3.163  18.969  0.00  0.00    +0.000 A 
ATOM      7  C   UNL     1       1.226   2.021  19.209  0.00  0.00    +0.000 A 
ATOM      8  C   UNL     1       2.604   2.130  19.370  0.00  0.00    +0.000 A 
ATOM      9  C   UNL     1       3.222   3.390  19.327  0.00  0.00    +0.000 A 
ATOM     10  C   UNL     1       4.687   3.475  19.431  0.00  0.00    +0.000 A 
ATOM     11  O   UNL     1       5.340   2.449  19.579  0.00  0.00    +0.000 OA
ENDROOT
BRANCH   3  12
ATOM     12  C   UNL     1       2.490   7.160  19.088  0.00  0.00    +0.000 A 
ATOM     13  C   UNL     1       2.522   7.908  17.900  0.00  0.00    +0.000 A 
ATOM     14  C   UNL     1       1.875   9.147  17.825  0.00  0.00    +0.000 A 
ATOM     15  C   UNL     1       1.180   9.635  18.930  0.00  0.00    +0.000 A 
ATOM     16 CL   UNL     1       0.377  11.153  18.845  0.00  0.00    +0.000 Cl
ATOM     17  C   UNL     1       1.150   8.910  20.118  0.00  0.00    +0.000 A 
ATOM     18  C   UNL     1       1.842   7.700  20.208  0.00  0.00    +0.000 A 
ENDBRANCH   3  12
BRANCH   1  19
ATOM     19  C   UNL     1       6.696   4.907  19.255  0.00  0.00    +0.000 C 
BRANCH  19  20
ATOM     20  C   UNL     1       7.299   4.772  17.859  0.00  0.00    +0.000 C 
BRANCH  20  23
ATOM     21  C   UNL     1       7.751   8.518  17.633  0.00  0.00    +0.000 C 
ATOM     22  N   UNL     1       7.573   7.167  18.096  0.00  0.00    +0.000 N 
ATOM     23  C   UNL     1       7.459   6.123  17.205  0.00  0.00    +0.000 C 
ATOM     24  O   UNL     1       7.463   6.269  15.986  0.00  0.00    +0.000 OA
ATOM     25  H   UNL     1       7.685   6.966  19.083  0.00  0.00    +0.000 HD
ENDBRANCH  20  23
ENDBRANCH  19  20
ENDBRANCH   1  19
TORSDOF 4
ENDMDL
