MODEL 1
REMARK VINA RESULT:      -6.9      0.000      0.000
REMARK  Name = 
REMARK  4 active torsions:
REMARK  status: ('A' for Active; 'I' for Inactive)
REMARK    1  A    between atoms: C_1  and  C_2
REMARK    2  A    between atoms: C_8  and  O_9
REMARK    3  A    between atoms: O_9  and  C_10
REMARK    4  A    between atoms: C_10  and  C_11
REMARK                            x       y       z     vdW  Elec       q    Type
REMARK                         _______ _______ _______ _____ _____    ______ ____
ROOT
ATOM      1  C   UNL     1       5.051   3.534  19.418  0.00  0.00    +0.000 C 
ATOM      2  C   UNL     1       5.773   4.740  18.901  0.00  0.00    +0.000 A 
ATOM      3  O   UNL     1       7.009   4.886  19.523  0.00  0.00    +0.000 OA
ATOM      4  C   UNL     1       7.891   5.818  19.057  0.00  0.00    +0.000 A 
ATOM      5  C   UNL     1       7.628   6.676  18.071  0.00  0.00    +0.000 A 
ATOM      6  C   UNL     1       6.297   6.623  17.444  0.00  0.00    +0.000 A 
ATOM      7  O   UNL     1       6.004   7.439  16.575  0.00  0.00    +0.000 OA
ATOM      8  C   UNL     1       5.348   5.553  17.904  0.00  0.00    +0.000 A 
ENDROOT
BRANCH   8   9
ATOM      9  O   UNL     1       4.161   5.477  17.201  0.00  0.00    +0.000 OA
BRANCH   9  10
ATOM     10  C   UNL     1       2.994   6.048  17.787  0.00  0.00    +0.000 C 
BRANCH  10  11
ATOM     11  C   UNL     1       2.202   5.003  18.542  0.00  0.00    +0.000 A 
ATOM     12  C   UNL     1       1.943   5.186  19.912  0.00  0.00    +0.000 A 
ATOM     13  C   UNL     1       1.216   4.238  20.634  0.00  0.00    +0.000 A 
ATOM     14  C   UNL     1       0.728   3.103  19.993  0.00  0.00    +0.000 A 
ATOM     15  C   UNL     1       0.957   2.920  18.629  0.00  0.00    +0.000 A 
ATOM     16  C   UNL     1       1.684   3.867  17.905  0.00  0.00    +0.000 A 
ENDBRANCH  10  11
ENDBRANCH   9  10
ENDBRANCH   8   9
TORSDOF 3
ENDMDL
MODEL 2
REMARK VINA RESULT:      -6.9      1.652      2.529
REMARK  Name = 
REMARK  4 active torsions:
REMARK  status: ('A' for Active; 'I' for Inactive)
REMARK    1  A    between atoms: C_1  and  C_2
REMARK    2  A    between atoms: C_8  and  O_9
REMARK    3  A    between atoms: O_9  and  C_10
REMARK    4  A    between atoms: C_10  and  C_11
REMARK                            x       y       z     vdW  Elec       q    Type
REMARK                         _______ _______ _______ _____ _____    ______ ____
ROOT
ATOM      1  C   UNL     1       5.713   4.606  14.928  0.00  0.00    +0.000 C 
ATOM      2  C   UNL     1       6.273   5.078  16.235  0.00  0.00    +0.000 A 
ATOM      3  O   UNL     1       7.201   6.095  16.042  0.00  0.00    +0.000 OA
ATOM      4  C   UNL     1       7.685   6.779  17.121  0.00  0.00    +0.000 A 
ATOM      5  C   UNL     1       7.384   6.494  18.388  0.00  0.00    +0.000 A 
ATOM      6  C   UNL     1       6.478   5.364  18.647  0.00  0.00    +0.000 A 
ATOM      7  O   UNL     1       6.230   5.039  19.805  0.00  0.00    +0.000 OA
ATOM      8  C   UNL     1       5.887   4.653  17.462  0.00  0.00    +0.000 A 
ENDROOT
BRANCH   8   9
ATOM      9  O   UNL     1       4.954   3.680  17.765  0.00  0.00    +0.000 OA
BRANCH   9  10
ATOM     10  C   UNL     1       3.573   4.018  17.669  0.00  0.00    +0.000 C 
BRANCH  10  11
ATOM     11  C   UNL     1       2.842   3.670  18.948  0.00  0.00    +0.000 A 
ATOM     12  C   UNL     1       1.492   4.031  19.095  0.00  0.00    +0.000 A 
ATOM     13  C   UNL     1       0.793   3.724  20.264  0.00  0.00    +0.000 A 
ATOM     14  C   UNL     1       1.432   3.040  21.294  0.00  0.00    +0.000 A 
ATOM     15  C   UNL     1       2.765   2.654  21.152  0.00  0.00    +0.000 A 
ATOM     16  C   UNL     1       3.466   2.961  19.984  0.00  0.00    +0.000 A 
ENDBRANCH  10  11
ENDBRANCH   9  10
ENDBRANCH   8   9
TORSDOF 3
ENDMDL
MODEL 3
REMARK VINA RESULT:      -6.9      1.247      2.634
REMARK  Name = 
REMARK  4 active torsions:
REMARK  status: ('A' for Active; 'I' for Inactive)
REMARK    1  A    between atoms: C_1  and  C_2
REMARK    2  A    between atoms: C_8  and  O_9
REMARK    3  A    between atoms: O_9  and  C_10
REMARK    4  A    between atoms: C_10  and  C_11
REMARK                            x       y       z     vdW  Elec       q    Type
REMARK                         _______ _______ _______ _____ _____    ______ ____
ROOT
ATOM      1  C   UNL     1       4.744   6.547  16.296  0.00  0.00    +0.000 C 
ATOM      2  C   UNL     1       5.952   6.547  17.181  0.00  0.00    +0.000 A 
ATOM      3  O   UNL     1       6.829   7.567  16.828  0.00  0.00    +0.000 OA
ATOM      4  C   UNL     1       7.898   7.843  17.631  0.00  0.00    +0.000 A 
ATOM      5  C   UNL     1       8.221   7.146  18.720  0.00  0.00    +0.000 A 
ATOM      6  C   UNL     1       7.375   5.996  19.082  0.00  0.00    +0.000 A 
ATOM      7  O   UNL     1       7.681   5.298  20.045  0.00  0.00    +0.000 OA
ATOM      8  C   UNL     1       6.157   5.731  18.243  0.00  0.00    +0.000 A 
ENDROOT
BRANCH   8   9
ATOM      9  O   UNL     1       5.339   4.715  18.697  0.00  0.00    +0.000 OA
BRANCH   9  10
ATOM     10  C   UNL     1       4.243   5.059  19.541  0.00  0.00    +0.000 C 
BRANCH  10  11
ATOM     11  C   UNL     1       3.062   4.146  19.292  0.00  0.00    +0.000 A 
ATOM     12  C   UNL     1       3.111   3.223  18.233  0.00  0.00    +0.000 A 
ATOM     13  C   UNL     1       2.036   2.369  17.980  0.00  0.00    +0.000 A 
ATOM     14  C   UNL     1       0.906   2.418  18.790  0.00  0.00    +0.000 A 
ATOM     15  C   UNL     1       0.853   3.311  19.859  0.00  0.00    +0.000 A 
ATOM     16  C   UNL     1       1.927   4.167  20.115  0.00  0.00    +0.000 A 
ENDBRANCH  10  11
ENDBRANCH   9  10
ENDBRANCH   8   9
TORSDOF 3
ENDMDL
MODEL 4
REMARK VINA RESULT:      -6.8      1.799      2.976
REMARK  Name = 
REMARK  4 active torsions:
REMARK  status: ('A' for Active; 'I' for Inactive)
REMARK    1  A    between atoms: C_1  and  C_2
REMARK    2  A    between atoms: C_8  and  O_9
REMARK    3  A    between atoms: O_9  and  C_10
REMARK    4  A    between atoms: C_10  and  C_11
REMARK                            x       y       z     vdW  Elec       q    Type
REMARK                         _______ _______ _______ _____ _____    ______ ____
ROOT
ATOM      1  C   UNL     1       7.736   6.650  18.070  0.00  0.00    +0.000 C 
ATOM      2  C   UNL     1       6.947   5.735  17.185  0.00  0.00    +0.000 A 
ATOM      3  O   UNL     1       7.381   5.820  15.866  0.00  0.00    +0.000 OA
ATOM      4  C   UNL     1       6.910   4.931  14.944  0.00  0.00    +0.000 A 
ATOM      5  C   UNL     1       5.984   4.006  15.195  0.00  0.00    +0.000 A 
ATOM      6  C   UNL     1       5.423   3.939  16.555  0.00  0.00    +0.000 A 
ATOM      7  O   UNL     1       4.527   3.139  16.802  0.00  0.00    +0.000 OA
ATOM      8  C   UNL     1       5.990   4.868  17.592  0.00  0.00    +0.000 A 
ENDROOT
BRANCH   8   9
ATOM      9  O   UNL     1       5.510   4.680  18.874  0.00  0.00    +0.000 OA
BRANCH   9  10
ATOM     10  C   UNL     1       4.433   5.503  19.318  0.00  0.00    +0.000 C 
BRANCH  10  11
ATOM     11  C   UNL     1       3.274   4.660  19.803  0.00  0.00    +0.000 A 
ATOM     12  C   UNL     1       3.474   3.296  20.074  0.00  0.00    +0.000 A 
ATOM     13  C   UNL     1       2.423   2.494  20.522  0.00  0.00    +0.000 A 
ATOM     14  C   UNL     1       1.162   3.050  20.717  0.00  0.00    +0.000 A 
ATOM     15  C   UNL     1       0.954   4.408  20.475  0.00  0.00    +0.000 A 
ATOM     16  C   UNL     1       2.005   5.212  20.027  0.00  0.00    +0.000 A 
ENDBRANCH  10  11
ENDBRANCH   9  10
ENDBRANCH   8   9
TORSDOF 3
ENDMDL
MODEL 5
REMARK VINA RESULT:      -6.8      1.744      2.826
REMARK  Name = 
REMARK  4 active torsions:
REMARK  status: ('A' for Active; 'I' for Inactive)
REMARK    1  A    between atoms: C_1  and  C_2
REMARK    2  A    between atoms: C_8  and  O_9
REMARK    3  A    between atoms: O_9  and  C_10
REMARK    4  A    between atoms: C_10  and  C_11
REMARK                            x       y       z     vdW  Elec       q    Type
REMARK                         _______ _______ _______ _____ _____    ______ ____
ROOT
ATOM      1  C   UNL     1       7.576   6.889  17.815  0.00  0.00    +0.000 C 
ATOM      2  C   UNL     1       6.797   5.978  16.917  0.00  0.00    +0.000 A 
ATOM      3  O   UNL     1       7.528   5.654  15.779  0.00  0.00    +0.000 OA
ATOM      4  C   UNL     1       7.063   4.691  14.931  0.00  0.00    +0.000 A 
ATOM      5  C   UNL     1       5.893   4.068  15.070  0.00  0.00    +0.000 A 
ATOM      6  C   UNL     1       5.039   4.445  16.209  0.00  0.00    +0.000 A 
ATOM      7  O   UNL     1       3.930   3.932  16.331  0.00  0.00    +0.000 OA
ATOM      8  C   UNL     1       5.578   5.452  17.185  0.00  0.00    +0.000 A 
ENDROOT
BRANCH   8   9
ATOM      9  O   UNL     1       4.786   5.679  18.294  0.00  0.00    +0.000 OA
BRANCH   9  10
ATOM     10  C   UNL     1       4.884   4.771  19.389  0.00  0.00    +0.000 C 
BRANCH  10  11
ATOM     11  C   UNL     1       3.524   4.215  19.753  0.00  0.00    +0.000 A 
ATOM     12  C   UNL     1       2.524   5.082  20.226  0.00  0.00    +0.000 A 
ATOM     13  C   UNL     1       1.262   4.597  20.570  0.00  0.00    +0.000 A 
ATOM     14  C   UNL     1       0.979   3.242  20.432  0.00  0.00    +0.000 A 
ATOM     15  C   UNL     1       1.953   2.373  19.941  0.00  0.00    +0.000 A 
ATOM     16  C   UNL     1       3.217   2.856  19.596  0.00  0.00    +0.000 A 
ENDBRANCH  10  11
ENDBRANCH   9  10
ENDBRANCH   8   9
TORSDOF 3
ENDMDL
MODEL 6
REMARK VINA RESULT:      -6.8      1.020      2.521
REMARK  Name = 
REMARK  4 active torsions:
REMARK  status: ('A' for Active; 'I' for Inactive)
REMARK    1  A    between atoms: C_1  and  C_2
REMARK    2  A    between atoms: C_8  and  O_9
REMARK    3  A    between atoms: O_9  and  C_10
REMARK    4  A    between atoms: C_10  and  C_11
REMARK                            x       y       z     vdW  Elec       q    Type
REMARK                         _______ _______ _______ _____ _____    ______ ____
ROOT
ATOM      1  C   UNL     1       5.003   6.828  15.406  0.00  0.00    +0.000 C 
ATOM      2  C   UNL     1       5.785   6.335  16.585  0.00  0.00    +0.000 A 
ATOM      3  O   UNL     1       6.956   7.068  16.748  0.00  0.00    +0.000 OA
ATOM      4  C   UNL     1       7.710   6.891  17.872  0.00  0.00    +0.000 A 
ATOM      5  C   UNL     1       7.446   5.992  18.821  0.00  0.00    +0.000 A 
ATOM      6  C   UNL     1       6.267   5.126  18.646  0.00  0.00    +0.000 A 
ATOM      7  O   UNL     1       6.032   4.250  19.472  0.00  0.00    +0.000 OA
ATOM      8  C   UNL     1       5.394   5.366  17.446  0.00  0.00    +0.000 A 
ENDROOT
BRANCH   8   9
ATOM      9  O   UNL     1       4.242   4.605  17.396  0.00  0.00    +0.000 OA
BRANCH   9  10
ATOM     10  C   UNL     1       3.014   5.216  17.786  0.00  0.00    +0.000 C 
BRANCH  10  11
ATOM     11  C   UNL     1       2.371   4.456  18.925  0.00  0.00    +0.000 A 
ATOM     12  C   UNL     1       1.421   3.458  18.644  0.00  0.00    +0.000 A 
ATOM     13  C   UNL     1       0.811   2.742  19.674  0.00  0.00    +0.000 A 
ATOM     14  C   UNL     1       1.152   3.005  20.998  0.00  0.00    +0.000 A 
ATOM     15  C   UNL     1       2.110   3.975  21.291  0.00  0.00    +0.000 A 
ATOM     16  C   UNL     1       2.722   4.693  20.261  0.00  0.00    +0.000 A 
ENDBRANCH  10  11
ENDBRANCH   9  10
ENDBRANCH   8   9
TORSDOF 3
ENDMDL
MODEL 7
REMARK VINA RESULT:      -6.8      1.416      2.551
REMARK  Name = 
REMARK  4 active torsions:
REMARK  status: ('A' for Active; 'I' for Inactive)
REMARK    1  A    between atoms: C_1  and  C_2
REMARK    2  A    between atoms: C_8  and  O_9
REMARK    3  A    between atoms: O_9  and  C_10
REMARK    4  A    between atoms: C_10  and  C_11
REMARK                            x       y       z     vdW  Elec       q    Type
REMARK                         _______ _______ _______ _____ _____    ______ ____
ROOT
ATOM      1  C   UNL     1       5.834   4.899  14.834  0.00  0.00    +0.000 C 
ATOM      2  C   UNL     1       6.340   5.238  16.203  0.00  0.00    +0.000 A 
ATOM      3  O   UNL     1       7.280   6.262  16.147  0.00  0.00    +0.000 OA
ATOM      4  C   UNL     1       7.720   6.835  17.306  0.00  0.00    +0.000 A 
ATOM      5  C   UNL     1       7.366   6.432  18.526  0.00  0.00    +0.000 A 
ATOM      6  C   UNL     1       6.445   5.289  18.638  0.00  0.00    +0.000 A 
ATOM      7  O   UNL     1       6.148   4.856  19.747  0.00  0.00    +0.000 OA
ATOM      8  C   UNL     1       5.901   4.700  17.366  0.00  0.00    +0.000 A 
ENDROOT
BRANCH   8   9
ATOM      9  O   UNL     1       4.954   3.710  17.534  0.00  0.00    +0.000 OA
BRANCH   9  10
ATOM     10  C   UNL     1       3.617   3.979  17.118  0.00  0.00    +0.000 C 
BRANCH  10  11
ATOM     11  C   UNL     1       2.674   3.988  18.302  0.00  0.00    +0.000 A 
ATOM     12  C   UNL     1       1.756   2.936  18.466  0.00  0.00    +0.000 A 
ATOM     13  C   UNL     1       0.875   2.919  19.548  0.00  0.00    +0.000 A 
ATOM     14  C   UNL     1       0.909   3.945  20.487  0.00  0.00    +0.000 A 
ATOM     15  C   UNL     1       1.831   4.983  20.351  0.00  0.00    +0.000 A 
ATOM     16  C   UNL     1       2.714   5.003  19.269  0.00  0.00    +0.000 A 
ENDBRANCH  10  11
ENDBRANCH   9  10
ENDBRANCH   8   9
TORSDOF 3
ENDMDL
MODEL 8
REMARK VINA RESULT:      -6.7      1.276      2.424
REMARK  Name = 
REMARK  4 active torsions:
REMARK  status: ('A' for Active; 'I' for Inactive)
REMARK    1  A    between atoms: C_1  and  C_2
REMARK    2  A    between atoms: C_8  and  O_9
REMARK    3  A    between atoms: O_9  and  C_10
REMARK    4  A    between atoms: C_10  and  C_11
REMARK                            x       y       z     vdW  Elec       q    Type
REMARK                         _______ _______ _______ _____ _____    ______ ____
ROOT
ATOM      1  C   UNL     1       4.129   5.786  17.263  0.00  0.00    +0.000 C 
ATOM      2  C   UNL     1       5.512   5.915  17.825  0.00  0.00    +0.000 A 
ATOM      3  O   UNL     1       6.282   6.785  17.061  0.00  0.00    +0.000 OA
ATOM      4  C   UNL     1       7.510   7.174  17.515  0.00  0.00    +0.000 A 
ATOM      5  C   UNL     1       8.079   6.715  18.629  0.00  0.00    +0.000 A 
ATOM      6  C   UNL     1       7.342   5.718  19.423  0.00  0.00    +0.000 A 
ATOM      7  O   UNL     1       7.865   5.232  20.422  0.00  0.00    +0.000 OA
ATOM      8  C   UNL     1       5.961   5.341  18.967  0.00  0.00    +0.000 A 
ENDROOT
BRANCH   8   9
ATOM      9  O   UNL     1       5.273   4.493  19.813  0.00  0.00    +0.000 OA
BRANCH   9  10
ATOM     10  C   UNL     1       4.810   3.250  19.291  0.00  0.00    +0.000 C 
BRANCH  10  11
ATOM     11  C   UNL     1       3.312   3.117  19.458  0.00  0.00    +0.000 A 
ATOM     12  C   UNL     1       2.696   3.627  20.614  0.00  0.00    +0.000 A 
ATOM     13  C   UNL     1       1.317   3.518  20.796  0.00  0.00    +0.000 A 
ATOM     14  C   UNL     1       0.535   2.911  19.819  0.00  0.00    +0.000 A 
ATOM     15  C   UNL     1       1.129   2.422  18.655  0.00  0.00    +0.000 A 
ATOM     16  C   UNL     1       2.509   2.529  18.471  0.00  0.00    +0.000 A 
ENDBRANCH  10  11
ENDBRANCH   9  10
ENDBRANCH   8   9
TORSDOF 3
ENDMDL
MODEL 9
REMARK VINA RESULT:      -6.6      1.648      2.943
REMARK  Name = 
REMARK  4 active torsions:
REMARK  status: ('A' for Active; 'I' for Inactive)
REMARK    1  A    between atoms: C_1  and  C_2
REMARK    2  A    between atoms: C_8  and  O_9
REMARK    3  A    between atoms: O_9  and  C_10
REMARK    4  A    between atoms: C_10  and  C_11
REMARK                            x       y       z     vdW  Elec       q    Type
REMARK                         _______ _______ _______ _____ _____    ______ ____
ROOT
ATOM      1  C   UNL     1       7.026   7.481  17.463  0.00  0.00    +0.000 C 
ATOM      2  C   UNL     1       6.559   6.232  16.780  0.00  0.00    +0.000 A 
ATOM      3  O   UNL     1       7.292   5.992  15.623  0.00  0.00    +0.000 OA
ATOM      4  C   UNL     1       7.139   4.807  14.962  0.00  0.00    +0.000 A 
ATOM      5  C   UNL     1       6.264   3.863  15.305  0.00  0.00    +0.000 A 
ATOM      6  C   UNL     1       5.398   4.111  16.470  0.00  0.00    +0.000 A 
ATOM      7  O   UNL     1       4.542   3.286  16.775  0.00  0.00    +0.000 OA
ATOM      8  C   UNL     1       5.612   5.382  17.243  0.00  0.00    +0.000 A 
ENDROOT
BRANCH   8   9
ATOM      9  O   UNL     1       4.853   5.506  18.391  0.00  0.00    +0.000 OA
BRANCH   9  10
ATOM     10  C   UNL     1       3.469   5.821  18.253  0.00  0.00    +0.000 C 
BRANCH  10  11
ATOM     11  C   UNL     1       2.619   4.901  19.102  0.00  0.00    +0.000 A 
ATOM     12  C   UNL     1       1.660   4.078  18.486  0.00  0.00    +0.000 A 
ATOM     13  C   UNL     1       0.862   3.221  19.245  0.00  0.00    +0.000 A 
ATOM     14  C   UNL     1       1.021   3.165  20.626  0.00  0.00    +0.000 A 
ATOM     15  C   UNL     1       1.985   3.958  21.248  0.00  0.00    +0.000 A 
ATOM     16  C   UNL     1       2.786   4.817  20.491  0.00  0.00    +0.000 A 
ENDBRANCH  10  11
ENDBRANCH   9  10
ENDBRANCH   8   9
TORSDOF 3
ENDMDL
