MODEL 1
REMARK VINA RESULT:      -6.9      0.000      0.000
REMARK  Name = 
REMARK  14 active torsions:
REMARK  status: ('A' for Active; 'I' for Inactive)
REMARK    1  A    between atoms: C_1  and  O_2
REMARK    2  A    between atoms: O_2  and  C_3
REMARK    3  A    between atoms: C_6  and  C_7
REMARK    4  A    between atoms: C_8  and  C_9
REMARK    5  A    between atoms: C_8  and  C_21
REMARK    6  A    between atoms: C_11  and  O_12
REMARK    7  A    between atoms: O_12  and  C_13
REMARK    8  A    between atoms: C_14  and  O_15
REMARK    9  A    between atoms: O_15  and  C_16
REMARK   10  A    between atoms: C_17  and  O_18
REMARK   11  A    between atoms: O_18  and  C_19
REMARK   12  A    between atoms: C_21  and  C_22
REMARK   13  A    between atoms: C_21  and  O_23
REMARK   14  A    between atoms: C_25  and  O_26
REMARK                            x       y       z     vdW  Elec       q    Type
REMARK                         _______ _______ _______ _____ _____    ______ ____
ROOT
ATOM      1  C   UNL     1       2.021   8.604  17.802  0.00  0.00    +0.000 C 
ATOM      2  C   UNL     1       2.347   7.528  18.549  0.00  0.00    +0.000 C 
ENDROOT
BRANCH   1   6
ATOM      3  C   UNL     1      -1.002  11.444  18.937  0.00  0.00    +0.000 A 
ATOM      4  C   UNL     1      -1.324  10.342  18.131  0.00  0.00    +0.000 A 
ATOM      5  C   UNL     1      -0.337   9.422  17.721  0.00  0.00    +0.000 A 
ATOM      6  C   UNL     1       0.991   9.610  18.099  0.00  0.00    +0.000 A 
ATOM      7  C   UNL     1       1.326  10.735  18.867  0.00  0.00    +0.000 A 
ATOM      8  C   UNL     1       0.336  11.631  19.299  0.00  0.00    +0.000 A 
BRANCH   3  10
ATOM      9  C   UNL     1      -3.363  11.811  18.780  0.00  0.00    +0.000 C 
ATOM     10  O   UNL     1      -2.090  12.202  19.274  0.00  0.00    +0.000 OA
ENDBRANCH   3  10
BRANCH   8  11
ATOM     11  O   UNL     1       0.722  12.675  20.094  0.00  0.00    +0.000 OA
ATOM     12  H   UNL     1       0.898  12.337  20.988  0.00  0.00    +0.000 HD
ENDBRANCH   8  11
ENDBRANCH   1   6
BRANCH   2  13
ATOM     13  C   UNL     1       3.382   6.607  18.018  0.00  0.00    +0.000 A 
ATOM     14  C   UNL     1       3.081   5.257  17.801  0.00  0.00    +0.000 A 
ATOM     15  C   UNL     1       4.014   4.382  17.218  0.00  0.00    +0.000 A 
ATOM     16  C   UNL     1       5.273   4.884  16.826  0.00  0.00    +0.000 A 
ATOM     17  C   UNL     1       5.586   6.245  17.071  0.00  0.00    +0.000 A 
ATOM     18  C   UNL     1       4.651   7.085  17.688  0.00  0.00    +0.000 A 
BRANCH  15  19
ATOM     19  O   UNL     1       3.749   3.055  17.006  0.00  0.00    +0.000 OA
ATOM     20  C   UNL     1       3.049   2.332  18.008  0.00  0.00    +0.000 C 
ENDBRANCH  15  19
BRANCH  16  21
ATOM     21  O   UNL     1       6.287   4.192  16.203  0.00  0.00    +0.000 OA
ATOM     22  C   UNL     1       6.217   3.919  14.814  0.00  0.00    +0.000 C 
ENDBRANCH  16  21
BRANCH  17  23
ATOM     23  O   UNL     1       6.827   6.664  16.646  0.00  0.00    +0.000 OA
ATOM     24  C   UNL     1       7.587   7.490  17.515  0.00  0.00    +0.000 C 
ENDBRANCH  17  23
ENDBRANCH   2  13
BRANCH   2  25
ATOM     25  C   UNL     1       1.736   7.175  19.893  0.00  0.00    +0.000 C 
ATOM     26  C   UNL     1       2.024   5.736  20.307  0.00  0.00    +0.000 C 
BRANCH  25  27
ATOM     27  O   UNL     1       2.186   8.072  20.909  0.00  0.00    +0.000 OA
ATOM     28  H   UNL     1       1.703   8.910  20.809  0.00  0.00    +0.000 HD
ENDBRANCH  25  27
ENDBRANCH   2  25
TORSDOF 9
ENDMDL
MODEL 2
REMARK VINA RESULT:      -6.8      1.942      3.027
REMARK  Name = 
REMARK  14 active torsions:
REMARK  status: ('A' for Active; 'I' for Inactive)
REMARK    1  A    between atoms: C_1  and  O_2
REMARK    2  A    between atoms: O_2  and  C_3
REMARK    3  A    between atoms: C_6  and  C_7
REMARK    4  A    between atoms: C_8  and  C_9
REMARK    5  A    between atoms: C_8  and  C_21
REMARK    6  A    between atoms: C_11  and  O_12
REMARK    7  A    between atoms: O_12  and  C_13
REMARK    8  A    between atoms: C_14  and  O_15
REMARK    9  A    between atoms: O_15  and  C_16
REMARK   10  A    between atoms: C_17  and  O_18
REMARK   11  A    between atoms: O_18  and  C_19
REMARK   12  A    between atoms: C_21  and  C_22
REMARK   13  A    between atoms: C_21  and  O_23
REMARK   14  A    between atoms: C_25  and  O_26
REMARK                            x       y       z     vdW  Elec       q    Type
REMARK                         _______ _______ _______ _____ _____    ______ ____
ROOT
ATOM      1  C   UNL     1       1.431   9.262  19.098  0.00  0.00    +0.000 C 
ATOM      2  C   UNL     1       1.436   8.276  20.020  0.00  0.00    +0.000 C 
ENDROOT
BRANCH   1   6
ATOM      3  C   UNL     1      -0.486  13.111  19.105  0.00  0.00    +0.000 A 
ATOM      4  C   UNL     1       0.676  12.891  19.859  0.00  0.00    +0.000 A 
ATOM      5  C   UNL     1       1.296  11.624  19.895  0.00  0.00    +0.000 A 
ATOM      6  C   UNL     1       0.742  10.557  19.190  0.00  0.00    +0.000 A 
ATOM      7  C   UNL     1      -0.445  10.761  18.472  0.00  0.00    +0.000 A 
ATOM      8  C   UNL     1      -1.040  12.031  18.413  0.00  0.00    +0.000 A 
BRANCH   3  10
ATOM      9  C   UNL     1       0.008  15.441  18.852  0.00  0.00    +0.000 C 
ATOM     10  O   UNL     1      -0.921  14.408  19.150  0.00  0.00    +0.000 OA
ENDBRANCH   3  10
BRANCH   8  11
ATOM     11  O   UNL     1      -2.165  12.174  17.646  0.00  0.00    +0.000 OA
ATOM     12  H   UNL     1      -2.940  11.948  18.185  0.00  0.00    +0.000 HD
ENDBRANCH   8  11
ENDBRANCH   1   6
BRANCH   2  13
ATOM     13  C   UNL     1       2.153   7.021  19.683  0.00  0.00    +0.000 A 
ATOM     14  C   UNL     1       2.048   5.903  20.520  0.00  0.00    +0.000 A 
ATOM     15  C   UNL     1       2.644   4.675  20.181  0.00  0.00    +0.000 A 
ATOM     16  C   UNL     1       3.346   4.567  18.962  0.00  0.00    +0.000 A 
ATOM     17  C   UNL     1       3.474   5.707  18.129  0.00  0.00    +0.000 A 
ATOM     18  C   UNL     1       2.902   6.927  18.509  0.00  0.00    +0.000 A 
BRANCH  15  19
ATOM     19  O   UNL     1       2.566   3.570  20.987  0.00  0.00    +0.000 OA
ATOM     20  C   UNL     1       1.314   2.914  21.124  0.00  0.00    +0.000 C 
ENDBRANCH  15  19
BRANCH  16  21
ATOM     21  O   UNL     1       3.950   3.442  18.447  0.00  0.00    +0.000 OA
ATOM     22  C   UNL     1       3.167   2.413  17.868  0.00  0.00    +0.000 C 
ENDBRANCH  16  21
BRANCH  17  23
ATOM     23  O   UNL     1       4.159   5.519  16.950  0.00  0.00    +0.000 OA
ATOM     24  C   UNL     1       5.312   6.313  16.712  0.00  0.00    +0.000 C 
ENDBRANCH  17  23
ENDBRANCH   2  13
BRANCH   2  25
ATOM     25  C   UNL     1       0.762   8.341  21.378  0.00  0.00    +0.000 C 
ATOM     26  C   UNL     1       1.526   9.212  22.369  0.00  0.00    +0.000 C 
BRANCH  25  27
ATOM     27  O   UNL     1      -0.582   8.808  21.259  0.00  0.00    +0.000 OA
ATOM     28  H   UNL     1      -0.922   8.981  22.154  0.00  0.00    +0.000 HD
ENDBRANCH  25  27
ENDBRANCH   2  25
TORSDOF 9
ENDMDL
MODEL 3
REMARK VINA RESULT:      -6.8      1.982      3.722
REMARK  Name = 
REMARK  14 active torsions:
REMARK  status: ('A' for Active; 'I' for Inactive)
REMARK    1  A    between atoms: C_1  and  O_2
REMARK    2  A    between atoms: O_2  and  C_3
REMARK    3  A    between atoms: C_6  and  C_7
REMARK    4  A    between atoms: C_8  and  C_9
REMARK    5  A    between atoms: C_8  and  C_21
REMARK    6  A    between atoms: C_11  and  O_12
REMARK    7  A    between atoms: O_12  and  C_13
REMARK    8  A    between atoms: C_14  and  O_15
REMARK    9  A    between atoms: O_15  and  C_16
REMARK   10  A    between atoms: C_17  and  O_18
REMARK   11  A    between atoms: O_18  and  C_19
REMARK   12  A    between atoms: C_21  and  C_22
REMARK   13  A    between atoms: C_21  and  O_23
REMARK   14  A    between atoms: C_25  and  O_26
REMARK                            x       y       z     vdW  Elec       q    Type
REMARK                         _______ _______ _______ _____ _____    ______ ____
ROOT
ATOM      1  C   UNL     1       1.391   9.263  19.093  0.00  0.00    +0.000 C 
ATOM      2  C   UNL     1       1.379   8.277  20.015  0.00  0.00    +0.000 C 
ENDROOT
BRANCH   1   6
ATOM      3  C   UNL     1      -0.399  13.174  19.129  0.00  0.00    +0.000 A 
ATOM      4  C   UNL     1       0.781  12.921  19.846  0.00  0.00    +0.000 A 
ATOM      5  C   UNL     1       1.360  11.636  19.872  0.00  0.00    +0.000 A 
ATOM      6  C   UNL     1       0.748  10.582  19.197  0.00  0.00    +0.000 A 
ATOM      7  C   UNL     1      -0.456  10.818  18.517  0.00  0.00    +0.000 A 
ATOM      8  C   UNL     1      -1.011  12.106  18.467  0.00  0.00    +0.000 A 
BRANCH   3  10
ATOM      9  C   UNL     1       0.152  15.482  18.809  0.00  0.00    +0.000 C 
ATOM     10  O   UNL     1      -0.790  14.484  19.178  0.00  0.00    +0.000 OA
ENDBRANCH   3  10
BRANCH   8  11
ATOM     11  O   UNL     1      -2.156  12.280  17.738  0.00  0.00    +0.000 OA
ATOM     12  H   UNL     1      -2.836  12.669  18.312  0.00  0.00    +0.000 HD
ENDBRANCH   8  11
ENDBRANCH   1   6
BRANCH   2  13
ATOM     13  C   UNL     1       2.046   7.000  19.666  0.00  0.00    +0.000 A 
ATOM     14  C   UNL     1       2.845   6.911  18.519  0.00  0.00    +0.000 A 
ATOM     15  C   UNL     1       3.559   5.740  18.212  0.00  0.00    +0.000 A 
ATOM     16  C   UNL     1       3.482   4.639  19.090  0.00  0.00    +0.000 A 
ATOM     17  C   UNL     1       2.652   4.721  20.237  0.00  0.00    +0.000 A 
ATOM     18  C   UNL     1       1.923   5.887  20.499  0.00  0.00    +0.000 A 
BRANCH  15  19
ATOM     19  O   UNL     1       4.338   5.623  17.090  0.00  0.00    +0.000 OA
ATOM     20  C   UNL     1       5.465   6.476  16.952  0.00  0.00    +0.000 C 
ENDBRANCH  15  19
BRANCH  16  21
ATOM     21  O   UNL     1       4.143   3.436  18.977  0.00  0.00    +0.000 OA
ATOM     22  C   UNL     1       3.678   2.448  18.074  0.00  0.00    +0.000 C 
ENDBRANCH  16  21
BRANCH  17  23
ATOM     23  O   UNL     1       2.642   3.613  21.054  0.00  0.00    +0.000 OA
ATOM     24  C   UNL     1       1.419   2.907  21.208  0.00  0.00    +0.000 C 
ENDBRANCH  17  23
ENDBRANCH   2  13
BRANCH   2  25
ATOM     25  C   UNL     1       0.731   8.365  21.384  0.00  0.00    +0.000 C 
ATOM     26  C   UNL     1       1.525   9.235  22.353  0.00  0.00    +0.000 C 
BRANCH  25  27
ATOM     27  O   UNL     1      -0.609   8.850  21.285  0.00  0.00    +0.000 OA
ATOM     28  H   UNL     1      -1.011   8.809  22.171  0.00  0.00    +0.000 HD
ENDBRANCH  25  27
ENDBRANCH   2  25
TORSDOF 9
ENDMDL
MODEL 4
REMARK VINA RESULT:      -6.8      0.718      1.407
REMARK  Name = 
REMARK  14 active torsions:
REMARK  status: ('A' for Active; 'I' for Inactive)
REMARK    1  A    between atoms: C_1  and  O_2
REMARK    2  A    between atoms: O_2  and  C_3
REMARK    3  A    between atoms: C_6  and  C_7
REMARK    4  A    between atoms: C_8  and  C_9
REMARK    5  A    between atoms: C_8  and  C_21
REMARK    6  A    between atoms: C_11  and  O_12
REMARK    7  A    between atoms: O_12  and  C_13
REMARK    8  A    between atoms: C_14  and  O_15
REMARK    9  A    between atoms: O_15  and  C_16
REMARK   10  A    between atoms: C_17  and  O_18
REMARK   11  A    between atoms: O_18  and  C_19
REMARK   12  A    between atoms: C_21  and  C_22
REMARK   13  A    between atoms: C_21  and  O_23
REMARK   14  A    between atoms: C_25  and  O_26
REMARK                            x       y       z     vdW  Elec       q    Type
REMARK                         _______ _______ _______ _____ _____    ______ ____
ROOT
ATOM      1  C   UNL     1       1.838   8.681  18.036  0.00  0.00    +0.000 C 
ATOM      2  C   UNL     1       2.200   7.582  18.732  0.00  0.00    +0.000 C 
ENDROOT
BRANCH   1   6
ATOM      3  C   UNL     1      -1.078  11.723  18.893  0.00  0.00    +0.000 A 
ATOM      4  C   UNL     1       0.182  11.747  19.511  0.00  0.00    +0.000 A 
ATOM      5  C   UNL     1       1.136  10.737  19.267  0.00  0.00    +0.000 A 
ATOM      6  C   UNL     1       0.827   9.678  18.416  0.00  0.00    +0.000 A 
ATOM      7  C   UNL     1      -0.448   9.625  17.832  0.00  0.00    +0.000 A 
ATOM      8  C   UNL     1      -1.382  10.649  18.052  0.00  0.00    +0.000 A 
BRANCH   3  10
ATOM      9  C   UNL     1      -2.775  12.682  20.285  0.00  0.00    +0.000 C 
ATOM     10  O   UNL     1      -1.854  12.805  19.210  0.00  0.00    +0.000 OA
ENDBRANCH   3  10
BRANCH   8  11
ATOM     11  O   UNL     1      -2.584  10.567  17.405  0.00  0.00    +0.000 OA
ATOM     12  H   UNL     1      -2.954   9.680  17.545  0.00  0.00    +0.000 HD
ENDBRANCH   8  11
ENDBRANCH   1   6
BRANCH   2  13
ATOM     13  C   UNL     1       3.206   6.679  18.121  0.00  0.00    +0.000 A 
ATOM     14  C   UNL     1       2.896   5.332  17.890  0.00  0.00    +0.000 A 
ATOM     15  C   UNL     1       3.797   4.475  17.234  0.00  0.00    +0.000 A 
ATOM     16  C   UNL     1       5.030   4.991  16.783  0.00  0.00    +0.000 A 
ATOM     17  C   UNL     1       5.353   6.348  17.041  0.00  0.00    +0.000 A 
ATOM     18  C   UNL     1       4.452   7.170  17.730  0.00  0.00    +0.000 A 
BRANCH  15  19
ATOM     19  O   UNL     1       3.524   3.152  17.006  0.00  0.00    +0.000 OA
ATOM     20  C   UNL     1       2.478   2.536  17.744  0.00  0.00    +0.000 C 
ENDBRANCH  15  19
BRANCH  16  21
ATOM     21  O   UNL     1       6.009   4.319  16.086  0.00  0.00    +0.000 OA
ATOM     22  C   UNL     1       5.881   4.119  14.689  0.00  0.00    +0.000 C 
ENDBRANCH  16  21
BRANCH  17  23
ATOM     23  O   UNL     1       6.566   6.782  16.556  0.00  0.00    +0.000 OA
ATOM     24  C   UNL     1       7.518   7.278  17.484  0.00  0.00    +0.000 C 
ENDBRANCH  17  23
ENDBRANCH   2  13
BRANCH   2  25
ATOM     25  C   UNL     1       1.656   7.188  20.093  0.00  0.00    +0.000 C 
ATOM     26  C   UNL     1       1.927   5.725  20.430  0.00  0.00    +0.000 C 
BRANCH  25  27
ATOM     27  O   UNL     1       2.189   8.027  21.118  0.00  0.00    +0.000 OA
ATOM     28  H   UNL     1       1.595   7.978  21.887  0.00  0.00    +0.000 HD
ENDBRANCH  25  27
ENDBRANCH   2  25
TORSDOF 9
ENDMDL
MODEL 5
REMARK VINA RESULT:      -6.7      2.045      3.513
REMARK  Name = 
REMARK  14 active torsions:
REMARK  status: ('A' for Active; 'I' for Inactive)
REMARK    1  A    between atoms: C_1  and  O_2
REMARK    2  A    between atoms: O_2  and  C_3
REMARK    3  A    between atoms: C_6  and  C_7
REMARK    4  A    between atoms: C_8  and  C_9
REMARK    5  A    between atoms: C_8  and  C_21
REMARK    6  A    between atoms: C_11  and  O_12
REMARK    7  A    between atoms: O_12  and  C_13
REMARK    8  A    between atoms: C_14  and  O_15
REMARK    9  A    between atoms: O_15  and  C_16
REMARK   10  A    between atoms: C_17  and  O_18
REMARK   11  A    between atoms: O_18  and  C_19
REMARK   12  A    between atoms: C_21  and  C_22
REMARK   13  A    between atoms: C_21  and  O_23
REMARK   14  A    between atoms: C_25  and  O_26
REMARK                            x       y       z     vdW  Elec       q    Type
REMARK                         _______ _______ _______ _____ _____    ______ ____
ROOT
ATOM      1  C   UNL     1       1.708   8.155  19.984  0.00  0.00    +0.000 C 
ATOM      2  C   UNL     1       1.939   8.211  18.656  0.00  0.00    +0.000 C 
ENDROOT
BRANCH   1   6
ATOM      3  C   UNL     1      -0.455  10.892  22.500  0.00  0.00    +0.000 A 
ATOM      4  C   UNL     1      -0.755   9.521  22.512  0.00  0.00    +0.000 A 
ATOM      5  C   UNL     1      -0.078   8.616  21.667  0.00  0.00    +0.000 A 
ATOM      6  C   UNL     1       0.893   9.082  20.783  0.00  0.00    +0.000 A 
ATOM      7  C   UNL     1       1.164  10.458  20.734  0.00  0.00    +0.000 A 
ATOM      8  C   UNL     1       0.511  11.349  21.599  0.00  0.00    +0.000 A 
BRANCH   3  10
ATOM      9  C   UNL     1      -2.457  12.092  23.037  0.00  0.00    +0.000 C 
ATOM     10  O   UNL     1      -1.175  11.609  23.416  0.00  0.00    +0.000 OA
ENDBRANCH   3  10
BRANCH   8  11
ATOM     11  O   UNL     1       0.864  12.670  21.541  0.00  0.00    +0.000 OA
ATOM     12  H   UNL     1       0.148  13.165  21.110  0.00  0.00    +0.000 HD
ENDBRANCH   8  11
ENDBRANCH   1   6
BRANCH   2  13
ATOM     13  C   UNL     1       2.852   7.199  18.071  0.00  0.00    +0.000 A 
ATOM     14  C   UNL     1       4.091   7.586  17.546  0.00  0.00    +0.000 A 
ATOM     15  C   UNL     1       5.012   6.638  17.066  0.00  0.00    +0.000 A 
ATOM     16  C   UNL     1       4.684   5.268  17.132  0.00  0.00    +0.000 A 
ATOM     17  C   UNL     1       3.418   4.879  17.639  0.00  0.00    +0.000 A 
ATOM     18  C   UNL     1       2.505   5.847  18.076  0.00  0.00    +0.000 A 
BRANCH  15  19
ATOM     19  O   UNL     1       6.226   6.991  16.537  0.00  0.00    +0.000 OA
ATOM     20  C   UNL     1       7.334   7.135  17.414  0.00  0.00    +0.000 C 
ENDBRANCH  15  19
BRANCH  16  21
ATOM     21  O   UNL     1       5.473   4.204  16.755  0.00  0.00    +0.000 OA
ATOM     22  C   UNL     1       5.730   3.957  15.384  0.00  0.00    +0.000 C 
ENDBRANCH  16  21
BRANCH  17  23
ATOM     23  O   UNL     1       3.177   3.525  17.688  0.00  0.00    +0.000 OA
ATOM     24  C   UNL     1       2.989   2.924  18.960  0.00  0.00    +0.000 C 
ENDBRANCH  17  23
ENDBRANCH   2  13
BRANCH   2  25
ATOM     25  C   UNL     1       1.344   9.233  17.705  0.00  0.00    +0.000 C 
ATOM     26  C   UNL     1      -0.144   9.463  17.948  0.00  0.00    +0.000 C 
BRANCH  25  27
ATOM     27  O   UNL     1       2.045  10.475  17.786  0.00  0.00    +0.000 OA
ATOM     28  H   UNL     1       2.981  10.282  17.966  0.00  0.00    +0.000 HD
ENDBRANCH  25  27
ENDBRANCH   2  25
TORSDOF 9
ENDMDL
MODEL 6
REMARK VINA RESULT:      -6.7      1.864      7.903
REMARK  Name = 
REMARK  14 active torsions:
REMARK  status: ('A' for Active; 'I' for Inactive)
REMARK    1  A    between atoms: C_1  and  O_2
REMARK    2  A    between atoms: O_2  and  C_3
REMARK    3  A    between atoms: C_6  and  C_7
REMARK    4  A    between atoms: C_8  and  C_9
REMARK    5  A    between atoms: C_8  and  C_21
REMARK    6  A    between atoms: C_11  and  O_12
REMARK    7  A    between atoms: O_12  and  C_13
REMARK    8  A    between atoms: C_14  and  O_15
REMARK    9  A    between atoms: O_15  and  C_16
REMARK   10  A    between atoms: C_17  and  O_18
REMARK   11  A    between atoms: O_18  and  C_19
REMARK   12  A    between atoms: C_21  and  C_22
REMARK   13  A    between atoms: C_21  and  O_23
REMARK   14  A    between atoms: C_25  and  O_26
REMARK                            x       y       z     vdW  Elec       q    Type
REMARK                         _______ _______ _______ _____ _____    ______ ____
ROOT
ATOM      1  C   UNL     1       3.167   7.341  17.991  0.00  0.00    +0.000 C 
ATOM      2  C   UNL     1       2.508   7.172  19.156  0.00  0.00    +0.000 C 
ENDROOT
BRANCH   1   6
ATOM      3  C   UNL     1       6.061   4.852  16.010  0.00  0.00    +0.000 A 
ATOM      4  C   UNL     1       4.751   4.395  16.221  0.00  0.00    +0.000 A 
ATOM      5  C   UNL     1       3.801   5.186  16.901  0.00  0.00    +0.000 A 
ATOM      6  C   UNL     1       4.162   6.437  17.396  0.00  0.00    +0.000 A 
ATOM      7  C   UNL     1       5.483   6.879  17.228  0.00  0.00    +0.000 A 
ATOM      8  C   UNL     1       6.416   6.102  16.523  0.00  0.00    +0.000 A 
BRANCH   3  10
ATOM      9  C   UNL     1       6.588   3.849  13.900  0.00  0.00    +0.000 C 
ATOM     10  O   UNL     1       6.829   3.974  15.295  0.00  0.00    +0.000 OA
ENDBRANCH   3  10
BRANCH   8  11
ATOM     11  O   UNL     1       7.671   6.618  16.344  0.00  0.00    +0.000 OA
ATOM     12  H   UNL     1       7.597   7.459  15.865  0.00  0.00    +0.000 HD
ENDBRANCH   8  11
ENDBRANCH   1   6
BRANCH   2  13
ATOM     13  C   UNL     1       1.589   8.252  19.592  0.00  0.00    +0.000 A 
ATOM     14  C   UNL     1       0.896   8.142  20.805  0.00  0.00    +0.000 A 
ATOM     15  C   UNL     1       0.088   9.188  21.284  0.00  0.00    +0.000 A 
ATOM     16  C   UNL     1      -0.010  10.379  20.534  0.00  0.00    +0.000 A 
ATOM     17  C   UNL     1       0.671  10.478  19.294  0.00  0.00    +0.000 A 
ATOM     18  C   UNL     1       1.440   9.407  18.823  0.00  0.00    +0.000 A 
BRANCH  15  19
ATOM     19  O   UNL     1      -0.610   9.102  22.460  0.00  0.00    +0.000 OA
ATOM     20  C   UNL     1       0.045   9.462  23.668  0.00  0.00    +0.000 C 
ENDBRANCH  15  19
BRANCH  16  21
ATOM     21  O   UNL     1      -0.711  11.516  20.867  0.00  0.00    +0.000 OA
ATOM     22  C   UNL     1      -0.139  12.479  21.735  0.00  0.00    +0.000 C 
ENDBRANCH  16  21
BRANCH  17  23
ATOM     23  O   UNL     1       0.541  11.677  18.629  0.00  0.00    +0.000 OA
ATOM     24  C   UNL     1       1.696  12.490  18.485  0.00  0.00    +0.000 C 
ENDBRANCH  17  23
ENDBRANCH   2  13
BRANCH   2  25
ATOM     25  C   UNL     1       2.632   5.964  20.067  0.00  0.00    +0.000 C 
ATOM     26  C   UNL     1       1.798   4.781  19.586  0.00  0.00    +0.000 C 
BRANCH  25  27
ATOM     27  O   UNL     1       3.997   5.569  20.208  0.00  0.00    +0.000 OA
ATOM     28  H   UNL     1       4.510   5.997  19.500  0.00  0.00    +0.000 HD
ENDBRANCH  25  27
ENDBRANCH   2  25
TORSDOF 9
ENDMDL
MODEL 7
REMARK VINA RESULT:      -6.7      1.889      3.310
REMARK  Name = 
REMARK  14 active torsions:
REMARK  status: ('A' for Active; 'I' for Inactive)
REMARK    1  A    between atoms: C_1  and  O_2
REMARK    2  A    between atoms: O_2  and  C_3
REMARK    3  A    between atoms: C_6  and  C_7
REMARK    4  A    between atoms: C_8  and  C_9
REMARK    5  A    between atoms: C_8  and  C_21
REMARK    6  A    between atoms: C_11  and  O_12
REMARK    7  A    between atoms: O_12  and  C_13
REMARK    8  A    between atoms: C_14  and  O_15
REMARK    9  A    between atoms: O_15  and  C_16
REMARK   10  A    between atoms: C_17  and  O_18
REMARK   11  A    between atoms: O_18  and  C_19
REMARK   12  A    between atoms: C_21  and  C_22
REMARK   13  A    between atoms: C_21  and  O_23
REMARK   14  A    between atoms: C_25  and  O_26
REMARK                            x       y       z     vdW  Elec       q    Type
REMARK                         _______ _______ _______ _____ _____    ______ ____
ROOT
ATOM      1  C   UNL     1       2.170   7.970  19.458  0.00  0.00    +0.000 C 
ATOM      2  C   UNL     1       2.343   6.639  19.600  0.00  0.00    +0.000 C 
ENDROOT
BRANCH   1   6
ATOM      3  C   UNL     1      -0.494  10.294  21.906  0.00  0.00    +0.000 A 
ATOM      4  C   UNL     1      -0.592  10.335  20.507  0.00  0.00    +0.000 A 
ATOM      5  C   UNL     1       0.297   9.605  19.690  0.00  0.00    +0.000 A 
ATOM      6  C   UNL     1       1.310   8.844  20.270  0.00  0.00    +0.000 A 
ATOM      7  C   UNL     1       1.441   8.837  21.666  0.00  0.00    +0.000 A 
ATOM      8  C   UNL     1       0.534   9.538  22.476  0.00  0.00    +0.000 A 
BRANCH   3  10
ATOM      9  C   UNL     1      -1.960  12.189  21.889  0.00  0.00    +0.000 C 
ATOM     10  O   UNL     1      -1.466  11.024  22.536  0.00  0.00    +0.000 OA
ENDBRANCH   3  10
BRANCH   8  11
ATOM     11  O   UNL     1       0.682   9.441  23.833  0.00  0.00    +0.000 OA
ATOM     12  H   UNL     1       1.595   9.172  24.028  0.00  0.00    +0.000 HD
ENDBRANCH   8  11
ENDBRANCH   1   6
BRANCH   2  13
ATOM     13  C   UNL     1       3.216   5.948  18.620  0.00  0.00    +0.000 A 
ATOM     14  C   UNL     1       4.266   6.638  18.002  0.00  0.00    +0.000 A 
ATOM     15  C   UNL     1       5.162   5.987  17.136  0.00  0.00    +0.000 A 
ATOM     16  C   UNL     1       5.008   4.604  16.902  0.00  0.00    +0.000 A 
ATOM     17  C   UNL     1       3.928   3.913  17.508  0.00  0.00    +0.000 A 
ATOM     18  C   UNL     1       3.029   4.594  18.337  0.00  0.00    +0.000 A 
BRANCH  15  19
ATOM     19  O   UNL     1       6.190   6.641  16.509  0.00  0.00    +0.000 OA
ATOM     20  C   UNL     1       7.291   7.085  17.290  0.00  0.00    +0.000 C 
ENDBRANCH  15  19
BRANCH  16  21
ATOM     21  O   UNL     1       5.810   3.797  16.128  0.00  0.00    +0.000 OA
ATOM     22  C   UNL     1       5.895   4.005  14.729  0.00  0.00    +0.000 C 
ENDBRANCH  16  21
BRANCH  17  23
ATOM     23  O   UNL     1       3.853   2.563  17.246  0.00  0.00    +0.000 OA
ATOM     24  C   UNL     1       3.332   1.713  18.256  0.00  0.00    +0.000 C 
ENDBRANCH  17  23
ENDBRANCH   2  13
BRANCH   2  25
ATOM     25  C   UNL     1       1.711   5.783  20.683  0.00  0.00    +0.000 C 
ATOM     26  C   UNL     1       0.759   4.734  20.118  0.00  0.00    +0.000 C 
BRANCH  25  27
ATOM     27  O   UNL     1       2.710   5.149  21.482  0.00  0.00    +0.000 OA
ATOM     28  H   UNL     1       2.628   5.485  22.391  0.00  0.00    +0.000 HD
ENDBRANCH  25  27
ENDBRANCH   2  25
TORSDOF 9
ENDMDL
MODEL 8
REMARK VINA RESULT:      -6.7      0.804      2.916
REMARK  Name = 
REMARK  14 active torsions:
REMARK  status: ('A' for Active; 'I' for Inactive)
REMARK    1  A    between atoms: C_1  and  O_2
REMARK    2  A    between atoms: O_2  and  C_3
REMARK    3  A    between atoms: C_6  and  C_7
REMARK    4  A    between atoms: C_8  and  C_9
REMARK    5  A    between atoms: C_8  and  C_21
REMARK    6  A    between atoms: C_11  and  O_12
REMARK    7  A    between atoms: O_12  and  C_13
REMARK    8  A    between atoms: C_14  and  O_15
REMARK    9  A    between atoms: O_15  and  C_16
REMARK   10  A    between atoms: C_17  and  O_18
REMARK   11  A    between atoms: O_18  and  C_19
REMARK   12  A    between atoms: C_21  and  C_22
REMARK   13  A    between atoms: C_21  and  O_23
REMARK   14  A    between atoms: C_25  and  O_26
REMARK                            x       y       z     vdW  Elec       q    Type
REMARK                         _______ _______ _______ _____ _____    ______ ____
ROOT
ATOM      1  C   UNL     1       1.776   8.774  18.031  0.00  0.00    +0.000 C 
ATOM      2  C   UNL     1       2.155   7.655  18.683  0.00  0.00    +0.000 C 
ENDROOT
BRANCH   1   6
ATOM      3  C   UNL     1      -1.097  11.803  19.065  0.00  0.00    +0.000 A 
ATOM      4  C   UNL     1       0.162  11.770  19.685  0.00  0.00    +0.000 A 
ATOM      5  C   UNL     1       1.101  10.763  19.382  0.00  0.00    +0.000 A 
ATOM      6  C   UNL     1       0.778   9.761  18.468  0.00  0.00    +0.000 A 
ATOM      7  C   UNL     1      -0.495   9.763  17.880  0.00  0.00    +0.000 A 
ATOM      8  C   UNL     1      -1.414  10.786  18.160  0.00  0.00    +0.000 A 
BRANCH   3  10
ATOM      9  C   UNL     1      -1.313  13.787  20.388  0.00  0.00    +0.000 C 
ATOM     10  O   UNL     1      -1.858  12.875  19.445  0.00  0.00    +0.000 OA
ENDBRANCH   3  10
BRANCH   8  11
ATOM     11  O   UNL     1      -2.617  10.760  17.508  0.00  0.00    +0.000 OA
ATOM     12  H   UNL     1      -3.136  11.534  17.781  0.00  0.00    +0.000 HD
ENDBRANCH   8  11
ENDBRANCH   1   6
BRANCH   2  13
ATOM     13  C   UNL     1       3.140   6.768  18.017  0.00  0.00    +0.000 A 
ATOM     14  C   UNL     1       4.367   7.282  17.577  0.00  0.00    +0.000 A 
ATOM     15  C   UNL     1       5.354   6.448  17.023  0.00  0.00    +0.000 A 
ATOM     16  C   UNL     1       5.107   5.062  16.927  0.00  0.00    +0.000 A 
ATOM     17  C   UNL     1       3.854   4.548  17.348  0.00  0.00    +0.000 A 
ATOM     18  C   UNL     1       2.875   5.407  17.862  0.00  0.00    +0.000 A 
BRANCH  15  19
ATOM     19  O   UNL     1       6.557   6.926  16.574  0.00  0.00    +0.000 OA
ATOM     20  C   UNL     1       7.566   7.231  17.526  0.00  0.00    +0.000 C 
ENDBRANCH  15  19
BRANCH  16  21
ATOM     21  O   UNL     1       5.966   4.095  16.458  0.00  0.00    +0.000 OA
ATOM     22  C   UNL     1       6.200   3.960  15.067  0.00  0.00    +0.000 C 
ENDBRANCH  16  21
BRANCH  17  23
ATOM     23  O   UNL     1       3.694   3.185  17.239  0.00  0.00    +0.000 OA
ATOM     24  C   UNL     1       2.471   2.618  17.683  0.00  0.00    +0.000 C 
ENDBRANCH  17  23
ENDBRANCH   2  13
BRANCH   2  25
ATOM     25  C   UNL     1       1.649   7.222  20.046  0.00  0.00    +0.000 C 
ATOM     26  C   UNL     1       1.955   5.758  20.347  0.00  0.00    +0.000 C 
BRANCH  25  27
ATOM     27  O   UNL     1       2.187   8.050  21.078  0.00  0.00    +0.000 OA
ATOM     28  H   UNL     1       1.940   8.971  20.885  0.00  0.00    +0.000 HD
ENDBRANCH  25  27
ENDBRANCH   2  25
TORSDOF 9
ENDMDL
MODEL 9
REMARK VINA RESULT:      -6.6      0.620      2.539
REMARK  Name = 
REMARK  14 active torsions:
REMARK  status: ('A' for Active; 'I' for Inactive)
REMARK    1  A    between atoms: C_1  and  O_2
REMARK    2  A    between atoms: O_2  and  C_3
REMARK    3  A    between atoms: C_6  and  C_7
REMARK    4  A    between atoms: C_8  and  C_9
REMARK    5  A    between atoms: C_8  and  C_21
REMARK    6  A    between atoms: C_11  and  O_12
REMARK    7  A    between atoms: O_12  and  C_13
REMARK    8  A    between atoms: C_14  and  O_15
REMARK    9  A    between atoms: O_15  and  C_16
REMARK   10  A    between atoms: C_17  and  O_18
REMARK   11  A    between atoms: O_18  and  C_19
REMARK   12  A    between atoms: C_21  and  C_22
REMARK   13  A    between atoms: C_21  and  O_23
REMARK   14  A    between atoms: C_25  and  O_26
REMARK                            x       y       z     vdW  Elec       q    Type
REMARK                         _______ _______ _______ _____ _____    ______ ____
ROOT
ATOM      1  C   UNL     1       1.861   8.838  17.866  0.00  0.00    +0.000 C 
ATOM      2  C   UNL     1       2.193   7.731  18.563  0.00  0.00    +0.000 C 
ENDROOT
BRANCH   1   6
ATOM      3  C   UNL     1      -0.935  11.782  19.283  0.00  0.00    +0.000 A 
ATOM      4  C   UNL     1      -1.376  10.680  18.534  0.00  0.00    +0.000 A 
ATOM      5  C   UNL     1      -0.467   9.726  18.032  0.00  0.00    +0.000 A 
ATOM      6  C   UNL     1       0.900   9.878  18.259  0.00  0.00    +0.000 A 
ATOM      7  C   UNL     1       1.349  11.002  18.968  0.00  0.00    +0.000 A 
ATOM      8  C   UNL     1       0.438  11.932  19.492  0.00  0.00    +0.000 A 
BRANCH   3  10
ATOM      9  C   UNL     1      -2.375  12.446  21.078  0.00  0.00    +0.000 C 
ATOM     10  O   UNL     1      -1.958  12.576  19.726  0.00  0.00    +0.000 OA
ENDBRANCH   3  10
BRANCH   8  11
ATOM     11  O   UNL     1       0.940  12.974  20.225  0.00  0.00    +0.000 OA
ATOM     12  H   UNL     1       0.212  13.388  20.716  0.00  0.00    +0.000 HD
ENDBRANCH   8  11
ENDBRANCH   1   6
BRANCH   2  13
ATOM     13  C   UNL     1       3.147   6.782  17.938  0.00  0.00    +0.000 A 
ATOM     14  C   UNL     1       4.409   7.224  17.520  0.00  0.00    +0.000 A 
ATOM     15  C   UNL     1       5.365   6.330  17.006  0.00  0.00    +0.000 A 
ATOM     16  C   UNL     1       5.048   4.957  16.928  0.00  0.00    +0.000 A 
ATOM     17  C   UNL     1       3.760   4.517  17.326  0.00  0.00    +0.000 A 
ATOM     18  C   UNL     1       2.815   5.434  17.800  0.00  0.00    +0.000 A 
BRANCH  15  19
ATOM     19  O   UNL     1       6.601   6.737  16.579  0.00  0.00    +0.000 OA
ATOM     20  C   UNL     1       7.481   7.340  17.517  0.00  0.00    +0.000 C 
ENDBRANCH  15  19
BRANCH  16  21
ATOM     21  O   UNL     1       5.868   3.938  16.498  0.00  0.00    +0.000 OA
ATOM     22  C   UNL     1       6.163   3.793  15.120  0.00  0.00    +0.000 C 
ENDBRANCH  16  21
BRANCH  17  23
ATOM     23  O   UNL     1       3.533   3.162  17.236  0.00  0.00    +0.000 OA
ATOM     24  C   UNL     1       3.364   2.431  18.442  0.00  0.00    +0.000 C 
ENDBRANCH  17  23
ENDBRANCH   2  13
BRANCH   2  25
ATOM     25  C   UNL     1       1.665   7.371  19.939  0.00  0.00    +0.000 C 
ATOM     26  C   UNL     1       2.018   5.944  20.346  0.00  0.00    +0.000 C 
BRANCH  25  27
ATOM     27  O   UNL     1       2.141   8.287  20.925  0.00  0.00    +0.000 OA
ATOM     28  H   UNL     1       2.397   7.777  21.713  0.00  0.00    +0.000 HD
ENDBRANCH  25  27
ENDBRANCH   2  25
TORSDOF 9
ENDMDL
