MODEL 1
REMARK VINA RESULT:      -8.2      0.000      0.000
REMARK  Name = 
REMARK  6 active torsions:
REMARK  status: ('A' for Active; 'I' for Inactive)
REMARK    1  A    between atoms: C_1  and  C_2
REMARK    2  A    between atoms: C_2  and  C_3
REMARK    3  A    between atoms: C_3  and  C_4
REMARK    4  A    between atoms: C_4  and  N_5
REMARK    5  A    between atoms: C_7  and  C_8
REMARK    6  A    between atoms: C_8  and  C_9
REMARK                            x       y       z     vdW  Elec       q    Type
REMARK                         _______ _______ _______ _____ _____    ______ ____
ROOT
ATOM      1  N   UNL     1       5.779   4.752  16.255  0.00  0.00    +0.000 N 
ATOM      2  N   UNL     1       4.939   3.732  16.611  0.00  0.00    +0.000 NA
ATOM      3  C   UNL     1       3.822   4.000  17.217  0.00  0.00    +0.000 A 
ATOM      4  C   UNL     1       3.394   5.378  17.544  0.00  0.00    +0.000 A 
ATOM      5  C   UNL     1       2.187   5.683  18.181  0.00  0.00    +0.000 A 
ATOM      6  C   UNL     1       1.858   7.014  18.463  0.00  0.00    +0.000 A 
ATOM      7  C   UNL     1       2.725   8.043  18.102  0.00  0.00    +0.000 A 
ATOM      8  C   UNL     1       3.926   7.743  17.461  0.00  0.00    +0.000 A 
ATOM      9  C   UNL     1       4.259   6.409  17.187  0.00  0.00    +0.000 A 
ATOM     10  C   UNL     1       5.538   6.095  16.525  0.00  0.00    +0.000 A 
ATOM     11  O   UNL     1       6.319   7.005  16.252  0.00  0.00    +0.000 OA
ENDROOT
BRANCH   1  12
ATOM     12  C   UNL     1       7.050   4.347  15.665  0.00  0.00    +0.000 C 
BRANCH  12  13
ATOM     13  C   UNL     1       7.080   4.539  14.147  0.00  0.00    +0.000 C 
BRANCH  13  15
ATOM     14  C   UNL     1       6.261   3.250  12.142  0.00  0.00    +0.000 C 
ATOM     15  C   UNL     1       5.863   3.938  13.438  0.00  0.00    +0.000 C 
ENDBRANCH  13  15
ENDBRANCH  12  13
ENDBRANCH   1  12
BRANCH   3  16
ATOM     16  C   UNL     1       2.937   2.811  17.572  0.00  0.00    +0.000 C 
BRANCH  16  17
ATOM     17  C   UNL     1       2.415   2.842  18.996  0.00  0.00    +0.000 A 
ATOM     18  C   UNL     1       1.036   3.009  19.233  0.00  0.00    +0.000 A 
ATOM     19  C   UNL     1       0.521   3.030  20.530  0.00  0.00    +0.000 A 
ATOM     20  C   UNL     1       1.369   2.856  21.618  0.00  0.00    +0.000 A 
ATOM     21  C   UNL     1       2.731   2.646  21.405  0.00  0.00    +0.000 A 
ATOM     22  C   UNL     1       3.249   2.631  20.105  0.00  0.00    +0.000 A 
ATOM     23 CL   UNL     1       4.943   2.330  19.937  0.00  0.00    +0.000 Cl
ENDBRANCH  16  17
ENDBRANCH   3  16
TORSDOF 5
ENDMDL
MODEL 2
REMARK VINA RESULT:      -8.2      2.809      5.241
REMARK  Name = 
REMARK  6 active torsions:
REMARK  status: ('A' for Active; 'I' for Inactive)
REMARK    1  A    between atoms: C_1  and  C_2
REMARK    2  A    between atoms: C_2  and  C_3
REMARK    3  A    between atoms: C_3  and  C_4
REMARK    4  A    between atoms: C_4  and  N_5
REMARK    5  A    between atoms: C_7  and  C_8
REMARK    6  A    between atoms: C_8  and  C_9
REMARK                            x       y       z     vdW  Elec       q    Type
REMARK                         _______ _______ _______ _____ _____    ______ ____
ROOT
ATOM      1  N   UNL     1       4.463   5.641  17.480  0.00  0.00    +0.000 N 
ATOM      2  N   UNL     1       3.965   6.466  18.451  0.00  0.00    +0.000 NA
ATOM      3  C   UNL     1       2.979   6.063  19.194  0.00  0.00    +0.000 A 
ATOM      4  C   UNL     1       2.355   4.729  19.050  0.00  0.00    +0.000 A 
ATOM      5  C   UNL     1       1.304   4.275  19.853  0.00  0.00    +0.000 A 
ATOM      6  C   UNL     1       0.762   3.001  19.647  0.00  0.00    +0.000 A 
ATOM      7  C   UNL     1       1.273   2.174  18.649  0.00  0.00    +0.000 A 
ATOM      8  C   UNL     1       2.325   2.620  17.852  0.00  0.00    +0.000 A 
ATOM      9  C   UNL     1       2.861   3.900  18.052  0.00  0.00    +0.000 A 
ATOM     10  C   UNL     1       3.962   4.376  17.194  0.00  0.00    +0.000 A 
ATOM     11  O   UNL     1       4.375   3.658  16.286  0.00  0.00    +0.000 OA
ENDROOT
BRANCH   1  12
ATOM     12  C   UNL     1       5.505   6.216  16.636  0.00  0.00    +0.000 C 
BRANCH  12  13
ATOM     13  C   UNL     1       6.909   5.772  17.054  0.00  0.00    +0.000 C 
BRANCH  13  15
ATOM     14  C   UNL     1       7.771   8.077  17.598  0.00  0.00    +0.000 C 
ATOM     15  C   UNL     1       7.534   6.671  18.124  0.00  0.00    +0.000 C 
ENDBRANCH  13  15
ENDBRANCH  12  13
ENDBRANCH   1  12
BRANCH   3  16
ATOM     16  C   UNL     1       2.487   7.035  20.260  0.00  0.00    +0.000 C 
BRANCH  16  17
ATOM     17  C   UNL     1       1.725   8.220  19.700  0.00  0.00    +0.000 A 
ATOM     18  C   UNL     1       1.710   8.451  18.311  0.00  0.00    +0.000 A 
ATOM     19  C   UNL     1       1.008   9.526  17.762  0.00  0.00    +0.000 A 
ATOM     20  C   UNL     1       0.283  10.377  18.587  0.00  0.00    +0.000 A 
ATOM     21  C   UNL     1       0.248  10.142  19.961  0.00  0.00    +0.000 A 
ATOM     22  C   UNL     1       0.956   9.069  20.513  0.00  0.00    +0.000 A 
ATOM     23 CL   UNL     1       0.827   8.836  22.221  0.00  0.00    +0.000 Cl
ENDBRANCH  16  17
ENDBRANCH   3  16
TORSDOF 5
ENDMDL
MODEL 3
REMARK VINA RESULT:      -8.1      2.982      5.843
REMARK  Name = 
REMARK  6 active torsions:
REMARK  status: ('A' for Active; 'I' for Inactive)
REMARK    1  A    between atoms: C_1  and  C_2
REMARK    2  A    between atoms: C_2  and  C_3
REMARK    3  A    between atoms: C_3  and  C_4
REMARK    4  A    between atoms: C_4  and  N_5
REMARK    5  A    between atoms: C_7  and  C_8
REMARK    6  A    between atoms: C_8  and  C_9
REMARK                            x       y       z     vdW  Elec       q    Type
REMARK                         _______ _______ _______ _____ _____    ______ ____
ROOT
ATOM      1  N   UNL     1       2.441   4.227  17.948  0.00  0.00    +0.000 N 
ATOM      2  N   UNL     1       2.195   5.569  18.054  0.00  0.00    +0.000 NA
ATOM      3  C   UNL     1       3.160   6.417  17.864  0.00  0.00    +0.000 A 
ATOM      4  C   UNL     1       4.539   6.004  17.523  0.00  0.00    +0.000 A 
ATOM      5  C   UNL     1       5.584   6.907  17.299  0.00  0.00    +0.000 A 
ATOM      6  C   UNL     1       6.865   6.435  16.989  0.00  0.00    +0.000 A 
ATOM      7  C   UNL     1       7.104   5.066  16.891  0.00  0.00    +0.000 A 
ATOM      8  C   UNL     1       6.063   4.164  17.107  0.00  0.00    +0.000 A 
ATOM      9  C   UNL     1       4.783   4.637  17.427  0.00  0.00    +0.000 A 
ATOM     10  C   UNL     1       3.689   3.679  17.673  0.00  0.00    +0.000 A 
ATOM     11  O   UNL     1       3.920   2.473  17.632  0.00  0.00    +0.000 OA
ENDROOT
BRANCH   1  12
ATOM     12  C   UNL     1       1.320   3.352  18.272  0.00  0.00    +0.000 C 
BRANCH  12  13
ATOM     13  C   UNL     1       0.760   3.610  19.673  0.00  0.00    +0.000 C 
BRANCH  13  15
ATOM     14  C   UNL     1       2.312   3.665  21.657  0.00  0.00    +0.000 C 
ATOM     15  C   UNL     1       1.454   2.787  20.762  0.00  0.00    +0.000 C 
ENDBRANCH  13  15
ENDBRANCH  12  13
ENDBRANCH   1  12
BRANCH   3  16
ATOM     16  C   UNL     1       2.804   7.894  17.989  0.00  0.00    +0.000 C 
BRANCH  16  17
ATOM     17  C   UNL     1       1.926   8.211  19.185  0.00  0.00    +0.000 A 
ATOM     18  C   UNL     1       1.898   7.333  20.286  0.00  0.00    +0.000 A 
ATOM     19  C   UNL     1       1.111   7.601  21.408  0.00  0.00    +0.000 A 
ATOM     20  C   UNL     1       0.356   8.766  21.464  0.00  0.00    +0.000 A 
ATOM     21  C   UNL     1       0.401   9.671  20.404  0.00  0.00    +0.000 A 
ATOM     22  C   UNL     1       1.186   9.400  19.277  0.00  0.00    +0.000 A 
ATOM     23 CL   UNL     1       1.206  10.595  18.027  0.00  0.00    +0.000 Cl
ENDBRANCH  16  17
ENDBRANCH   3  16
TORSDOF 5
ENDMDL
MODEL 4
REMARK VINA RESULT:      -7.9      1.890      2.845
REMARK  Name = 
REMARK  6 active torsions:
REMARK  status: ('A' for Active; 'I' for Inactive)
REMARK    1  A    between atoms: C_1  and  C_2
REMARK    2  A    between atoms: C_2  and  C_3
REMARK    3  A    between atoms: C_3  and  C_4
REMARK    4  A    between atoms: C_4  and  N_5
REMARK    5  A    between atoms: C_7  and  C_8
REMARK    6  A    between atoms: C_8  and  C_9
REMARK                            x       y       z     vdW  Elec       q    Type
REMARK                         _______ _______ _______ _____ _____    ______ ____
ROOT
ATOM      1  N   UNL     1       6.061   4.105  14.702  0.00  0.00    +0.000 N 
ATOM      2  N   UNL     1       5.182   3.393  15.472  0.00  0.00    +0.000 NA
ATOM      3  C   UNL     1       5.150   3.586  16.756  0.00  0.00    +0.000 A 
ATOM      4  C   UNL     1       6.024   4.561  17.447  0.00  0.00    +0.000 A 
ATOM      5  C   UNL     1       5.988   4.791  18.825  0.00  0.00    +0.000 A 
ATOM      6  C   UNL     1       6.855   5.725  19.404  0.00  0.00    +0.000 A 
ATOM      7  C   UNL     1       7.750   6.439  18.609  0.00  0.00    +0.000 A 
ATOM      8  C   UNL     1       7.783   6.216  17.234  0.00  0.00    +0.000 A 
ATOM      9  C   UNL     1       6.922   5.273  16.656  0.00  0.00    +0.000 A 
ATOM     10  C   UNL     1       6.972   5.028  15.203  0.00  0.00    +0.000 A 
ATOM     11  O   UNL     1       7.797   5.627  14.517  0.00  0.00    +0.000 OA
ENDROOT
BRANCH   1  12
ATOM     12  C   UNL     1       6.090   3.752  13.287  0.00  0.00    +0.000 C 
BRANCH  12  13
ATOM     13  C   UNL     1       4.691   3.689  12.668  0.00  0.00    +0.000 C 
BRANCH  13  15
ATOM     14  C   UNL     1       3.447   3.384  10.499  0.00  0.00    +0.000 C 
ATOM     15  C   UNL     1       4.659   2.970  11.317  0.00  0.00    +0.000 C 
ENDBRANCH  13  15
ENDBRANCH  12  13
ENDBRANCH   1  12
BRANCH   3  16
ATOM     16  C   UNL     1       4.138   2.762  17.544  0.00  0.00    +0.000 C 
BRANCH  16  17
ATOM     17  C   UNL     1       3.292   3.584  18.497  0.00  0.00    +0.000 A 
ATOM     18  C   UNL     1       2.425   4.572  17.990  0.00  0.00    +0.000 A 
ATOM     19  C   UNL     1       1.622   5.337  18.838  0.00  0.00    +0.000 A 
ATOM     20  C   UNL     1       1.648   5.112  20.210  0.00  0.00    +0.000 A 
ATOM     21  C   UNL     1       2.466   4.110  20.730  0.00  0.00    +0.000 A 
ATOM     22  C   UNL     1       3.275   3.346  19.881  0.00  0.00    +0.000 A 
ATOM     23 CL   UNL     1       4.231   2.104  20.611  0.00  0.00    +0.000 Cl
ENDBRANCH  16  17
ENDBRANCH   3  16
TORSDOF 5
ENDMDL
MODEL 5
REMARK VINA RESULT:      -7.9      2.749      5.157
REMARK  Name = 
REMARK  6 active torsions:
REMARK  status: ('A' for Active; 'I' for Inactive)
REMARK    1  A    between atoms: C_1  and  C_2
REMARK    2  A    between atoms: C_2  and  C_3
REMARK    3  A    between atoms: C_3  and  C_4
REMARK    4  A    between atoms: C_4  and  N_5
REMARK    5  A    between atoms: C_7  and  C_8
REMARK    6  A    between atoms: C_8  and  C_9
REMARK                            x       y       z     vdW  Elec       q    Type
REMARK                         _______ _______ _______ _____ _____    ______ ____
ROOT
ATOM      1  N   UNL     1       4.100   5.782  17.560  0.00  0.00    +0.000 N 
ATOM      2  N   UNL     1       3.622   6.630  18.523  0.00  0.00    +0.000 NA
ATOM      3  C   UNL     1       2.696   6.222  19.337  0.00  0.00    +0.000 A 
ATOM      4  C   UNL     1       2.121   4.860  19.286  0.00  0.00    +0.000 A 
ATOM      5  C   UNL     1       1.136   4.402  20.167  0.00  0.00    +0.000 A 
ATOM      6  C   UNL     1       0.637   3.100  20.047  0.00  0.00    +0.000 A 
ATOM      7  C   UNL     1       1.126   2.249  19.058  0.00  0.00    +0.000 A 
ATOM      8  C   UNL     1       2.113   2.700  18.183  0.00  0.00    +0.000 A 
ATOM      9  C   UNL     1       2.605   4.007  18.297  0.00  0.00    +0.000 A 
ATOM     10  C   UNL     1       3.636   4.486  17.358  0.00  0.00    +0.000 A 
ATOM     11  O   UNL     1       4.027   3.745  16.459  0.00  0.00    +0.000 OA
ENDROOT
BRANCH   1  12
ATOM     12  C   UNL     1       5.068   6.358  16.635  0.00  0.00    +0.000 C 
BRANCH  12  13
ATOM     13  C   UNL     1       6.505   6.266  17.156  0.00  0.00    +0.000 C 
BRANCH  13  15
ATOM     14  C   UNL     1       6.993   4.838  15.137  0.00  0.00    +0.000 C 
ATOM     15  C   UNL     1       7.266   5.051  16.617  0.00  0.00    +0.000 C 
ENDBRANCH  13  15
ENDBRANCH  12  13
ENDBRANCH   1  12
BRANCH   3  16
ATOM     16  C   UNL     1       2.225   7.221  20.387  0.00  0.00    +0.000 C 
BRANCH  16  17
ATOM     17  C   UNL     1       1.484   8.411  19.808  0.00  0.00    +0.000 A 
ATOM     18  C   UNL     1       1.704   8.790  18.469  0.00  0.00    +0.000 A 
ATOM     19  C   UNL     1       1.029   9.872  17.902  0.00  0.00    +0.000 A 
ATOM     20  C   UNL     1       0.101  10.583  18.652  0.00  0.00    +0.000 A 
ATOM     21  C   UNL     1      -0.164  10.201  19.966  0.00  0.00    +0.000 A 
ATOM     22  C   UNL     1       0.515   9.119  20.538  0.00  0.00    +0.000 A 
ATOM     23 CL   UNL     1       0.097   8.696  22.161  0.00  0.00    +0.000 Cl
ENDBRANCH  16  17
ENDBRANCH   3  16
TORSDOF 5
ENDMDL
MODEL 6
REMARK VINA RESULT:      -7.8      2.527      4.842
REMARK  Name = 
REMARK  6 active torsions:
REMARK  status: ('A' for Active; 'I' for Inactive)
REMARK    1  A    between atoms: C_1  and  C_2
REMARK    2  A    between atoms: C_2  and  C_3
REMARK    3  A    between atoms: C_3  and  C_4
REMARK    4  A    between atoms: C_4  and  N_5
REMARK    5  A    between atoms: C_7  and  C_8
REMARK    6  A    between atoms: C_8  and  C_9
REMARK                            x       y       z     vdW  Elec       q    Type
REMARK                         _______ _______ _______ _____ _____    ______ ____
ROOT
ATOM      1  N   UNL     1       4.821   4.840  18.106  0.00  0.00    +0.000 N 
ATOM      2  N   UNL     1       4.308   5.793  18.943  0.00  0.00    +0.000 NA
ATOM      3  C   UNL     1       3.149   5.606  19.497  0.00  0.00    +0.000 A 
ATOM      4  C   UNL     1       2.336   4.389  19.274  0.00  0.00    +0.000 A 
ATOM      5  C   UNL     1       1.094   4.167  19.876  0.00  0.00    +0.000 A 
ATOM      6  C   UNL     1       0.383   2.992  19.606  0.00  0.00    +0.000 A 
ATOM      7  C   UNL     1       0.912   2.033  18.745  0.00  0.00    +0.000 A 
ATOM      8  C   UNL     1       2.153   2.248  18.149  0.00  0.00    +0.000 A 
ATOM      9  C   UNL     1       2.861   3.429  18.412  0.00  0.00    +0.000 A 
ATOM     10  C   UNL     1       4.165   3.662  17.765  0.00  0.00    +0.000 A 
ATOM     11  O   UNL     1       4.603   2.832  16.971  0.00  0.00    +0.000 OA
ENDROOT
BRANCH   1  12
ATOM     12  C   UNL     1       6.083   5.180  17.459  0.00  0.00    +0.000 C 
BRANCH  12  13
ATOM     13  C   UNL     1       5.885   5.765  16.058  0.00  0.00    +0.000 C 
BRANCH  13  15
ATOM     14  C   UNL     1       6.092   3.995  14.277  0.00  0.00    +0.000 C 
ATOM     15  C   UNL     1       6.795   5.129  15.004  0.00  0.00    +0.000 C 
ENDBRANCH  13  15
ENDBRANCH  12  13
ENDBRANCH   1  12
BRANCH   3  16
ATOM     16  C   UNL     1       2.650   6.708  20.425  0.00  0.00    +0.000 C 
BRANCH  16  17
ATOM     17  C   UNL     1       1.999   7.869  19.699  0.00  0.00    +0.000 A 
ATOM     18  C   UNL     1       2.120   7.977  18.299  0.00  0.00    +0.000 A 
ATOM     19  C   UNL     1       1.522   9.026  17.598  0.00  0.00    +0.000 A 
ATOM     20  C   UNL     1       0.768   9.975  18.278  0.00  0.00    +0.000 A 
ATOM     21  C   UNL     1       0.598   9.864  19.657  0.00  0.00    +0.000 A 
ATOM     22  C   UNL     1       1.202   8.816  20.361  0.00  0.00    +0.000 A 
ATOM     23 CL   UNL     1       0.909   8.740  22.064  0.00  0.00    +0.000 Cl
ENDBRANCH  16  17
ENDBRANCH   3  16
TORSDOF 5
ENDMDL
MODEL 7
REMARK VINA RESULT:      -7.8      1.199      1.574
REMARK  Name = 
REMARK  6 active torsions:
REMARK  status: ('A' for Active; 'I' for Inactive)
REMARK    1  A    between atoms: C_1  and  C_2
REMARK    2  A    between atoms: C_2  and  C_3
REMARK    3  A    between atoms: C_3  and  C_4
REMARK    4  A    between atoms: C_4  and  N_5
REMARK    5  A    between atoms: C_7  and  C_8
REMARK    6  A    between atoms: C_8  and  C_9
REMARK                            x       y       z     vdW  Elec       q    Type
REMARK                         _______ _______ _______ _____ _____    ______ ____
ROOT
ATOM      1  N   UNL     1       5.648   5.284  16.282  0.00  0.00    +0.000 N 
ATOM      2  N   UNL     1       5.548   4.385  17.310  0.00  0.00    +0.000 NA
ATOM      3  C   UNL     1       4.749   4.631  18.304  0.00  0.00    +0.000 A 
ATOM      4  C   UNL     1       3.917   5.852  18.386  0.00  0.00    +0.000 A 
ATOM      5  C   UNL     1       3.041   6.122  19.442  0.00  0.00    +0.000 A 
ATOM      6  C   UNL     1       2.294   7.306  19.449  0.00  0.00    +0.000 A 
ATOM      7  C   UNL     1       2.411   8.217  18.401  0.00  0.00    +0.000 A 
ATOM      8  C   UNL     1       3.278   7.947  17.344  0.00  0.00    +0.000 A 
ATOM      9  C   UNL     1       4.034   6.766  17.341  0.00  0.00    +0.000 A 
ATOM     10  C   UNL     1       4.964   6.493  16.231  0.00  0.00    +0.000 A 
ATOM     11  O   UNL     1       5.096   7.324  15.334  0.00  0.00    +0.000 OA
ENDROOT
BRANCH   1  12
ATOM     12  C   UNL     1       6.639   4.967  15.260  0.00  0.00    +0.000 C 
BRANCH  12  13
ATOM     13  C   UNL     1       6.336   3.652  14.537  0.00  0.00    +0.000 C 
BRANCH  13  15
ATOM     14  C   UNL     1       6.425   3.285  12.046  0.00  0.00    +0.000 C 
ATOM     15  C   UNL     1       5.615   3.849  13.201  0.00  0.00    +0.000 C 
ENDBRANCH  13  15
ENDBRANCH  12  13
ENDBRANCH   1  12
BRANCH   3  16
ATOM     16  C   UNL     1       4.685   3.578  19.403  0.00  0.00    +0.000 C 
BRANCH  16  17
ATOM     17  C   UNL     1       3.273   3.205  19.811  0.00  0.00    +0.000 A 
ATOM     18  C   UNL     1       2.856   3.393  21.144  0.00  0.00    +0.000 A 
ATOM     19  C   UNL     1       1.559   3.073  21.549  0.00  0.00    +0.000 A 
ATOM     20  C   UNL     1       0.643   2.583  20.626  0.00  0.00    +0.000 A 
ATOM     21  C   UNL     1       1.021   2.430  19.293  0.00  0.00    +0.000 A 
ATOM     22  C   UNL     1       2.322   2.746  18.886  0.00  0.00    +0.000 A 
ATOM     23 CL   UNL     1       2.690   2.556  17.208  0.00  0.00    +0.000 Cl
ENDBRANCH  16  17
ENDBRANCH   3  16
TORSDOF 5
ENDMDL
MODEL 8
REMARK VINA RESULT:      -7.8      1.119      1.515
REMARK  Name = 
REMARK  6 active torsions:
REMARK  status: ('A' for Active; 'I' for Inactive)
REMARK    1  A    between atoms: C_1  and  C_2
REMARK    2  A    between atoms: C_2  and  C_3
REMARK    3  A    between atoms: C_3  and  C_4
REMARK    4  A    between atoms: C_4  and  N_5
REMARK    5  A    between atoms: C_7  and  C_8
REMARK    6  A    between atoms: C_8  and  C_9
REMARK                            x       y       z     vdW  Elec       q    Type
REMARK                         _______ _______ _______ _____ _____    ______ ____
ROOT
ATOM      1  N   UNL     1       5.872   4.908  16.275  0.00  0.00    +0.000 N 
ATOM      2  N   UNL     1       5.079   3.845  16.613  0.00  0.00    +0.000 NA
ATOM      3  C   UNL     1       3.947   4.052  17.215  0.00  0.00    +0.000 A 
ATOM      4  C   UNL     1       3.453   5.404  17.559  0.00  0.00    +0.000 A 
ATOM      5  C   UNL     1       2.230   5.642  18.193  0.00  0.00    +0.000 A 
ATOM      6  C   UNL     1       1.837   6.952  18.492  0.00  0.00    +0.000 A 
ATOM      7  C   UNL     1       2.657   8.026  18.150  0.00  0.00    +0.000 A 
ATOM      8  C   UNL     1       3.874   7.792  17.512  0.00  0.00    +0.000 A 
ATOM      9  C   UNL     1       4.271   6.479  17.222  0.00  0.00    +0.000 A 
ATOM     10  C   UNL     1       5.567   6.234  16.563  0.00  0.00    +0.000 A 
ATOM     11  O   UNL     1       6.305   7.183  16.309  0.00  0.00    +0.000 OA
ENDROOT
BRANCH   1  12
ATOM     12  C   UNL     1       7.163   4.571  15.688  0.00  0.00    +0.000 C 
BRANCH  12  13
ATOM     13  C   UNL     1       7.156   4.667  14.160  0.00  0.00    +0.000 C 
BRANCH  13  15
ATOM     14  C   UNL     1       6.420   3.421  12.097  0.00  0.00    +0.000 C 
ATOM     15  C   UNL     1       6.044   3.841  13.508  0.00  0.00    +0.000 C 
ENDBRANCH  13  15
ENDBRANCH  12  13
ENDBRANCH   1  12
BRANCH   3  16
ATOM     16  C   UNL     1       3.117   2.818  17.548  0.00  0.00    +0.000 C 
BRANCH  16  17
ATOM     17  C   UNL     1       2.854   2.640  19.031  0.00  0.00    +0.000 A 
ATOM     18  C   UNL     1       3.937   2.563  19.930  0.00  0.00    +0.000 A 
ATOM     19  C   UNL     1       3.730   2.412  21.302  0.00  0.00    +0.000 A 
ATOM     20  C   UNL     1       2.437   2.363  21.809  0.00  0.00    +0.000 A 
ATOM     21  C   UNL     1       1.351   2.481  20.943  0.00  0.00    +0.000 A 
ATOM     22  C   UNL     1       1.557   2.627  19.567  0.00  0.00    +0.000 A 
ATOM     23 CL   UNL     1       0.151   2.799  18.575  0.00  0.00    +0.000 Cl
ENDBRANCH  16  17
ENDBRANCH   3  16
TORSDOF 5
ENDMDL
MODEL 9
REMARK VINA RESULT:      -7.7      3.251      5.130
REMARK  Name = 
REMARK  6 active torsions:
REMARK  status: ('A' for Active; 'I' for Inactive)
REMARK    1  A    between atoms: C_1  and  C_2
REMARK    2  A    between atoms: C_2  and  C_3
REMARK    3  A    between atoms: C_3  and  C_4
REMARK    4  A    between atoms: C_4  and  N_5
REMARK    5  A    between atoms: C_7  and  C_8
REMARK    6  A    between atoms: C_8  and  C_9
REMARK                            x       y       z     vdW  Elec       q    Type
REMARK                         _______ _______ _______ _____ _____    ______ ____
ROOT
ATOM      1  N   UNL     1       5.275   5.151  19.226  0.00  0.00    +0.000 N 
ATOM      2  N   UNL     1       4.485   6.188  18.809  0.00  0.00    +0.000 NA
ATOM      3  C   UNL     1       3.235   5.973  18.533  0.00  0.00    +0.000 A 
ATOM      4  C   UNL     1       2.600   4.642  18.655  0.00  0.00    +0.000 A 
ATOM      5  C   UNL     1       1.251   4.400  18.377  0.00  0.00    +0.000 A 
ATOM      6  C   UNL     1       0.728   3.109  18.509  0.00  0.00    +0.000 A 
ATOM      7  C   UNL     1       1.544   2.059  18.928  0.00  0.00    +0.000 A 
ATOM      8  C   UNL     1       2.887   2.299  19.211  0.00  0.00    +0.000 A 
ATOM      9  C   UNL     1       3.413   3.591  19.070  0.00  0.00    +0.000 A 
ATOM     10  C   UNL     1       4.839   3.837  19.354  0.00  0.00    +0.000 A 
ATOM     11  O   UNL     1       5.563   2.897  19.676  0.00  0.00    +0.000 OA
ENDROOT
BRANCH   1  12
ATOM     12  C   UNL     1       6.685   5.469  19.420  0.00  0.00    +0.000 C 
BRANCH  12  13
ATOM     13  C   UNL     1       7.496   5.353  18.127  0.00  0.00    +0.000 C 
BRANCH  13  15
ATOM     14  C   UNL     1       7.780   7.814  17.667  0.00  0.00    +0.000 C 
ATOM     15  C   UNL     1       7.233   6.497  17.144  0.00  0.00    +0.000 C 
ENDBRANCH  13  15
ENDBRANCH  12  13
ENDBRANCH   1  12
BRANCH   3  16
ATOM     16  C   UNL     1       2.419   7.180  18.084  0.00  0.00    +0.000 C 
BRANCH  16  17
ATOM     17  C   UNL     1       1.807   7.963  19.230  0.00  0.00    +0.000 A 
ATOM     18  C   UNL     1       1.667   7.360  20.496  0.00  0.00    +0.000 A 
ATOM     19  C   UNL     1       1.120   8.057  21.574  0.00  0.00    +0.000 A 
ATOM     20  C   UNL     1       0.725   9.380  21.418  0.00  0.00    +0.000 A 
ATOM     21  C   UNL     1       0.893  10.011  20.187  0.00  0.00    +0.000 A 
ATOM     22  C   UNL     1       1.437   9.312  19.103  0.00  0.00    +0.000 A 
ATOM     23 CL   UNL     1       1.639  10.185  17.625  0.00  0.00    +0.000 Cl
ENDBRANCH  16  17
ENDBRANCH   3  16
TORSDOF 5
ENDMDL
