MODEL 1
REMARK VINA RESULT:      -7.4      0.000      0.000
REMARK  Name = 
REMARK  7 active torsions:
REMARK  status: ('A' for Active; 'I' for Inactive)
REMARK    1  A    between atoms: C_1  and  C_2
REMARK    2  A    between atoms: C_2  and  N_3
REMARK    3  A    between atoms: C_2  and  C_21
REMARK    4  A    between atoms: N_6  and  C_7
REMARK    5  A    between atoms: N_6  and  C_14
REMARK    6  A    between atoms: C_7  and  C_8
REMARK    7  A    between atoms: N_17  and  C_18
REMARK                            x       y       z     vdW  Elec       q    Type
REMARK                         _______ _______ _______ _____ _____    ______ ____
ROOT
ATOM      1  N   UNL     1       1.477   8.771  19.118  0.00  0.00    +0.000 N 
ATOM      2  C   UNL     1       2.364   8.563  18.095  0.00  0.00    +0.000 C 
ATOM      3  O   UNL     1       2.648   9.437  17.281  0.00  0.00    +0.000 OA
ATOM      4  N   UNL     1       2.900   7.265  18.049  0.00  0.00    +0.000 N 
ATOM      5  H   UNL     1       1.802   8.374  19.983  0.00  0.00    +0.000 HD
ENDROOT
BRANCH   4   6
ATOM      6  C   UNL     1       2.333   6.143  18.838  0.00  0.00    +0.000 C 
ATOM      7  C   UNL     1       3.200   5.688  20.014  0.00  0.00    +0.000 C 
ATOM      8  C   UNL     1       2.511   4.547  20.764  0.00  0.00    +0.000 C 
ATOM      9  N   UNL     1       2.240   3.425  19.857  0.00  0.00    +0.000 NA
ATOM     10  C   UNL     1       1.678   2.293  20.593  0.00  0.00    +0.000 C 
ATOM     11  C   UNL     1       1.346   3.823  18.762  0.00  0.00    +0.000 C 
ATOM     12  C   UNL     1       1.960   4.955  17.939  0.00  0.00    +0.000 C 
ENDBRANCH   4   6
BRANCH   1  14
ATOM     13  C   UNL     1      -0.444  10.244  18.429  0.00  0.00    +0.000 C 
ATOM     14  C   UNL     1       0.764  10.026  19.342  0.00  0.00    +0.000 C 
BRANCH  14  15
ATOM     15  C   UNL     1       0.309   9.997  20.790  0.00  0.00    +0.000 A 
ATOM     16  C   UNL     1       0.536   9.022  21.749  0.00  0.00    +0.000 A 
ATOM     17  C   UNL     1      -0.072   9.330  23.001  0.00  0.00    +0.000 A 
ATOM     18  C   UNL     1      -0.738  10.534  22.963  0.00  0.00    +0.000 A 
ATOM     19  S   UNL     1      -0.620  11.287  21.432  0.00  0.00    +0.000 S 
ENDBRANCH  14  15
ENDBRANCH   1  14
BRANCH   4  20
ATOM     20  C   UNL     1       3.721   6.928  16.869  0.00  0.00    +0.000 C 
BRANCH  20  21
ATOM     21  C   UNL     1       5.102   6.380  17.164  0.00  0.00    +0.000 A 
ATOM     22  C   UNL     1       5.369   5.016  16.989  0.00  0.00    +0.000 A 
ATOM     23  C   UNL     1       6.670   4.553  17.144  0.00  0.00    +0.000 A 
ATOM     24  N   UNL     1       7.714   5.347  17.461  0.00  0.00    +0.000 NA
ATOM     25  C   UNL     1       7.443   6.659  17.617  0.00  0.00    +0.000 A 
ATOM     26  C   UNL     1       6.178   7.217  17.480  0.00  0.00    +0.000 A 
ENDBRANCH  20  21
ENDBRANCH   4  20
TORSDOF 5
ENDMDL
MODEL 2
REMARK VINA RESULT:      -7.2      0.682      1.259
REMARK  Name = 
REMARK  7 active torsions:
REMARK  status: ('A' for Active; 'I' for Inactive)
REMARK    1  A    between atoms: C_1  and  C_2
REMARK    2  A    between atoms: C_2  and  N_3
REMARK    3  A    between atoms: C_2  and  C_21
REMARK    4  A    between atoms: N_6  and  C_7
REMARK    5  A    between atoms: N_6  and  C_14
REMARK    6  A    between atoms: C_7  and  C_8
REMARK    7  A    between atoms: N_17  and  C_18
REMARK                            x       y       z     vdW  Elec       q    Type
REMARK                         _______ _______ _______ _____ _____    ______ ____
ROOT
ATOM      1  N   UNL     1       1.577   8.769  19.083  0.00  0.00    +0.000 N 
ATOM      2  C   UNL     1       2.438   8.561  18.037  0.00  0.00    +0.000 C 
ATOM      3  O   UNL     1       2.699   9.435  17.215  0.00  0.00    +0.000 OA
ATOM      4  N   UNL     1       2.975   7.264  17.979  0.00  0.00    +0.000 N 
ATOM      5  H   UNL     1       1.926   8.374  19.940  0.00  0.00    +0.000 HD
ENDROOT
BRANCH   4   6
ATOM      6  C   UNL     1       2.430   6.142  18.784  0.00  0.00    +0.000 C 
ATOM      7  C   UNL     1       3.354   5.652  19.902  0.00  0.00    +0.000 C 
ATOM      8  C   UNL     1       2.685   4.514  20.675  0.00  0.00    +0.000 C 
ATOM      9  N   UNL     1       2.339   3.411  19.769  0.00  0.00    +0.000 NA
ATOM     10  C   UNL     1       1.796   2.280  20.521  0.00  0.00    +0.000 C 
ATOM     11  C   UNL     1       1.392   3.844  18.732  0.00  0.00    +0.000 C 
ATOM     12  C   UNL     1       1.982   4.975  17.891  0.00  0.00    +0.000 C 
ENDBRANCH   4   6
BRANCH   1  14
ATOM     13  C   UNL     1      -0.346  10.251  18.423  0.00  0.00    +0.000 C 
ATOM     14  C   UNL     1       0.869  10.023  19.324  0.00  0.00    +0.000 C 
BRANCH  14  15
ATOM     15  C   UNL     1       0.426   9.982  20.776  0.00  0.00    +0.000 A 
ATOM     16  C   UNL     1      -0.507  10.780  21.419  0.00  0.00    +0.000 A 
ATOM     17  C   UNL     1      -0.642  10.462  22.802  0.00  0.00    +0.000 A 
ATOM     18  C   UNL     1       0.186   9.428  23.172  0.00  0.00    +0.000 A 
ATOM     19  S   UNL     1       1.110   8.840  21.857  0.00  0.00    +0.000 S 
ENDBRANCH  14  15
ENDBRANCH   1  14
BRANCH   4  20
ATOM     20  C   UNL     1       3.765   6.927  16.779  0.00  0.00    +0.000 C 
BRANCH  20  21
ATOM     21  C   UNL     1       5.159   6.393  17.037  0.00  0.00    +0.000 A 
ATOM     22  C   UNL     1       6.154   7.241  17.543  0.00  0.00    +0.000 A 
ATOM     23  C   UNL     1       7.388   6.707  17.890  0.00  0.00    +0.000 A 
ATOM     24  N   UNL     1       7.700   5.400  17.767  0.00  0.00    +0.000 NA
ATOM     25  C   UNL     1       6.730   4.595  17.287  0.00  0.00    +0.000 A 
ATOM     26  C   UNL     1       5.464   5.033  16.917  0.00  0.00    +0.000 A 
ENDBRANCH  20  21
ENDBRANCH   4  20
TORSDOF 5
ENDMDL
MODEL 3
REMARK VINA RESULT:      -7.0      0.911      1.054
REMARK  Name = 
REMARK  7 active torsions:
REMARK  status: ('A' for Active; 'I' for Inactive)
REMARK    1  A    between atoms: C_1  and  C_2
REMARK    2  A    between atoms: C_2  and  N_3
REMARK    3  A    between atoms: C_2  and  C_21
REMARK    4  A    between atoms: N_6  and  C_7
REMARK    5  A    between atoms: N_6  and  C_14
REMARK    6  A    between atoms: C_7  and  C_8
REMARK    7  A    between atoms: N_17  and  C_18
REMARK                            x       y       z     vdW  Elec       q    Type
REMARK                         _______ _______ _______ _____ _____    ______ ____
ROOT
ATOM      1  N   UNL     1       1.311   8.755  19.014  0.00  0.00    +0.000 N 
ATOM      2  C   UNL     1       2.357   8.549  18.153  0.00  0.00    +0.000 C 
ATOM      3  O   UNL     1       2.786   9.431  17.414  0.00  0.00    +0.000 OA
ATOM      4  N   UNL     1       2.878   7.244  18.178  0.00  0.00    +0.000 N 
ATOM      5  H   UNL     1       1.480   8.341  19.915  0.00  0.00    +0.000 HD
ENDROOT
BRANCH   4   6
ATOM      6  C   UNL     1       2.172   6.120  18.840  0.00  0.00    +0.000 C 
ATOM      7  C   UNL     1       2.675   5.791  20.248  0.00  0.00    +0.000 C 
ATOM      8  C   UNL     1       1.865   4.635  20.838  0.00  0.00    +0.000 C 
ATOM      9  N   UNL     1       1.947   3.454  19.970  0.00  0.00    +0.000 NA
ATOM     10  C   UNL     1       1.263   2.316  20.585  0.00  0.00    +0.000 C 
ATOM     11  C   UNL     1       1.398   3.727  18.636  0.00  0.00    +0.000 C 
ATOM     12  C   UNL     1       2.159   4.864  17.955  0.00  0.00    +0.000 C 
ENDBRANCH   4   6
BRANCH   1  14
ATOM     13  C   UNL     1      -0.637  10.137  18.224  0.00  0.00    +0.000 C 
ATOM     14  C   UNL     1       0.586  10.017  19.135  0.00  0.00    +0.000 C 
BRANCH  14  15
ATOM     15  C   UNL     1       0.152  10.113  20.587  0.00  0.00    +0.000 A 
ATOM     16  C   UNL     1      -0.642  11.076  21.191  0.00  0.00    +0.000 A 
ATOM     17  C   UNL     1      -0.815  10.849  22.587  0.00  0.00    +0.000 A 
ATOM     18  C   UNL     1      -0.156   9.717  23.007  0.00  0.00    +0.000 A 
ATOM     19  S   UNL     1       0.657   8.931  21.722  0.00  0.00    +0.000 S 
ENDBRANCH  14  15
ENDBRANCH   1  14
BRANCH   4  20
ATOM     20  C   UNL     1       3.884   6.913  17.149  0.00  0.00    +0.000 C 
BRANCH  20  21
ATOM     21  C   UNL     1       5.305   6.750  17.647  0.00  0.00    +0.000 A 
ATOM     22  C   UNL     1       5.656   5.635  18.420  0.00  0.00    +0.000 A 
ATOM     23  C   UNL     1       6.988   5.438  18.762  0.00  0.00    +0.000 A 
ATOM     24  N   UNL     1       7.986   6.269  18.396  0.00  0.00    +0.000 NA
ATOM     25  C   UNL     1       7.634   7.334  17.645  0.00  0.00    +0.000 A 
ATOM     26  C   UNL     1       6.331   7.613  17.249  0.00  0.00    +0.000 A 
ENDBRANCH  20  21
ENDBRANCH   4  20
TORSDOF 5
ENDMDL
MODEL 4
REMARK VINA RESULT:      -6.7      1.094      1.240
REMARK  Name = 
REMARK  7 active torsions:
REMARK  status: ('A' for Active; 'I' for Inactive)
REMARK    1  A    between atoms: C_1  and  C_2
REMARK    2  A    between atoms: C_2  and  N_3
REMARK    3  A    between atoms: C_2  and  C_21
REMARK    4  A    between atoms: N_6  and  C_7
REMARK    5  A    between atoms: N_6  and  C_14
REMARK    6  A    between atoms: C_7  and  C_8
REMARK    7  A    between atoms: N_17  and  C_18
REMARK                            x       y       z     vdW  Elec       q    Type
REMARK                         _______ _______ _______ _____ _____    ______ ____
ROOT
ATOM      1  N   UNL     1       1.897   8.039  19.119  0.00  0.00    +0.000 N 
ATOM      2  C   UNL     1       2.581   7.479  18.072  0.00  0.00    +0.000 C 
ATOM      3  O   UNL     1       2.920   8.126  17.085  0.00  0.00    +0.000 OA
ATOM      4  N   UNL     1       2.840   6.105  18.218  0.00  0.00    +0.000 N 
ATOM      5  H   UNL     1       2.251   7.727  20.008  0.00  0.00    +0.000 HD
ENDROOT
BRANCH   4   6
ATOM      6  C   UNL     1       2.174   5.278  19.254  0.00  0.00    +0.000 C 
ATOM      7  C   UNL     1       2.949   5.157  20.569  0.00  0.00    +0.000 C 
ATOM      8  C   UNL     1       2.163   4.303  21.565  0.00  0.00    +0.000 C 
ATOM      9  N   UNL     1       1.890   2.975  21.000  0.00  0.00    +0.000 NA
ATOM     10  C   UNL     1       1.232   2.121  21.990  0.00  0.00    +0.000 C 
ATOM     11  C   UNL     1       1.081   3.066  19.777  0.00  0.00    +0.000 C 
ATOM     12  C   UNL     1       1.797   3.892  18.710  0.00  0.00    +0.000 C 
ENDBRANCH   4   6
BRANCH   1  14
ATOM     13  C   UNL     1       0.479   9.846  18.092  0.00  0.00    +0.000 C 
ATOM     14  C   UNL     1       1.482   9.438  19.173  0.00  0.00    +0.000 C 
BRANCH  14  15
ATOM     15  C   UNL     1       0.865   9.640  20.545  0.00  0.00    +0.000 A 
ATOM     16  C   UNL     1       0.839   8.765  21.620  0.00  0.00    +0.000 A 
ATOM     17  C   UNL     1       0.141   9.295  22.743  0.00  0.00    +0.000 A 
ATOM     18  C   UNL     1      -0.339  10.561  22.496  0.00  0.00    +0.000 A 
ATOM     19  S   UNL     1       0.060  11.105  20.924  0.00  0.00    +0.000 S 
ENDBRANCH  14  15
ENDBRANCH   1  14
BRANCH   4  20
ATOM     20  C   UNL     1       3.413   5.411  17.048  0.00  0.00    +0.000 C 
BRANCH  20  21
ATOM     21  C   UNL     1       4.925   5.340  17.001  0.00  0.00    +0.000 A 
ATOM     22  C   UNL     1       5.661   5.212  18.187  0.00  0.00    +0.000 A 
ATOM     23  C   UNL     1       7.035   5.024  18.117  0.00  0.00    +0.000 A 
ATOM     24  N   UNL     1       7.724   4.958  16.958  0.00  0.00    +0.000 NA
ATOM     25  C   UNL     1       7.002   5.075  15.825  0.00  0.00    +0.000 A 
ATOM     26  C   UNL     1       5.625   5.261  15.792  0.00  0.00    +0.000 A 
ENDBRANCH  20  21
ENDBRANCH   4  20
TORSDOF 5
ENDMDL
MODEL 5
REMARK VINA RESULT:      -6.1      0.754      1.496
REMARK  Name = 
REMARK  7 active torsions:
REMARK  status: ('A' for Active; 'I' for Inactive)
REMARK    1  A    between atoms: C_1  and  C_2
REMARK    2  A    between atoms: C_2  and  N_3
REMARK    3  A    between atoms: C_2  and  C_21
REMARK    4  A    between atoms: N_6  and  C_7
REMARK    5  A    between atoms: N_6  and  C_14
REMARK    6  A    between atoms: C_7  and  C_8
REMARK    7  A    between atoms: N_17  and  C_18
REMARK                            x       y       z     vdW  Elec       q    Type
REMARK                         _______ _______ _______ _____ _____    ______ ____
ROOT
ATOM      1  N   UNL     1       1.761   8.487  18.867  0.00  0.00    +0.000 N 
ATOM      2  C   UNL     1       2.692   8.482  17.862  0.00  0.00    +0.000 C 
ATOM      3  O   UNL     1       2.848   9.435  17.104  0.00  0.00    +0.000 OA
ATOM      4  N   UNL     1       3.433   7.292  17.766  0.00  0.00    +0.000 N 
ATOM      5  H   UNL     1       2.127   8.100  19.720  0.00  0.00    +0.000 HD
ENDROOT
BRANCH   4   6
ATOM      6  C   UNL     1       3.039   6.051  18.478  0.00  0.00    +0.000 C 
ATOM      7  C   UNL     1       1.862   5.301  17.848  0.00  0.00    +0.000 C 
ATOM      8  C   UNL     1       1.558   4.035  18.650  0.00  0.00    +0.000 C 
ATOM      9  N   UNL     1       1.267   4.370  20.050  0.00  0.00    +0.000 NA
ATOM     10  C   UNL     1       0.872   3.173  20.793  0.00  0.00    +0.000 C 
ATOM     11  C   UNL     1       2.414   5.023  20.695  0.00  0.00    +0.000 C 
ATOM     12  C   UNL     1       2.785   6.316  19.969  0.00  0.00    +0.000 C 
ENDBRANCH   4   6
BRANCH   1  14
ATOM     13  C   UNL     1      -0.408   9.610  18.263  0.00  0.00    +0.000 C 
ATOM     14  C   UNL     1       0.850   9.596  19.134  0.00  0.00    +0.000 C 
BRANCH  14  15
ATOM     15  C   UNL     1       0.456   9.473  20.595  0.00  0.00    +0.000 A 
ATOM     16  C   UNL     1       0.391   8.333  21.381  0.00  0.00    +0.000 A 
ATOM     17  C   UNL     1      -0.047   8.606  22.710  0.00  0.00    +0.000 A 
ATOM     18  C   UNL     1      -0.295   9.946  22.901  0.00  0.00    +0.000 A 
ATOM     19  S   UNL     1       0.007  10.865  21.491  0.00  0.00    +0.000 S 
ENDBRANCH  14  15
ENDBRANCH   1  14
BRANCH   4  20
ATOM     20  C   UNL     1       4.323   7.158  16.596  0.00  0.00    +0.000 C 
BRANCH  20  21
ATOM     21  C   UNL     1       5.545   6.286  16.795  0.00  0.00    +0.000 A 
ATOM     22  C   UNL     1       6.431   6.547  17.850  0.00  0.00    +0.000 A 
ATOM     23  C   UNL     1       7.476   5.664  18.093  0.00  0.00    +0.000 A 
ATOM     24  N   UNL     1       7.702   4.552  17.363  0.00  0.00    +0.000 NA
ATOM     25  C   UNL     1       6.836   4.310  16.357  0.00  0.00    +0.000 A 
ATOM     26  C   UNL     1       5.760   5.129  16.039  0.00  0.00    +0.000 A 
ENDBRANCH  20  21
ENDBRANCH   4  20
TORSDOF 5
ENDMDL
MODEL 6
REMARK VINA RESULT:      -6.1      3.920      7.227
REMARK  Name = 
REMARK  7 active torsions:
REMARK  status: ('A' for Active; 'I' for Inactive)
REMARK    1  A    between atoms: C_1  and  C_2
REMARK    2  A    between atoms: C_2  and  N_3
REMARK    3  A    between atoms: C_2  and  C_21
REMARK    4  A    between atoms: N_6  and  C_7
REMARK    5  A    between atoms: N_6  and  C_14
REMARK    6  A    between atoms: C_7  and  C_8
REMARK    7  A    between atoms: N_17  and  C_18
REMARK                            x       y       z     vdW  Elec       q    Type
REMARK                         _______ _______ _______ _____ _____    ______ ____
ROOT
ATOM      1  N   UNL     1       1.734  12.669  19.988  0.00  0.00    +0.000 N 
ATOM      2  C   UNL     1       0.402  12.356  19.922  0.00  0.00    +0.000 C 
ATOM      3  O   UNL     1      -0.477  13.142  20.266  0.00  0.00    +0.000 OA
ATOM      4  N   UNL     1       0.134  11.060  19.449  0.00  0.00    +0.000 N 
ATOM      5  H   UNL     1       2.232  12.364  19.169  0.00  0.00    +0.000 HD
ENDROOT
BRANCH   4   6
ATOM      6  C   UNL     1       1.192  10.027  19.326  0.00  0.00    +0.000 C 
ATOM      7  C   UNL     1       1.492   9.589  17.890  0.00  0.00    +0.000 C 
ATOM      8  C   UNL     1       2.606   8.541  17.882  0.00  0.00    +0.000 C 
ATOM      9  N   UNL     1       2.231   7.386  18.707  0.00  0.00    +0.000 NA
ATOM     10  C   UNL     1       3.247   6.338  18.616  0.00  0.00    +0.000 C 
ATOM     11  C   UNL     1       2.013   7.773  20.107  0.00  0.00    +0.000 C 
ATOM     12  C   UNL     1       0.898   8.812  20.219  0.00  0.00    +0.000 C 
ENDBRANCH   4   6
BRANCH   1  14
ATOM     13  C   UNL     1       3.482  13.817  21.388  0.00  0.00    +0.000 C 
ATOM     14  C   UNL     1       2.254  13.941  20.484  0.00  0.00    +0.000 C 
BRANCH  14  15
ATOM     15  C   UNL     1       2.606  14.758  19.254  0.00  0.00    +0.000 A 
ATOM     16  C   UNL     1       3.530  14.473  18.261  0.00  0.00    +0.000 A 
ATOM     17  C   UNL     1       3.605  15.495  17.271  0.00  0.00    +0.000 A 
ATOM     18  C   UNL     1       2.733  16.526  17.532  0.00  0.00    +0.000 A 
ATOM     19  S   UNL     1       1.825  16.255  18.957  0.00  0.00    +0.000 S 
ENDBRANCH  14  15
ENDBRANCH   1  14
BRANCH   4  20
ATOM     20  C   UNL     1      -1.267  10.604  19.525  0.00  0.00    +0.000 C 
BRANCH  20  21
ATOM     21  C   UNL     1      -2.074  10.745  18.251  0.00  0.00    +0.000 A 
ATOM     22  C   UNL     1      -1.784   9.941  17.141  0.00  0.00    +0.000 A 
ATOM     23  C   UNL     1      -2.613   9.996  16.027  0.00  0.00    +0.000 A 
ATOM     24  N   UNL     1      -3.697  10.793  15.940  0.00  0.00    +0.000 NA
ATOM     25  C   UNL     1      -3.969  11.556  17.019  0.00  0.00    +0.000 A 
ATOM     26  C   UNL     1      -3.204  11.567  18.179  0.00  0.00    +0.000 A 
ENDBRANCH  20  21
ENDBRANCH   4  20
TORSDOF 5
ENDMDL
MODEL 7
REMARK VINA RESULT:      -6.0      4.105      6.029
REMARK  Name = 
REMARK  7 active torsions:
REMARK  status: ('A' for Active; 'I' for Inactive)
REMARK    1  A    between atoms: C_1  and  C_2
REMARK    2  A    between atoms: C_2  and  N_3
REMARK    3  A    between atoms: C_2  and  C_21
REMARK    4  A    between atoms: N_6  and  C_7
REMARK    5  A    between atoms: N_6  and  C_14
REMARK    6  A    between atoms: C_7  and  C_8
REMARK    7  A    between atoms: N_17  and  C_18
REMARK                            x       y       z     vdW  Elec       q    Type
REMARK                         _______ _______ _______ _____ _____    ______ ____
ROOT
ATOM      1  N   UNL     1       3.217   5.102  17.837  0.00  0.00    +0.000 N 
ATOM      2  C   UNL     1       3.912   4.238  17.032  0.00  0.00    +0.000 C 
ATOM      3  O   UNL     1       3.430   3.186  16.624  0.00  0.00    +0.000 OA
ATOM      4  N   UNL     1       5.222   4.652  16.736  0.00  0.00    +0.000 N 
ATOM      5  H   UNL     1       3.348   6.061  17.560  0.00  0.00    +0.000 HD
ENDROOT
BRANCH   4   6
ATOM      6  C   UNL     1       5.891   5.756  17.467  0.00  0.00    +0.000 C 
ATOM      7  C   UNL     1       5.965   7.078  16.700  0.00  0.00    +0.000 C 
ATOM      8  C   UNL     1       6.652   8.144  17.554  0.00  0.00    +0.000 C 
ATOM      9  N   UNL     1       7.995   7.699  17.948  0.00  0.00    +0.000 NA
ATOM     10  C   UNL     1       8.695   8.759  18.674  0.00  0.00    +0.000 C 
ATOM     11  C   UNL     1       7.941   6.471  18.752  0.00  0.00    +0.000 C 
ATOM     12  C   UNL     1       7.280   5.336  17.971  0.00  0.00    +0.000 C 
ENDBRANCH   4   6
BRANCH   1  14
ATOM     13  C   UNL     1       0.943   4.168  17.298  0.00  0.00    +0.000 C 
ATOM     14  C   UNL     1       1.855   4.866  18.309  0.00  0.00    +0.000 C 
BRANCH  14  15
ATOM     15  C   UNL     1       1.986   4.010  19.555  0.00  0.00    +0.000 A 
ATOM     16  C   UNL     1       0.984   3.529  20.384  0.00  0.00    +0.000 A 
ATOM     17  C   UNL     1       1.494   2.775  21.481  0.00  0.00    +0.000 A 
ATOM     18  C   UNL     1       2.866   2.695  21.453  0.00  0.00    +0.000 A 
ATOM     19  S   UNL     1       3.532   3.516  20.108  0.00  0.00    +0.000 S 
ENDBRANCH  14  15
ENDBRANCH   1  14
BRANCH   4  20
ATOM     20  C   UNL     1       6.078   3.682  16.024  0.00  0.00    +0.000 C 
BRANCH  20  21
ATOM     21  C   UNL     1       6.380   4.010  14.577  0.00  0.00    +0.000 A 
ATOM     22  C   UNL     1       7.400   4.918  14.259  0.00  0.00    +0.000 A 
ATOM     23  C   UNL     1       7.746   5.112  12.928  0.00  0.00    +0.000 A 
ATOM     24  N   UNL     1       7.151   4.474  11.899  0.00  0.00    +0.000 NA
ATOM     25  C   UNL     1       6.177   3.597  12.220  0.00  0.00    +0.000 A 
ATOM     26  C   UNL     1       5.763   3.332  13.520  0.00  0.00    +0.000 A 
ENDBRANCH  20  21
ENDBRANCH   4  20
TORSDOF 5
ENDMDL
MODEL 8
REMARK VINA RESULT:      -5.8      1.036      1.463
REMARK  Name = 
REMARK  7 active torsions:
REMARK  status: ('A' for Active; 'I' for Inactive)
REMARK    1  A    between atoms: C_1  and  C_2
REMARK    2  A    between atoms: C_2  and  N_3
REMARK    3  A    between atoms: C_2  and  C_21
REMARK    4  A    between atoms: N_6  and  C_7
REMARK    5  A    between atoms: N_6  and  C_14
REMARK    6  A    between atoms: C_7  and  C_8
REMARK    7  A    between atoms: N_17  and  C_18
REMARK                            x       y       z     vdW  Elec       q    Type
REMARK                         _______ _______ _______ _____ _____    ______ ____
ROOT
ATOM      1  N   UNL     1       1.806   8.419  18.951  0.00  0.00    +0.000 N 
ATOM      2  C   UNL     1       2.707   8.396  17.919  0.00  0.00    +0.000 C 
ATOM      3  O   UNL     1       2.849   9.339  17.147  0.00  0.00    +0.000 OA
ATOM      4  N   UNL     1       3.434   7.197  17.813  0.00  0.00    +0.000 N 
ATOM      5  H   UNL     1       2.194   8.037  19.797  0.00  0.00    +0.000 HD
ENDROOT
BRANCH   4   6
ATOM      6  C   UNL     1       3.049   5.968  18.549  0.00  0.00    +0.000 C 
ATOM      7  C   UNL     1       1.963   5.130  17.869  0.00  0.00    +0.000 C 
ATOM      8  C   UNL     1       1.663   3.884  18.702  0.00  0.00    +0.000 C 
ATOM      9  N   UNL     1       1.252   4.260  20.061  0.00  0.00    +0.000 NA
ATOM     10  C   UNL     1       0.862   3.075  20.826  0.00  0.00    +0.000 C 
ATOM     11  C   UNL     1       2.312   4.999  20.758  0.00  0.00    +0.000 C 
ATOM     12  C   UNL     1       2.671   6.279  20.005  0.00  0.00    +0.000 C 
ENDBRANCH   4   6
BRANCH   1  14
ATOM     13  C   UNL     1      -0.352   9.577  18.374  0.00  0.00    +0.000 C 
ATOM     14  C   UNL     1       0.913   9.539  19.234  0.00  0.00    +0.000 C 
BRANCH  14  15
ATOM     15  C   UNL     1       0.531   9.412  20.697  0.00  0.00    +0.000 A 
ATOM     16  C   UNL     1      -0.734   9.305  21.256  0.00  0.00    +0.000 A 
ATOM     17  C   UNL     1      -0.701   9.229  22.678  0.00  0.00    +0.000 A 
ATOM     18  C   UNL     1       0.585   9.272  23.164  0.00  0.00    +0.000 A 
ATOM     19  S   UNL     1       1.743   9.394  21.910  0.00  0.00    +0.000 S 
ENDBRANCH  14  15
ENDBRANCH   1  14
BRANCH   4  20
ATOM     20  C   UNL     1       4.288   7.044  16.619  0.00  0.00    +0.000 C 
BRANCH  20  21
ATOM     21  C   UNL     1       5.461   6.098  16.766  0.00  0.00    +0.000 A 
ATOM     22  C   UNL     1       5.720   5.140  15.776  0.00  0.00    +0.000 A 
ATOM     23  C   UNL     1       6.870   4.365  15.866  0.00  0.00    +0.000 A 
ATOM     24  N   UNL     1       7.769   4.473  16.866  0.00  0.00    +0.000 NA
ATOM     25  C   UNL     1       7.510   5.404  17.807  0.00  0.00    +0.000 A 
ATOM     26  C   UNL     1       6.392   6.229  17.802  0.00  0.00    +0.000 A 
ENDBRANCH  20  21
ENDBRANCH   4  20
TORSDOF 5
ENDMDL
MODEL 9
REMARK VINA RESULT:      -5.8      1.398      2.197
REMARK  Name = 
REMARK  7 active torsions:
REMARK  status: ('A' for Active; 'I' for Inactive)
REMARK    1  A    between atoms: C_1  and  C_2
REMARK    2  A    between atoms: C_2  and  N_3
REMARK    3  A    between atoms: C_2  and  C_21
REMARK    4  A    between atoms: N_6  and  C_7
REMARK    5  A    between atoms: N_6  and  C_14
REMARK    6  A    between atoms: C_7  and  C_8
REMARK    7  A    between atoms: N_17  and  C_18
REMARK                            x       y       z     vdW  Elec       q    Type
REMARK                         _______ _______ _______ _____ _____    ______ ____
ROOT
ATOM      1  N   UNL     1       1.452   9.024  19.196  0.00  0.00    +0.000 N 
ATOM      2  C   UNL     1       2.295   8.845  18.131  0.00  0.00    +0.000 C 
ATOM      3  O   UNL     1       2.567   9.749  17.346  0.00  0.00    +0.000 OA
ATOM      4  N   UNL     1       2.802   7.539  18.007  0.00  0.00    +0.000 N 
ATOM      5  H   UNL     1       1.801   8.582  20.030  0.00  0.00    +0.000 HD
ENDROOT
BRANCH   4   6
ATOM      6  C   UNL     1       2.241   6.395  18.767  0.00  0.00    +0.000 C 
ATOM      7  C   UNL     1       3.081   5.953  19.967  0.00  0.00    +0.000 C 
ATOM      8  C   UNL     1       2.401   4.786  20.684  0.00  0.00    +0.000 C 
ATOM      9  N   UNL     1       2.191   3.665  19.758  0.00  0.00    +0.000 NA
ATOM     10  C   UNL     1       1.638   2.511  20.466  0.00  0.00    +0.000 C 
ATOM     11  C   UNL     1       1.323   4.049  18.638  0.00  0.00    +0.000 C 
ATOM     12  C   UNL     1       1.932   5.205  17.846  0.00  0.00    +0.000 C 
ENDBRANCH   4   6
BRANCH   1  14
ATOM     13  C   UNL     1       1.656  11.526  19.370  0.00  0.00    +0.000 C 
ATOM     14  C   UNL     1       0.776  10.281  19.503  0.00  0.00    +0.000 C 
BRANCH  14  15
ATOM     15  C   UNL     1      -0.391  10.376  18.537  0.00  0.00    +0.000 A 
ATOM     16  C   UNL     1      -0.895   9.402  17.689  0.00  0.00    +0.000 A 
ATOM     17  C   UNL     1      -1.991   9.868  16.907  0.00  0.00    +0.000 A 
ATOM     18  C   UNL     1      -2.296  11.180  17.184  0.00  0.00    +0.000 A 
ATOM     19  S   UNL     1      -1.274  11.839  18.387  0.00  0.00    +0.000 S 
ENDBRANCH  14  15
ENDBRANCH   1  14
BRANCH   4  20
ATOM     20  C   UNL     1       3.570   7.240  16.783  0.00  0.00    +0.000 C 
BRANCH  20  21
ATOM     21  C   UNL     1       4.929   6.606  16.998  0.00  0.00    +0.000 A 
ATOM     22  C   UNL     1       5.163   5.288  16.583  0.00  0.00    +0.000 A 
ATOM     23  C   UNL     1       6.447   4.766  16.674  0.00  0.00    +0.000 A 
ATOM     24  N   UNL     1       7.504   5.457  17.149  0.00  0.00    +0.000 NA
ATOM     25  C   UNL     1       7.265   6.727  17.536  0.00  0.00    +0.000 A 
ATOM     26  C   UNL     1       6.019   7.338  17.480  0.00  0.00    +0.000 A 
ENDBRANCH  20  21
ENDBRANCH   4  20
TORSDOF 5
ENDMDL
