MODEL 1
REMARK VINA RESULT:      -8.1      0.000      0.000
REMARK  Name = 
REMARK  5 active torsions:
REMARK  status: ('A' for Active; 'I' for Inactive)
REMARK    1  A    between atoms: C_4  and  C_5
REMARK    2  A    between atoms: C_8  and  C_9
REMARK    3  A    between atoms: C_9  and  S_10
REMARK    4  A    between atoms: S_10  and  C_11
REMARK    5  A    between atoms: N_15  and  C_16
REMARK                            x       y       z     vdW  Elec       q    Type
REMARK                         _______ _______ _______ _____ _____    ______ ____
ROOT
ATOM      1  C   UNL     1       6.579   6.218  17.116  0.00  0.00    +0.000 C 
ENDROOT
BRANCH   1   5
ATOM      2  C   UNL     1       6.585   4.574  13.939  0.00  0.00    +0.000 A 
ATOM      3  N   UNL     1       7.781   5.188  13.865  0.00  0.00    +0.000 NA
ATOM      4  O   UNL     1       7.885   5.862  15.087  0.00  0.00    +0.000 OA
ATOM      5  C   UNL     1       6.745   5.590  15.782  0.00  0.00    +0.000 A 
ATOM      6  N   UNL     1       5.910   4.825  15.116  0.00  0.00    +0.000 NA
BRANCH   2  10
ATOM      7  C   UNL     1       4.981   2.054  10.890  0.00  0.00    +0.000 A 
ATOM      8  C   UNL     1       4.166   3.020  11.481  0.00  0.00    +0.000 A 
ATOM      9  C   UNL     1       4.677   3.855  12.485  0.00  0.00    +0.000 A 
ATOM     10  C   UNL     1       6.008   3.725  12.904  0.00  0.00    +0.000 A 
ATOM     11  C   UNL     1       6.813   2.751  12.294  0.00  0.00    +0.000 A 
ATOM     12  C   UNL     1       6.306   1.921  11.292  0.00  0.00    +0.000 A 
ENDBRANCH   2  10
ENDBRANCH   1   5
BRANCH   1  13
ATOM     13  S   UNL     1       4.806   6.318  17.596  0.00  0.00    +0.000 S 
BRANCH  13  14
ATOM     14  C   UNL     1       4.710   4.944  18.640  0.00  0.00    +0.000 A 
ATOM     15  N   UNL     1       5.705   4.113  18.860  0.00  0.00    +0.000 NA
ATOM     16  N   UNL     1       5.252   3.212  19.778  0.00  0.00    +0.000 NA
ATOM     17  N   UNL     1       4.001   3.472  20.117  0.00  0.00    +0.000 NA
ATOM     18  N   UNL     1       3.622   4.545  19.383  0.00  0.00    +0.000 N 
BRANCH  18  19
ATOM     19  C   UNL     1       2.200   4.876  19.270  0.00  0.00    +0.000 C 
ATOM     20  C   UNL     1       1.530   4.321  17.986  0.00  0.00    +0.000 C 
ATOM     21  C   UNL     1       1.262   2.813  18.044  0.00  0.00    +0.000 C 
ATOM     22  C   UNL     1       0.476   2.403  19.285  0.00  0.00    +0.000 C 
ATOM     23  C   UNL     1       1.046   2.991  20.573  0.00  0.00    +0.000 C 
ATOM     24  C   UNL     1       1.321   4.488  20.473  0.00  0.00    +0.000 C 
ENDBRANCH  18  19
ENDBRANCH  13  14
ENDBRANCH   1  13
TORSDOF 5
ENDMDL
MODEL 2
REMARK VINA RESULT:      -7.9      1.355      1.886
REMARK  Name = 
REMARK  5 active torsions:
REMARK  status: ('A' for Active; 'I' for Inactive)
REMARK    1  A    between atoms: C_4  and  C_5
REMARK    2  A    between atoms: C_8  and  C_9
REMARK    3  A    between atoms: C_9  and  S_10
REMARK    4  A    between atoms: S_10  and  C_11
REMARK    5  A    between atoms: N_15  and  C_16
REMARK                            x       y       z     vdW  Elec       q    Type
REMARK                         _______ _______ _______ _____ _____    ______ ____
ROOT
ATOM      1  C   UNL     1       7.050   4.978  17.592  0.00  0.00    +0.000 C 
ENDROOT
BRANCH   1   5
ATOM      2  C   UNL     1       6.564   4.337  14.107  0.00  0.00    +0.000 A 
ATOM      3  N   UNL     1       7.429   5.365  14.018  0.00  0.00    +0.000 NA
ATOM      4  O   UNL     1       7.700   5.689  15.351  0.00  0.00    +0.000 OA
ATOM      5  C   UNL     1       6.974   4.827  16.118  0.00  0.00    +0.000 A 
ATOM      6  N   UNL     1       6.248   3.996  15.406  0.00  0.00    +0.000 NA
BRANCH   2  10
ATOM      7  C   UNL     1       4.938   2.216  10.778  0.00  0.00    +0.000 A 
ATOM      8  C   UNL     1       4.163   3.183  11.421  0.00  0.00    +0.000 A 
ATOM      9  C   UNL     1       4.682   3.887  12.516  0.00  0.00    +0.000 A 
ATOM     10  C   UNL     1       5.980   3.626  12.976  0.00  0.00    +0.000 A 
ATOM     11  C   UNL     1       6.745   2.654  12.314  0.00  0.00    +0.000 A 
ATOM     12  C   UNL     1       6.230   1.954  11.221  0.00  0.00    +0.000 A 
ENDBRANCH   2  10
ENDBRANCH   1   5
BRANCH   1  13
ATOM     13  S   UNL     1       5.848   3.875  18.443  0.00  0.00    +0.000 S 
BRANCH  13  14
ATOM     14  C   UNL     1       4.418   4.832  18.293  0.00  0.00    +0.000 A 
ATOM     15  N   UNL     1       4.408   6.147  18.288  0.00  0.00    +0.000 NA
ATOM     16  N   UNL     1       3.110   6.516  18.091  0.00  0.00    +0.000 NA
ATOM     17  N   UNL     1       2.329   5.455  17.983  0.00  0.00    +0.000 NA
ATOM     18  N   UNL     1       3.129   4.374  18.143  0.00  0.00    +0.000 N 
BRANCH  18  19
ATOM     19  C   UNL     1       2.529   3.067  18.416  0.00  0.00    +0.000 C 
ATOM     20  C   UNL     1       3.228   2.286  19.559  0.00  0.00    +0.000 C 
ATOM     21  C   UNL     1       2.896   2.824  20.955  0.00  0.00    +0.000 C 
ATOM     22  C   UNL     1       1.395   2.922  21.205  0.00  0.00    +0.000 C 
ATOM     23  C   UNL     1       0.644   3.610  20.069  0.00  0.00    +0.000 C 
ATOM     24  C   UNL     1       1.015   3.066  18.694  0.00  0.00    +0.000 C 
ENDBRANCH  18  19
ENDBRANCH  13  14
ENDBRANCH   1  13
TORSDOF 5
ENDMDL
MODEL 3
REMARK VINA RESULT:      -7.9      1.145      1.765
REMARK  Name = 
REMARK  5 active torsions:
REMARK  status: ('A' for Active; 'I' for Inactive)
REMARK    1  A    between atoms: C_4  and  C_5
REMARK    2  A    between atoms: C_8  and  C_9
REMARK    3  A    between atoms: C_9  and  S_10
REMARK    4  A    between atoms: S_10  and  C_11
REMARK    5  A    between atoms: N_15  and  C_16
REMARK                            x       y       z     vdW  Elec       q    Type
REMARK                         _______ _______ _______ _____ _____    ______ ____
ROOT
ATOM      1  C   UNL     1       5.553   7.371  16.980  0.00  0.00    +0.000 C 
ENDROOT
BRANCH   1   5
ATOM      2  C   UNL     1       6.478   4.972  14.494  0.00  0.00    +0.000 A 
ATOM      3  N   UNL     1       7.661   5.096  15.123  0.00  0.00    +0.000 NA
ATOM      4  O   UNL     1       7.402   6.020  16.141  0.00  0.00    +0.000 OA
ATOM      5  C   UNL     1       6.088   6.364  16.031  0.00  0.00    +0.000 A 
ATOM      6  N   UNL     1       5.485   5.768  15.028  0.00  0.00    +0.000 NA
BRANCH   2  10
ATOM      7  C   UNL     1       5.622   2.435  11.168  0.00  0.00    +0.000 A 
ATOM      8  C   UNL     1       6.951   2.699  11.507  0.00  0.00    +0.000 A 
ATOM      9  C   UNL     1       7.248   3.531  12.595  0.00  0.00    +0.000 A 
ATOM     10  C   UNL     1       6.217   4.106  13.350  0.00  0.00    +0.000 A 
ATOM     11  C   UNL     1       4.888   3.826  12.997  0.00  0.00    +0.000 A 
ATOM     12  C   UNL     1       4.591   2.995  11.915  0.00  0.00    +0.000 A 
ENDBRANCH   2  10
ENDBRANCH   1   5
BRANCH   1  13
ATOM     13  S   UNL     1       4.052   6.750  17.843  0.00  0.00    +0.000 S 
BRANCH  13  14
ATOM     14  C   UNL     1       4.729   5.386  18.659  0.00  0.00    +0.000 A 
ATOM     15  N   UNL     1       5.765   5.448  19.466  0.00  0.00    +0.000 NA
ATOM     16  N   UNL     1       5.948   4.186  19.949  0.00  0.00    +0.000 NA
ATOM     17  N   UNL     1       5.049   3.355  19.450  0.00  0.00    +0.000 NA
ATOM     18  N   UNL     1       4.286   4.084  18.601  0.00  0.00    +0.000 N 
BRANCH  18  19
ATOM     19  C   UNL     1       3.424   3.399  17.637  0.00  0.00    +0.000 C 
ATOM     20  C   UNL     1       3.202   1.897  17.954  0.00  0.00    +0.000 C 
ATOM     21  C   UNL     1       2.234   1.658  19.118  0.00  0.00    +0.000 C 
ATOM     22  C   UNL     1       0.901   2.373  18.930  0.00  0.00    +0.000 C 
ATOM     23  C   UNL     1       1.060   3.838  18.534  0.00  0.00    +0.000 C 
ATOM     24  C   UNL     1       2.047   4.041  17.388  0.00  0.00    +0.000 C 
ENDBRANCH  18  19
ENDBRANCH  13  14
ENDBRANCH   1  13
TORSDOF 5
ENDMDL
MODEL 4
REMARK VINA RESULT:      -7.8      1.339      2.028
REMARK  Name = 
REMARK  5 active torsions:
REMARK  status: ('A' for Active; 'I' for Inactive)
REMARK    1  A    between atoms: C_4  and  C_5
REMARK    2  A    between atoms: C_8  and  C_9
REMARK    3  A    between atoms: C_9  and  S_10
REMARK    4  A    between atoms: S_10  and  C_11
REMARK    5  A    between atoms: N_15  and  C_16
REMARK                            x       y       z     vdW  Elec       q    Type
REMARK                         _______ _______ _______ _____ _____    ______ ____
ROOT
ATOM      1  C   UNL     1       7.021   5.150  17.543  0.00  0.00    +0.000 C 
ENDROOT
BRANCH   1   5
ATOM      2  C   UNL     1       6.658   4.396  14.066  0.00  0.00    +0.000 A 
ATOM      3  N   UNL     1       7.494   5.446  13.971  0.00  0.00    +0.000 NA
ATOM      4  O   UNL     1       7.715   5.817  15.301  0.00  0.00    +0.000 OA
ATOM      5  C   UNL     1       6.993   4.955  16.072  0.00  0.00    +0.000 A 
ATOM      6  N   UNL     1       6.314   4.082  15.365  0.00  0.00    +0.000 NA
BRANCH   2  10
ATOM      7  C   UNL     1       5.020   2.198  10.792  0.00  0.00    +0.000 A 
ATOM      8  C   UNL     1       6.363   2.024  11.133  0.00  0.00    +0.000 A 
ATOM      9  C   UNL     1       6.916   2.739  12.204  0.00  0.00    +0.000 A 
ATOM     10  C   UNL     1       6.128   3.635  12.940  0.00  0.00    +0.000 A 
ATOM     11  C   UNL     1       4.780   3.792  12.585  0.00  0.00    +0.000 A 
ATOM     12  C   UNL     1       4.227   3.078  11.520  0.00  0.00    +0.000 A 
ENDBRANCH   2  10
ENDBRANCH   1   5
BRANCH   1  13
ATOM     13  S   UNL     1       5.711   4.164  18.377  0.00  0.00    +0.000 S 
BRANCH  13  14
ATOM     14  C   UNL     1       4.451   5.345  18.436  0.00  0.00    +0.000 A 
ATOM     15  N   UNL     1       4.499   6.506  17.822  0.00  0.00    +0.000 NA
ATOM     16  N   UNL     1       3.302   7.113  18.062  0.00  0.00    +0.000 NA
ATOM     17  N   UNL     1       2.529   6.350  18.815  0.00  0.00    +0.000 NA
ATOM     18  N   UNL     1       3.248   5.237  19.095  0.00  0.00    +0.000 N 
BRANCH  18  19
ATOM     19  C   UNL     1       2.814   4.351  20.176  0.00  0.00    +0.000 C 
ATOM     20  C   UNL     1       1.274   4.281  20.346  0.00  0.00    +0.000 C 
ATOM     21  C   UNL     1       0.580   3.443  19.267  0.00  0.00    +0.000 C 
ATOM     22  C   UNL     1       1.174   2.044  19.137  0.00  0.00    +0.000 C 
ATOM     23  C   UNL     1       2.698   2.049  19.049  0.00  0.00    +0.000 C 
ATOM     24  C   UNL     1       3.353   2.910  20.124  0.00  0.00    +0.000 C 
ENDBRANCH  18  19
ENDBRANCH  13  14
ENDBRANCH   1  13
TORSDOF 5
ENDMDL
MODEL 5
REMARK VINA RESULT:      -7.8      4.042      6.872
REMARK  Name = 
REMARK  5 active torsions:
REMARK  status: ('A' for Active; 'I' for Inactive)
REMARK    1  A    between atoms: C_4  and  C_5
REMARK    2  A    between atoms: C_8  and  C_9
REMARK    3  A    between atoms: C_9  and  S_10
REMARK    4  A    between atoms: S_10  and  C_11
REMARK    5  A    between atoms: N_15  and  C_16
REMARK                            x       y       z     vdW  Elec       q    Type
REMARK                         _______ _______ _______ _____ _____    ______ ____
ROOT
ATOM      1  C   UNL     1       7.374   5.746  18.347  0.00  0.00    +0.000 C 
ENDROOT
BRANCH   1   5
ATOM      2  C   UNL     1       8.545   9.125  18.307  0.00  0.00    +0.000 A 
ATOM      3  N   UNL     1       7.779   9.151  17.201  0.00  0.00    +0.000 NA
ATOM      4  O   UNL     1       7.253   7.856  17.130  0.00  0.00    +0.000 OA
ATOM      5  C   UNL     1       7.750   7.173  18.200  0.00  0.00    +0.000 A 
ATOM      6  N   UNL     1       8.560   7.897  18.937  0.00  0.00    +0.000 NA
BRANCH   2  10
ATOM      7  C   UNL     1      10.831  12.431  19.745  0.00  0.00    +0.000 A 
ATOM      8  C   UNL     1      10.115  11.646  20.650  0.00  0.00    +0.000 A 
ATOM      9  C   UNL     1       9.359  10.558  20.194  0.00  0.00    +0.000 A 
ATOM     10  C   UNL     1       9.313  10.250  18.828  0.00  0.00    +0.000 A 
ATOM     11  C   UNL     1      10.042  11.048  17.934  0.00  0.00    +0.000 A 
ATOM     12  C   UNL     1      10.799  12.131  18.387  0.00  0.00    +0.000 A 
ENDBRANCH   2  10
ENDBRANCH   1   5
BRANCH   1  13
ATOM     13  S   UNL     1       6.410   5.152  16.897  0.00  0.00    +0.000 S 
BRANCH  13  14
ATOM     14  C   UNL     1       4.810   5.495  17.452  0.00  0.00    +0.000 A 
ATOM     15  N   UNL     1       4.325   6.707  17.605  0.00  0.00    +0.000 NA
ATOM     16  N   UNL     1       3.028   6.553  17.995  0.00  0.00    +0.000 NA
ATOM     17  N   UNL     1       2.713   5.272  18.090  0.00  0.00    +0.000 NA
ATOM     18  N   UNL     1       3.836   4.580  17.785  0.00  0.00    +0.000 N 
BRANCH  18  19
ATOM     19  C   UNL     1       3.921   3.158  18.122  0.00  0.00    +0.000 C 
ATOM     20  C   UNL     1       4.186   2.887  19.626  0.00  0.00    +0.000 C 
ATOM     21  C   UNL     1       2.954   3.110  20.509  0.00  0.00    +0.000 C 
ATOM     22  C   UNL     1       1.735   2.332  20.026  0.00  0.00    +0.000 C 
ATOM     23  C   UNL     1       1.476   2.496  18.531  0.00  0.00    +0.000 C 
ATOM     24  C   UNL     1       2.727   2.289  17.684  0.00  0.00    +0.000 C 
ENDBRANCH  18  19
ENDBRANCH  13  14
ENDBRANCH   1  13
TORSDOF 5
ENDMDL
MODEL 6
REMARK VINA RESULT:      -7.8      4.042      6.879
REMARK  Name = 
REMARK  5 active torsions:
REMARK  status: ('A' for Active; 'I' for Inactive)
REMARK    1  A    between atoms: C_4  and  C_5
REMARK    2  A    between atoms: C_8  and  C_9
REMARK    3  A    between atoms: C_9  and  S_10
REMARK    4  A    between atoms: S_10  and  C_11
REMARK    5  A    between atoms: N_15  and  C_16
REMARK                            x       y       z     vdW  Elec       q    Type
REMARK                         _______ _______ _______ _____ _____    ______ ____
ROOT
ATOM      1  C   UNL     1       7.272   5.802  18.302  0.00  0.00    +0.000 C 
ENDROOT
BRANCH   1   5
ATOM      2  C   UNL     1       8.534   9.148  18.256  0.00  0.00    +0.000 A 
ATOM      3  N   UNL     1       7.764   9.194  17.153  0.00  0.00    +0.000 NA
ATOM      4  O   UNL     1       7.203   7.915  17.085  0.00  0.00    +0.000 OA
ATOM      5  C   UNL     1       7.686   7.219  18.153  0.00  0.00    +0.000 A 
ATOM      6  N   UNL     1       8.519   7.921  18.886  0.00  0.00    +0.000 NA
BRANCH   2  10
ATOM      7  C   UNL     1      10.836  12.369  19.853  0.00  0.00    +0.000 A 
ATOM      8  C   UNL     1      10.856  12.127  18.479  0.00  0.00    +0.000 A 
ATOM      9  C   UNL     1      10.107  11.072  17.939  0.00  0.00    +0.000 A 
ATOM     10  C   UNL     1       9.334  10.252  18.772  0.00  0.00    +0.000 A 
ATOM     11  C   UNL     1       9.324  10.515  20.151  0.00  0.00    +0.000 A 
ATOM     12  C   UNL     1      10.067  11.567  20.690  0.00  0.00    +0.000 A 
ENDBRANCH   2  10
ENDBRANCH   1   5
BRANCH   1  13
ATOM     13  S   UNL     1       6.131   5.290  16.954  0.00  0.00    +0.000 S 
BRANCH  13  14
ATOM     14  C   UNL     1       4.640   5.881  17.595  0.00  0.00    +0.000 A 
ATOM     15  N   UNL     1       4.197   7.107  17.424  0.00  0.00    +0.000 NA
ATOM     16  N   UNL     1       2.974   7.158  18.025  0.00  0.00    +0.000 NA
ATOM     17  N   UNL     1       2.664   5.991  18.564  0.00  0.00    +0.000 NA
ATOM     18  N   UNL     1       3.720   5.173  18.336  0.00  0.00    +0.000 N 
BRANCH  18  19
ATOM     19  C   UNL     1       3.841   3.924  19.089  0.00  0.00    +0.000 C 
ATOM     20  C   UNL     1       2.828   3.799  20.257  0.00  0.00    +0.000 C 
ATOM     21  C   UNL     1       1.402   3.481  19.794  0.00  0.00    +0.000 C 
ATOM     22  C   UNL     1       1.338   2.255  18.889  0.00  0.00    +0.000 C 
ATOM     23  C   UNL     1       2.373   2.287  17.768  0.00  0.00    +0.000 C 
ATOM     24  C   UNL     1       3.775   2.628  18.261  0.00  0.00    +0.000 C 
ENDBRANCH  18  19
ENDBRANCH  13  14
ENDBRANCH   1  13
TORSDOF 5
ENDMDL
MODEL 7
REMARK VINA RESULT:      -7.7      0.821      1.271
REMARK  Name = 
REMARK  5 active torsions:
REMARK  status: ('A' for Active; 'I' for Inactive)
REMARK    1  A    between atoms: C_4  and  C_5
REMARK    2  A    between atoms: C_8  and  C_9
REMARK    3  A    between atoms: C_9  and  S_10
REMARK    4  A    between atoms: S_10  and  C_11
REMARK    5  A    between atoms: N_15  and  C_16
REMARK                            x       y       z     vdW  Elec       q    Type
REMARK                         _______ _______ _______ _____ _____    ______ ____
ROOT
ATOM      1  C   UNL     1       4.788   6.582  16.631  0.00  0.00    +0.000 C 
ENDROOT
BRANCH   1   5
ATOM      2  C   UNL     1       6.329   4.636  14.055  0.00  0.00    +0.000 A 
ATOM      3  N   UNL     1       7.426   5.233  14.559  0.00  0.00    +0.000 NA
ATOM      4  O   UNL     1       6.927   6.021  15.601  0.00  0.00    +0.000 OA
ATOM      5  C   UNL     1       5.578   5.825  15.628  0.00  0.00    +0.000 A 
ATOM      6  N   UNL     1       5.161   5.004  14.692  0.00  0.00    +0.000 NA
BRANCH   2  10
ATOM      7  C   UNL     1       6.200   1.862  10.812  0.00  0.00    +0.000 A 
ATOM      8  C   UNL     1       7.432   2.360  11.242  0.00  0.00    +0.000 A 
ATOM      9  C   UNL     1       7.491   3.272  12.305  0.00  0.00    +0.000 A 
ATOM     10  C   UNL     1       6.316   3.694  12.943  0.00  0.00    +0.000 A 
ATOM     11  C   UNL     1       5.089   3.180  12.499  0.00  0.00    +0.000 A 
ATOM     12  C   UNL     1       5.029   2.268  11.443  0.00  0.00    +0.000 A 
ENDBRANCH   2  10
ENDBRANCH   1   5
BRANCH   1  13
ATOM     13  S   UNL     1       5.644   6.635  18.259  0.00  0.00    +0.000 S 
BRANCH  13  14
ATOM     14  C   UNL     1       5.213   5.075  18.865  0.00  0.00    +0.000 A 
ATOM     15  N   UNL     1       6.038   4.054  18.927  0.00  0.00    +0.000 NA
ATOM     16  N   UNL     1       5.343   3.038  19.514  0.00  0.00    +0.000 NA
ATOM     17  N   UNL     1       4.111   3.416  19.805  0.00  0.00    +0.000 NA
ATOM     18  N   UNL     1       3.991   4.693  19.371  0.00  0.00    +0.000 N 
BRANCH  18  19
ATOM     19  C   UNL     1       2.660   5.287  19.236  0.00  0.00    +0.000 C 
ATOM     20  C   UNL     1       1.875   4.785  17.996  0.00  0.00    +0.000 C 
ATOM     21  C   UNL     1       1.318   3.367  18.163  0.00  0.00    +0.000 C 
ATOM     22  C   UNL     1       0.486   3.208  19.431  0.00  0.00    +0.000 C 
ATOM     23  C   UNL     1       1.178   3.763  20.672  0.00  0.00    +0.000 C 
ATOM     24  C   UNL     1       1.740   5.166  20.464  0.00  0.00    +0.000 C 
ENDBRANCH  18  19
ENDBRANCH  13  14
ENDBRANCH   1  13
TORSDOF 5
ENDMDL
MODEL 8
REMARK VINA RESULT:      -7.5      1.995      2.907
REMARK  Name = 
REMARK  5 active torsions:
REMARK  status: ('A' for Active; 'I' for Inactive)
REMARK    1  A    between atoms: C_4  and  C_5
REMARK    2  A    between atoms: C_8  and  C_9
REMARK    3  A    between atoms: C_9  and  S_10
REMARK    4  A    between atoms: S_10  and  C_11
REMARK    5  A    between atoms: N_15  and  C_16
REMARK                            x       y       z     vdW  Elec       q    Type
REMARK                         _______ _______ _______ _____ _____    ______ ____
ROOT
ATOM      1  C   UNL     1       4.919   7.156  18.107  0.00  0.00    +0.000 C 
ENDROOT
BRANCH   1   5
ATOM      2  C   UNL     1       6.289   5.030  15.578  0.00  0.00    +0.000 A 
ATOM      3  N   UNL     1       6.809   4.431  16.666  0.00  0.00    +0.000 NA
ATOM      4  O   UNL     1       6.315   5.191  17.731  0.00  0.00    +0.000 OA
ATOM      5  C   UNL     1       5.543   6.174  17.186  0.00  0.00    +0.000 A 
ATOM      6  N   UNL     1       5.512   6.131  15.874  0.00  0.00    +0.000 NA
BRANCH   2  10
ATOM      7  C   UNL     1       6.972   3.856  11.530  0.00  0.00    +0.000 A 
ATOM      8  C   UNL     1       5.936   3.261  12.252  0.00  0.00    +0.000 A 
ATOM      9  C   UNL     1       5.699   3.634  13.582  0.00  0.00    +0.000 A 
ATOM     10  C   UNL     1       6.501   4.605  14.199  0.00  0.00    +0.000 A 
ATOM     11  C   UNL     1       7.534   5.195  13.456  0.00  0.00    +0.000 A 
ATOM     12  C   UNL     1       7.769   4.826  12.129  0.00  0.00    +0.000 A 
ENDBRANCH   2  10
ENDBRANCH   1   5
BRANCH   1  13
ATOM     13  S   UNL     1       3.177   7.510  17.631  0.00  0.00    +0.000 S 
BRANCH  13  14
ATOM     14  C   UNL     1       2.406   7.284  19.160  0.00  0.00    +0.000 A 
ATOM     15  N   UNL     1       1.878   8.255  19.872  0.00  0.00    +0.000 NA
ATOM     16  N   UNL     1       1.322   7.665  20.968  0.00  0.00    +0.000 NA
ATOM     17  N   UNL     1       1.506   6.356  20.944  0.00  0.00    +0.000 NA
ATOM     18  N   UNL     1       2.222   6.092  19.825  0.00  0.00    +0.000 N 
BRANCH  18  19
ATOM     19  C   UNL     1       2.878   4.792  19.679  0.00  0.00    +0.000 C 
ATOM     20  C   UNL     1       2.473   3.763  20.766  0.00  0.00    +0.000 C 
ATOM     21  C   UNL     1       1.074   3.175  20.557  0.00  0.00    +0.000 C 
ATOM     22  C   UNL     1       0.885   2.590  19.161  0.00  0.00    +0.000 C 
ATOM     23  C   UNL     1       1.345   3.531  18.052  0.00  0.00    +0.000 C 
ATOM     24  C   UNL     1       2.732   4.114  18.304  0.00  0.00    +0.000 C 
ENDBRANCH  18  19
ENDBRANCH  13  14
ENDBRANCH   1  13
TORSDOF 5
ENDMDL
MODEL 9
REMARK VINA RESULT:      -7.5      2.026      2.987
REMARK  Name = 
REMARK  5 active torsions:
REMARK  status: ('A' for Active; 'I' for Inactive)
REMARK    1  A    between atoms: C_4  and  C_5
REMARK    2  A    between atoms: C_8  and  C_9
REMARK    3  A    between atoms: C_9  and  S_10
REMARK    4  A    between atoms: S_10  and  C_11
REMARK    5  A    between atoms: N_15  and  C_16
REMARK                            x       y       z     vdW  Elec       q    Type
REMARK                         _______ _______ _______ _____ _____    ______ ____
ROOT
ATOM      1  C   UNL     1       4.821   7.486  17.895  0.00  0.00    +0.000 C 
ENDROOT
BRANCH   1   5
ATOM      2  C   UNL     1       6.394   5.368  15.481  0.00  0.00    +0.000 A 
ATOM      3  N   UNL     1       7.179   5.102  16.542  0.00  0.00    +0.000 NA
ATOM      4  O   UNL     1       6.632   5.885  17.564  0.00  0.00    +0.000 OA
ATOM      5  C   UNL     1       5.569   6.547  17.023  0.00  0.00    +0.000 A 
ATOM      6  N   UNL     1       5.395   6.281  15.749  0.00  0.00    +0.000 NA
BRANCH   2  10
ATOM      7  C   UNL     1       6.771   3.595  11.615  0.00  0.00    +0.000 A 
ATOM      8  C   UNL     1       7.689   4.567  12.017  0.00  0.00    +0.000 A 
ATOM      9  C   UNL     1       7.578   5.160  13.282  0.00  0.00    +0.000 A 
ATOM     10  C   UNL     1       6.546   4.784  14.153  0.00  0.00    +0.000 A 
ATOM     11  C   UNL     1       5.636   3.801  13.733  0.00  0.00    +0.000 A 
ATOM     12  C   UNL     1       5.748   3.208  12.474  0.00  0.00    +0.000 A 
ENDBRANCH   2  10
ENDBRANCH   1   5
BRANCH   1  13
ATOM     13  S   UNL     1       3.032   7.517  17.470  0.00  0.00    +0.000 S 
BRANCH  13  14
ATOM     14  C   UNL     1       2.355   7.411  19.056  0.00  0.00    +0.000 A 
ATOM     15  N   UNL     1       1.861   8.434  19.718  0.00  0.00    +0.000 NA
ATOM     16  N   UNL     1       1.376   7.932  20.889  0.00  0.00    +0.000 NA
ATOM     17  N   UNL     1       1.570   6.626  20.958  0.00  0.00    +0.000 NA
ATOM     18  N   UNL     1       2.220   6.276  19.823  0.00  0.00    +0.000 N 
BRANCH  18  19
ATOM     19  C   UNL     1       2.878   4.971  19.743  0.00  0.00    +0.000 C 
ATOM     20  C   UNL     1       2.396   3.961  20.816  0.00  0.00    +0.000 C 
ATOM     21  C   UNL     1       1.011   3.375  20.521  0.00  0.00    +0.000 C 
ATOM     22  C   UNL     1       0.914   2.769  19.125  0.00  0.00    +0.000 C 
ATOM     23  C   UNL     1       1.454   3.691  18.035  0.00  0.00    +0.000 C 
ATOM     24  C   UNL     1       2.823   4.272  18.372  0.00  0.00    +0.000 C 
ENDBRANCH  18  19
ENDBRANCH  13  14
ENDBRANCH   1  13
TORSDOF 5
ENDMDL
