MODEL 1
REMARK VINA RESULT:      -8.3      0.000      0.000
REMARK  Name = 
REMARK  8 active torsions:
REMARK  status: ('A' for Active; 'I' for Inactive)
REMARK    1  A    between atoms: C_1  and  C_2
REMARK    2  A    between atoms: C_9  and  O_10
REMARK    3  A    between atoms: O_10  and  C_11
REMARK    4  A    between atoms: C_11  and  C_12
REMARK    5  A    between atoms: C_12  and  O_14
REMARK    6  A    between atoms: O_14  and  C_15
REMARK    7  A    between atoms: C_15  and  C_16
REMARK    8  A    between atoms: C_21  and  C_22
REMARK                            x       y       z     vdW  Elec       q    Type
REMARK                         _______ _______ _______ _____ _____    ______ ____
ROOT
ATOM      1  C   UNL     1       1.565   2.302  20.142  0.00  0.00    +0.000 C 
ENDROOT
BRANCH   1   2
ATOM      2  C   UNL     1       1.737   3.560  20.978  0.00  0.00    +0.000 C 
ATOM      3  O   UNL     1       2.121   3.574  22.142  0.00  0.00    +0.000 OA
BRANCH   2   4
ATOM      4  O   UNL     1       1.343   4.663  20.278  0.00  0.00    +0.000 OA
BRANCH   4   5
ATOM      5  C   UNL     1       2.129   5.831  20.542  0.00  0.00    +0.000 C 
BRANCH   5   6
ATOM      6  C   UNL     1       2.096   6.768  19.324  0.00  0.00    +0.000 C 
ATOM      7  O   UNL     1       2.491   6.374  18.225  0.00  0.00    +0.000 OA
ATOM      8  N   UNL     1       1.628   8.065  19.522  0.00  0.00    +0.000 N 
ATOM      9  C   UNL     1       1.198   8.620  20.802  0.00  0.00    +0.000 C 
ATOM     10  C   UNL     1      -0.071   9.460  20.657  0.00  0.00    +0.000 C 
ATOM     11  C   UNL     1       0.038  10.501  19.532  0.00  0.00    +0.000 C 
ATOM     12  C   UNL     1      -1.300  11.206  19.312  0.00  0.00    +0.000 C 
ATOM     13  C   UNL     1       0.513   9.839  18.231  0.00  0.00    +0.000 C 
ATOM     14  C   UNL     1       1.794   9.043  18.450  0.00  0.00    +0.000 C 
ENDBRANCH   5   6
ENDBRANCH   4   5
ENDBRANCH   2   4
ENDBRANCH   1   2
BRANCH   1  15
ATOM     15  O   UNL     1       2.810   1.805  19.672  0.00  0.00    +0.000 OA
BRANCH  15  24
ATOM     16  C   UNL     1       5.636   5.545  15.044  0.00  0.00    +0.000 C 
ATOM     17  C   UNL     1       5.937   5.324  16.497  0.00  0.00    +0.000 A 
ATOM     18  C   UNL     1       6.968   5.944  17.091  0.00  0.00    +0.000 A 
ATOM     19  C   UNL     1       7.319   5.764  18.507  0.00  0.00    +0.000 A 
ATOM     20  O   UNL     1       8.273   6.358  18.994  0.00  0.00    +0.000 OA
ATOM     21  O   UNL     1       6.527   4.897  19.241  0.00  0.00    +0.000 OA
ATOM     22  C   UNL     1       5.433   4.227  18.652  0.00  0.00    +0.000 A 
ATOM     23  C   UNL     1       4.705   3.376  19.497  0.00  0.00    +0.000 A 
ATOM     24  C   UNL     1       3.612   2.680  18.988  0.00  0.00    +0.000 A 
ATOM     25  C   UNL     1       3.268   2.862  17.646  0.00  0.00    +0.000 A 
ATOM     26  C   UNL     1       4.004   3.717  16.812  0.00  0.00    +0.000 A 
ATOM     27  C   UNL     1       5.110   4.415  17.306  0.00  0.00    +0.000 A 
ENDBRANCH  15  24
ENDBRANCH   1  15
TORSDOF 6
ENDMDL
MODEL 2
REMARK VINA RESULT:      -8.2      2.301      7.246
REMARK  Name = 
REMARK  8 active torsions:
REMARK  status: ('A' for Active; 'I' for Inactive)
REMARK    1  A    between atoms: C_1  and  C_2
REMARK    2  A    between atoms: C_9  and  O_10
REMARK    3  A    between atoms: O_10  and  C_11
REMARK    4  A    between atoms: C_11  and  C_12
REMARK    5  A    between atoms: C_12  and  O_14
REMARK    6  A    between atoms: O_14  and  C_15
REMARK    7  A    between atoms: C_15  and  C_16
REMARK    8  A    between atoms: C_21  and  C_22
REMARK                            x       y       z     vdW  Elec       q    Type
REMARK                         _______ _______ _______ _____ _____    ______ ____
ROOT
ATOM      1  C   UNL     1       3.991   7.573  16.767  0.00  0.00    +0.000 C 
ENDROOT
BRANCH   1   2
ATOM      2  C   UNL     1       5.151   6.691  16.334  0.00  0.00    +0.000 C 
ATOM      3  O   UNL     1       5.261   6.181  15.224  0.00  0.00    +0.000 OA
BRANCH   2   4
ATOM      4  O   UNL     1       6.017   6.488  17.369  0.00  0.00    +0.000 OA
BRANCH   4   5
ATOM      5  C   UNL     1       6.455   5.131  17.504  0.00  0.00    +0.000 C 
BRANCH   5   6
ATOM      6  C   UNL     1       5.868   4.519  18.787  0.00  0.00    +0.000 C 
ATOM      7  O   UNL     1       6.356   4.791  19.886  0.00  0.00    +0.000 OA
ATOM      8  N   UNL     1       4.794   3.643  18.649  0.00  0.00    +0.000 N 
ATOM      9  C   UNL     1       4.200   3.231  17.380  0.00  0.00    +0.000 C 
ATOM     10  C   UNL     1       2.673   3.203  17.453  0.00  0.00    +0.000 C 
ATOM     11  C   UNL     1       2.156   2.418  18.668  0.00  0.00    +0.000 C 
ATOM     12  C   UNL     1       0.639   2.549  18.795  0.00  0.00    +0.000 C 
ATOM     13  C   UNL     1       2.843   2.900  19.952  0.00  0.00    +0.000 C 
ATOM     14  C   UNL     1       4.361   2.875  19.813  0.00  0.00    +0.000 C 
ENDBRANCH   5   6
ENDBRANCH   4   5
ENDBRANCH   2   4
ENDBRANCH   1   2
BRANCH   1  15
ATOM     15  O   UNL     1       3.248   6.986  17.826  0.00  0.00    +0.000 OA
BRANCH  15  24
ATOM     16  C   UNL     1      -0.999  11.679  19.651  0.00  0.00    +0.000 C 
ATOM     17  C   UNL     1      -0.269  10.615  20.415  0.00  0.00    +0.000 A 
ATOM     18  C   UNL     1      -0.415  10.496  21.744  0.00  0.00    +0.000 A 
ATOM     19  C   UNL     1       0.278   9.481  22.550  0.00  0.00    +0.000 A 
ATOM     20  O   UNL     1       0.105   9.421  23.761  0.00  0.00    +0.000 OA
ATOM     21  O   UNL     1       1.124   8.617  21.874  0.00  0.00    +0.000 OA
ATOM     22  C   UNL     1       1.303   8.710  20.477  0.00  0.00    +0.000 A 
ATOM     23  C   UNL     1       2.185   7.781  19.906  0.00  0.00    +0.000 A 
ATOM     24  C   UNL     1       2.413   7.810  18.533  0.00  0.00    +0.000 A 
ATOM     25  C   UNL     1       1.742   8.765  17.763  0.00  0.00    +0.000 A 
ATOM     26  C   UNL     1       0.863   9.688  18.347  0.00  0.00    +0.000 A 
ATOM     27  C   UNL     1       0.632   9.678  19.726  0.00  0.00    +0.000 A 
ENDBRANCH  15  24
ENDBRANCH   1  15
TORSDOF 6
ENDMDL
MODEL 3
REMARK VINA RESULT:      -8.0      2.406      7.344
REMARK  Name = 
REMARK  8 active torsions:
REMARK  status: ('A' for Active; 'I' for Inactive)
REMARK    1  A    between atoms: C_1  and  C_2
REMARK    2  A    between atoms: C_9  and  O_10
REMARK    3  A    between atoms: O_10  and  C_11
REMARK    4  A    between atoms: C_11  and  C_12
REMARK    5  A    between atoms: C_12  and  O_14
REMARK    6  A    between atoms: O_14  and  C_15
REMARK    7  A    between atoms: C_15  and  C_16
REMARK    8  A    between atoms: C_21  and  C_22
REMARK                            x       y       z     vdW  Elec       q    Type
REMARK                         _______ _______ _______ _____ _____    ______ ____
ROOT
ATOM      1  C   UNL     1       4.635   7.521  17.205  0.00  0.00    +0.000 C 
ENDROOT
BRANCH   1   2
ATOM      2  C   UNL     1       5.479   6.576  16.363  0.00  0.00    +0.000 C 
ATOM      3  O   UNL     1       5.224   6.260  15.207  0.00  0.00    +0.000 OA
BRANCH   2   4
ATOM      4  O   UNL     1       6.518   6.077  17.093  0.00  0.00    +0.000 OA
BRANCH   4   5
ATOM      5  C   UNL     1       6.451   4.662  17.308  0.00  0.00    +0.000 C 
BRANCH   5   6
ATOM      6  C   UNL     1       5.790   4.371  18.664  0.00  0.00    +0.000 C 
ATOM      7  O   UNL     1       6.250   4.858  19.699  0.00  0.00    +0.000 OA
ATOM      8  N   UNL     1       4.680   3.530  18.672  0.00  0.00    +0.000 N 
ATOM      9  C   UNL     1       4.113   2.872  17.498  0.00  0.00    +0.000 C 
ATOM     10  C   UNL     1       2.584   2.921  17.504  0.00  0.00    +0.000 C 
ATOM     11  C   UNL     1       1.986   2.444  18.836  0.00  0.00    +0.000 C 
ATOM     12  C   UNL     1       0.473   2.661  18.862  0.00  0.00    +0.000 C 
ATOM     13  C   UNL     1       2.649   3.169  20.015  0.00  0.00    +0.000 C 
ATOM     14  C   UNL     1       4.168   3.054  19.954  0.00  0.00    +0.000 C 
ENDBRANCH   5   6
ENDBRANCH   4   5
ENDBRANCH   2   4
ENDBRANCH   1   2
BRANCH   1  15
ATOM     15  O   UNL     1       3.445   6.897  17.666  0.00  0.00    +0.000 OA
BRANCH  15  24
ATOM     16  C   UNL     1      -0.342   9.257  22.511  0.00  0.00    +0.000 C 
ATOM     17  C   UNL     1      -0.041   9.746  21.125  0.00  0.00    +0.000 A 
ATOM     18  C   UNL     1      -0.600  10.871  20.654  0.00  0.00    +0.000 A 
ATOM     19  C   UNL     1      -0.352  11.398  19.304  0.00  0.00    +0.000 A 
ATOM     20  O   UNL     1      -0.891  12.431  18.928  0.00  0.00    +0.000 OA
ATOM     21  O   UNL     1       0.507  10.670  18.497  0.00  0.00    +0.000 OA
ATOM     22  C   UNL     1       1.114   9.482  18.958  0.00  0.00    +0.000 A 
ATOM     23  C   UNL     1       1.964   8.833  18.050  0.00  0.00    +0.000 A 
ATOM     24  C   UNL     1       2.600   7.655  18.433  0.00  0.00    +0.000 A 
ATOM     25  C   UNL     1       2.377   7.162  19.721  0.00  0.00    +0.000 A 
ATOM     26  C   UNL     1       1.526   7.821  20.619  0.00  0.00    +0.000 A 
ATOM     27  C   UNL     1       0.872   8.999  20.246  0.00  0.00    +0.000 A 
ENDBRANCH  15  24
ENDBRANCH   1  15
TORSDOF 6
ENDMDL
MODEL 4
REMARK VINA RESULT:      -7.9      2.293      7.182
REMARK  Name = 
REMARK  8 active torsions:
REMARK  status: ('A' for Active; 'I' for Inactive)
REMARK    1  A    between atoms: C_1  and  C_2
REMARK    2  A    between atoms: C_9  and  O_10
REMARK    3  A    between atoms: O_10  and  C_11
REMARK    4  A    between atoms: C_11  and  C_12
REMARK    5  A    between atoms: C_12  and  O_14
REMARK    6  A    between atoms: O_14  and  C_15
REMARK    7  A    between atoms: C_15  and  C_16
REMARK    8  A    between atoms: C_21  and  C_22
REMARK                            x       y       z     vdW  Elec       q    Type
REMARK                         _______ _______ _______ _____ _____    ______ ____
ROOT
ATOM      1  C   UNL     1       4.575   7.209  17.959  0.00  0.00    +0.000 C 
ENDROOT
BRANCH   1   2
ATOM      2  C   UNL     1       5.338   6.706  16.744  0.00  0.00    +0.000 C 
ATOM      3  O   UNL     1       6.408   7.163  16.356  0.00  0.00    +0.000 OA
BRANCH   2   4
ATOM      4  O   UNL     1       4.639   5.723  16.107  0.00  0.00    +0.000 OA
BRANCH   4   5
ATOM      5  C   UNL     1       5.285   4.444  16.124  0.00  0.00    +0.000 C 
BRANCH   5   6
ATOM      6  C   UNL     1       5.390   3.932  17.569  0.00  0.00    +0.000 C 
ATOM      7  O   UNL     1       6.451   4.034  18.189  0.00  0.00    +0.000 OA
ATOM      8  N   UNL     1       4.260   3.339  18.126  0.00  0.00    +0.000 N 
ATOM      9  C   UNL     1       2.990   3.133  17.436  0.00  0.00    +0.000 C 
ATOM     10  C   UNL     1       1.797   3.461  18.335  0.00  0.00    +0.000 C 
ATOM     11  C   UNL     1       1.883   2.767  19.703  0.00  0.00    +0.000 C 
ATOM     12  C   UNL     1       0.764   3.245  20.627  0.00  0.00    +0.000 C 
ATOM     13  C   UNL     1       3.253   3.018  20.349  0.00  0.00    +0.000 C 
ATOM     14  C   UNL     1       4.389   2.644  19.403  0.00  0.00    +0.000 C 
ENDBRANCH   5   6
ENDBRANCH   4   5
ENDBRANCH   2   4
ENDBRANCH   1   2
BRANCH   1  15
ATOM     15  O   UNL     1       3.177   6.995  17.830  0.00  0.00    +0.000 OA
BRANCH  15  24
ATOM     16  C   UNL     1      -0.999  11.773  19.596  0.00  0.00    +0.000 C 
ATOM     17  C   UNL     1      -0.298  10.697  20.371  0.00  0.00    +0.000 A 
ATOM     18  C   UNL     1      -0.462  10.584  21.698  0.00  0.00    +0.000 A 
ATOM     19  C   UNL     1       0.202   9.557  22.514  0.00  0.00    +0.000 A 
ATOM     20  O   UNL     1       0.014   9.503  23.723  0.00  0.00    +0.000 OA
ATOM     21  O   UNL     1       1.039   8.676  21.850  0.00  0.00    +0.000 OA
ATOM     22  C   UNL     1       1.235   8.762  20.455  0.00  0.00    +0.000 A 
ATOM     23  C   UNL     1       2.105   7.814  19.896  0.00  0.00    +0.000 A 
ATOM     24  C   UNL     1       2.350   7.836  18.525  0.00  0.00    +0.000 A 
ATOM     25  C   UNL     1       1.707   8.802  17.746  0.00  0.00    +0.000 A 
ATOM     26  C   UNL     1       0.839   9.744  18.318  0.00  0.00    +0.000 A 
ATOM     27  C   UNL     1       0.591   9.741  19.694  0.00  0.00    +0.000 A 
ENDBRANCH  15  24
ENDBRANCH   1  15
TORSDOF 6
ENDMDL
MODEL 5
REMARK VINA RESULT:      -7.8      5.494      8.253
REMARK  Name = 
REMARK  8 active torsions:
REMARK  status: ('A' for Active; 'I' for Inactive)
REMARK    1  A    between atoms: C_1  and  C_2
REMARK    2  A    between atoms: C_9  and  O_10
REMARK    3  A    between atoms: O_10  and  C_11
REMARK    4  A    between atoms: C_11  and  C_12
REMARK    5  A    between atoms: C_12  and  O_14
REMARK    6  A    between atoms: O_14  and  C_15
REMARK    7  A    between atoms: C_15  and  C_16
REMARK    8  A    between atoms: C_21  and  C_22
REMARK                            x       y       z     vdW  Elec       q    Type
REMARK                         _______ _______ _______ _____ _____    ______ ____
ROOT
ATOM      1  C   UNL     1       7.705   8.667  17.693  0.00  0.00    +0.000 C 
ENDROOT
BRANCH   1   2
ATOM      2  C   UNL     1       7.446   7.199  17.395  0.00  0.00    +0.000 C 
ATOM      3  O   UNL     1       7.824   6.618  16.383  0.00  0.00    +0.000 OA
BRANCH   2   4
ATOM      4  O   UNL     1       6.680   6.634  18.372  0.00  0.00    +0.000 OA
BRANCH   4   5
ATOM      5  C   UNL     1       6.731   5.203  18.398  0.00  0.00    +0.000 C 
BRANCH   5   6
ATOM      6  C   UNL     1       5.532   4.624  17.630  0.00  0.00    +0.000 C 
ATOM      7  O   UNL     1       5.698   4.086  16.533  0.00  0.00    +0.000 OA
ATOM      8  N   UNL     1       4.273   4.753  18.210  0.00  0.00    +0.000 N 
ATOM      9  C   UNL     1       3.993   5.425  19.475  0.00  0.00    +0.000 C 
ATOM     10  C   UNL     1       2.989   4.642  20.323  0.00  0.00    +0.000 C 
ATOM     11  C   UNL     1       1.731   4.251  19.532  0.00  0.00    +0.000 C 
ATOM     12  C   UNL     1       0.830   3.336  20.361  0.00  0.00    +0.000 C 
ATOM     13  C   UNL     1       2.114   3.570  18.212  0.00  0.00    +0.000 C 
ATOM     14  C   UNL     1       3.095   4.421  17.413  0.00  0.00    +0.000 C 
ENDBRANCH   5   6
ENDBRANCH   4   5
ENDBRANCH   2   4
ENDBRANCH   1   2
BRANCH   1  15
ATOM     15  O   UNL     1       8.732   8.837  18.660  0.00  0.00    +0.000 OA
BRANCH  15  24
ATOM     16  C   UNL     1      10.400  14.569  21.443  0.00  0.00    +0.000 C 
ATOM     17  C   UNL     1      10.407  14.088  20.022  0.00  0.00    +0.000 A 
ATOM     18  C   UNL     1      10.798  14.893  19.023  0.00  0.00    +0.000 A 
ATOM     19  C   UNL     1      10.820  14.484  17.611  0.00  0.00    +0.000 A 
ATOM     20  O   UNL     1      11.188  15.264  16.741  0.00  0.00    +0.000 OA
ATOM     21  O   UNL     1      10.405  13.194  17.327  0.00  0.00    +0.000 OA
ATOM     22  C   UNL     1       9.986  12.317  18.352  0.00  0.00    +0.000 A 
ATOM     23  C   UNL     1       9.588  11.036  17.941  0.00  0.00    +0.000 A 
ATOM     24  C   UNL     1       9.162  10.116  18.895  0.00  0.00    +0.000 A 
ATOM     25  C   UNL     1       9.156  10.498  20.239  0.00  0.00    +0.000 A 
ATOM     26  C   UNL     1       9.557  11.782  20.636  0.00  0.00    +0.000 A 
ATOM     27  C   UNL     1       9.978  12.721  19.689  0.00  0.00    +0.000 A 
ENDBRANCH  15  24
ENDBRANCH   1  15
TORSDOF 6
ENDMDL
MODEL 6
REMARK VINA RESULT:      -7.8      1.494      2.157
REMARK  Name = 
REMARK  8 active torsions:
REMARK  status: ('A' for Active; 'I' for Inactive)
REMARK    1  A    between atoms: C_1  and  C_2
REMARK    2  A    between atoms: C_9  and  O_10
REMARK    3  A    between atoms: O_10  and  C_11
REMARK    4  A    between atoms: C_11  and  C_12
REMARK    5  A    between atoms: C_12  and  O_14
REMARK    6  A    between atoms: O_14  and  C_15
REMARK    7  A    between atoms: C_15  and  C_16
REMARK    8  A    between atoms: C_21  and  C_22
REMARK                            x       y       z     vdW  Elec       q    Type
REMARK                         _______ _______ _______ _____ _____    ______ ____
ROOT
ATOM      1  C   UNL     1       2.035   2.387  20.000  0.00  0.00    +0.000 C 
ENDROOT
BRANCH   1   2
ATOM      2  C   UNL     1       1.083   3.388  19.364  0.00  0.00    +0.000 C 
ATOM      3  O   UNL     1       0.565   3.251  18.262  0.00  0.00    +0.000 OA
BRANCH   2   4
ATOM      4  O   UNL     1       0.939   4.489  20.157  0.00  0.00    +0.000 OA
BRANCH   4   5
ATOM      5  C   UNL     1       2.136   5.264  20.300  0.00  0.00    +0.000 C 
BRANCH   5   6
ATOM      6  C   UNL     1       2.226   6.298  19.166  0.00  0.00    +0.000 C 
ATOM      7  O   UNL     1       2.604   5.959  18.043  0.00  0.00    +0.000 OA
ATOM      8  N   UNL     1       1.886   7.615  19.467  0.00  0.00    +0.000 N 
ATOM      9  C   UNL     1       1.484   8.101  20.784  0.00  0.00    +0.000 C 
ATOM     10  C   UNL     1       0.308   9.076  20.694  0.00  0.00    +0.000 C 
ATOM     11  C   UNL     1       0.548  10.190  19.664  0.00  0.00    +0.000 C 
ATOM     12  C   UNL     1      -0.707  11.044  19.486  0.00  0.00    +0.000 C 
ATOM     13  C   UNL     1       0.984   9.595  18.318  0.00  0.00    +0.000 C 
ATOM     14  C   UNL     1       2.174   8.657  18.486  0.00  0.00    +0.000 C 
ENDBRANCH   5   6
ENDBRANCH   4   5
ENDBRANCH   2   4
ENDBRANCH   1   2
BRANCH   1  15
ATOM     15  O   UNL     1       2.972   1.879  19.061  0.00  0.00    +0.000 OA
BRANCH  15  24
ATOM     16  C   UNL     1       7.785   6.352  18.602  0.00  0.00    +0.000 C 
ATOM     17  C   UNL     1       7.009   5.583  17.573  0.00  0.00    +0.000 A 
ATOM     18  C   UNL     1       7.238   5.759  16.263  0.00  0.00    +0.000 A 
ATOM     19  C   UNL     1       6.507   5.043  15.208  0.00  0.00    +0.000 A 
ATOM     20  O   UNL     1       6.759   5.245  14.026  0.00  0.00    +0.000 OA
ATOM     21  O   UNL     1       5.533   4.148  15.619  0.00  0.00    +0.000 OA
ATOM     22  C   UNL     1       5.264   3.936  16.988  0.00  0.00    +0.000 A 
ATOM     23  C   UNL     1       4.255   3.006  17.281  0.00  0.00    +0.000 A 
ATOM     24  C   UNL     1       3.933   2.743  18.609  0.00  0.00    +0.000 A 
ATOM     25  C   UNL     1       4.638   3.412  19.614  0.00  0.00    +0.000 A 
ATOM     26  C   UNL     1       5.645   4.339  19.307  0.00  0.00    +0.000 A 
ATOM     27  C   UNL     1       5.973   4.621  17.978  0.00  0.00    +0.000 A 
ENDBRANCH  15  24
ENDBRANCH   1  15
TORSDOF 6
ENDMDL
MODEL 7
REMARK VINA RESULT:      -7.8      2.449      6.790
REMARK  Name = 
REMARK  8 active torsions:
REMARK  status: ('A' for Active; 'I' for Inactive)
REMARK    1  A    between atoms: C_1  and  C_2
REMARK    2  A    between atoms: C_9  and  O_10
REMARK    3  A    between atoms: O_10  and  C_11
REMARK    4  A    between atoms: C_11  and  C_12
REMARK    5  A    between atoms: C_12  and  O_14
REMARK    6  A    between atoms: O_14  and  C_15
REMARK    7  A    between atoms: C_15  and  C_16
REMARK    8  A    between atoms: C_21  and  C_22
REMARK                            x       y       z     vdW  Elec       q    Type
REMARK                         _______ _______ _______ _____ _____    ______ ____
ROOT
ATOM      1  C   UNL     1       2.054   4.887  20.617  0.00  0.00    +0.000 C 
ENDROOT
BRANCH   1   2
ATOM      2  C   UNL     1       2.627   3.525  20.258  0.00  0.00    +0.000 C 
ATOM      3  O   UNL     1       1.973   2.489  20.200  0.00  0.00    +0.000 OA
BRANCH   2   4
ATOM      4  O   UNL     1       3.977   3.601  20.078  0.00  0.00    +0.000 OA
BRANCH   4   5
ATOM      5  C   UNL     1       4.436   2.998  18.862  0.00  0.00    +0.000 C 
BRANCH   5   6
ATOM      6  C   UNL     1       4.404   4.029  17.723  0.00  0.00    +0.000 C 
ATOM      7  O   UNL     1       3.400   4.144  17.017  0.00  0.00    +0.000 OA
ATOM      8  N   UNL     1       5.548   4.796  17.516  0.00  0.00    +0.000 N 
ATOM      9  C   UNL     1       6.791   4.676  18.273  0.00  0.00    +0.000 C 
ATOM     10  C   UNL     1       7.381   6.046  18.613  0.00  0.00    +0.000 C 
ATOM     11  C   UNL     1       7.484   6.963  17.385  0.00  0.00    +0.000 C 
ATOM     12  C   UNL     1       7.923   8.369  17.791  0.00  0.00    +0.000 C 
ATOM     13  C   UNL     1       6.145   7.016  16.638  0.00  0.00    +0.000 C 
ATOM     14  C   UNL     1       5.635   5.617  16.312  0.00  0.00    +0.000 C 
ENDBRANCH   5   6
ENDBRANCH   4   5
ENDBRANCH   2   4
ENDBRANCH   1   2
BRANCH   1  15
ATOM     15  O   UNL     1       2.568   5.913  19.780  0.00  0.00    +0.000 OA
BRANCH  15  24
ATOM     16  C   UNL     1       0.408  12.038  18.680  0.00  0.00    +0.000 C 
ATOM     17  C   UNL     1       0.357  11.142  19.882  0.00  0.00    +0.000 A 
ATOM     18  C   UNL     1      -0.205  11.555  21.028  0.00  0.00    +0.000 A 
ATOM     19  C   UNL     1      -0.279  10.729  22.241  0.00  0.00    +0.000 A 
ATOM     20  O   UNL     1      -0.805  11.161  23.260  0.00  0.00    +0.000 OA
ATOM     21  O   UNL     1       0.272   9.460  22.168  0.00  0.00    +0.000 OA
ATOM     22  C   UNL     1       0.870   8.989  20.980  0.00  0.00    +0.000 A 
ATOM     23  C   UNL     1       1.394   7.689  21.028  0.00  0.00    +0.000 A 
ATOM     24  C   UNL     1       2.000   7.154  19.894  0.00  0.00    +0.000 A 
ATOM     25  C   UNL     1       2.058   7.934  18.735  0.00  0.00    +0.000 A 
ATOM     26  C   UNL     1       1.530   9.232  18.701  0.00  0.00    +0.000 A 
ATOM     27  C   UNL     1       0.927   9.787  19.834  0.00  0.00    +0.000 A 
ENDBRANCH  15  24
ENDBRANCH   1  15
TORSDOF 6
ENDMDL
MODEL 8
REMARK VINA RESULT:      -7.6      2.267      6.852
REMARK  Name = 
REMARK  8 active torsions:
REMARK  status: ('A' for Active; 'I' for Inactive)
REMARK    1  A    between atoms: C_1  and  C_2
REMARK    2  A    between atoms: C_9  and  O_10
REMARK    3  A    between atoms: O_10  and  C_11
REMARK    4  A    between atoms: C_11  and  C_12
REMARK    5  A    between atoms: C_12  and  O_14
REMARK    6  A    between atoms: O_14  and  C_15
REMARK    7  A    between atoms: C_15  and  C_16
REMARK    8  A    between atoms: C_21  and  C_22
REMARK                            x       y       z     vdW  Elec       q    Type
REMARK                         _______ _______ _______ _____ _____    ______ ____
ROOT
ATOM      1  C   UNL     1       3.096   4.243  19.991  0.00  0.00    +0.000 C 
ENDROOT
BRANCH   1   2
ATOM      2  C   UNL     1       3.914   3.057  19.505  0.00  0.00    +0.000 C 
ATOM      3  O   UNL     1       3.443   1.970  19.190  0.00  0.00    +0.000 OA
BRANCH   2   4
ATOM      4  O   UNL     1       5.247   3.346  19.532  0.00  0.00    +0.000 OA
BRANCH   4   5
ATOM      5  C   UNL     1       5.540   4.747  19.456  0.00  0.00    +0.000 C 
BRANCH   5   6
ATOM      6  C   UNL     1       6.666   4.990  18.438  0.00  0.00    +0.000 C 
ATOM      7  O   UNL     1       7.834   5.102  18.816  0.00  0.00    +0.000 OA
ATOM      8  N   UNL     1       6.307   5.097  17.096  0.00  0.00    +0.000 N 
ATOM      9  C   UNL     1       4.943   5.032  16.580  0.00  0.00    +0.000 C 
ATOM     10  C   UNL     1       4.860   4.196  15.302  0.00  0.00    +0.000 C 
ATOM     11  C   UNL     1       5.902   4.618  14.256  0.00  0.00    +0.000 C 
ATOM     12  C   UNL     1       5.896   3.660  13.065  0.00  0.00    +0.000 C 
ATOM     13  C   UNL     1       7.301   4.681  14.884  0.00  0.00    +0.000 C 
ATOM     14  C   UNL     1       7.309   5.550  16.136  0.00  0.00    +0.000 C 
ENDBRANCH   5   6
ENDBRANCH   4   5
ENDBRANCH   2   4
ENDBRANCH   1   2
BRANCH   1  15
ATOM     15  O   UNL     1       2.738   5.110  18.924  0.00  0.00    +0.000 OA
BRANCH  15  24
ATOM     16  C   UNL     1       0.920  11.441  18.869  0.00  0.00    +0.000 C 
ATOM     17  C   UNL     1       0.938  10.397  19.946  0.00  0.00    +0.000 A 
ATOM     18  C   UNL     1       0.539  10.686  21.194  0.00  0.00    +0.000 A 
ATOM     19  C   UNL     1       0.540   9.711  22.294  0.00  0.00    +0.000 A 
ATOM     20  O   UNL     1       0.165  10.034  23.415  0.00  0.00    +0.000 OA
ATOM     21  O   UNL     1       0.986   8.435  21.997  0.00  0.00    +0.000 OA
ATOM     22  C   UNL     1       1.413   8.092  20.696  0.00  0.00    +0.000 A 
ATOM     23  C   UNL     1       1.842   6.768  20.517  0.00  0.00    +0.000 A 
ATOM     24  C   UNL     1       2.278   6.356  19.261  0.00  0.00    +0.000 A 
ATOM     25  C   UNL     1       2.262   7.278  18.210  0.00  0.00    +0.000 A 
ATOM     26  C   UNL     1       1.830   8.598  18.403  0.00  0.00    +0.000 A 
ATOM     27  C   UNL     1       1.399   9.030  19.660  0.00  0.00    +0.000 A 
ENDBRANCH  15  24
ENDBRANCH   1  15
TORSDOF 6
ENDMDL
MODEL 9
REMARK VINA RESULT:      -7.6      2.421      7.243
REMARK  Name = 
REMARK  8 active torsions:
REMARK  status: ('A' for Active; 'I' for Inactive)
REMARK    1  A    between atoms: C_1  and  C_2
REMARK    2  A    between atoms: C_9  and  O_10
REMARK    3  A    between atoms: O_10  and  C_11
REMARK    4  A    between atoms: C_11  and  C_12
REMARK    5  A    between atoms: C_12  and  O_14
REMARK    6  A    between atoms: O_14  and  C_15
REMARK    7  A    between atoms: C_15  and  C_16
REMARK    8  A    between atoms: C_21  and  C_22
REMARK                            x       y       z     vdW  Elec       q    Type
REMARK                         _______ _______ _______ _____ _____    ______ ____
ROOT
ATOM      1  C   UNL     1       1.998   5.283  19.167  0.00  0.00    +0.000 C 
ENDROOT
BRANCH   1   2
ATOM      2  C   UNL     1       2.257   4.343  20.333  0.00  0.00    +0.000 C 
ATOM      3  O   UNL     1       2.381   4.700  21.500  0.00  0.00    +0.000 OA
BRANCH   2   4
ATOM      4  O   UNL     1       2.400   3.058  19.896  0.00  0.00    +0.000 OA
BRANCH   4   5
ATOM      5  C   UNL     1       3.041   2.946  18.620  0.00  0.00    +0.000 C 
BRANCH   5   6
ATOM      6  C   UNL     1       4.525   3.326  18.747  0.00  0.00    +0.000 C 
ATOM      7  O   UNL     1       5.182   2.953  19.721  0.00  0.00    +0.000 OA
ATOM      8  N   UNL     1       5.076   4.114  17.740  0.00  0.00    +0.000 N 
ATOM      9  C   UNL     1       4.349   4.639  16.587  0.00  0.00    +0.000 C 
ATOM     10  C   UNL     1       5.166   4.522  15.300  0.00  0.00    +0.000 C 
ATOM     11  C   UNL     1       6.586   5.089  15.452  0.00  0.00    +0.000 C 
ATOM     12  C   UNL     1       7.420   4.808  14.202  0.00  0.00    +0.000 C 
ATOM     13  C   UNL     1       7.270   4.501  16.694  0.00  0.00    +0.000 C 
ATOM     14  C   UNL     1       6.408   4.678  17.939  0.00  0.00    +0.000 C 
ENDBRANCH   5   6
ENDBRANCH   4   5
ENDBRANCH   2   4
ENDBRANCH   1   2
BRANCH   1  15
ATOM     15  O   UNL     1       2.764   6.475  19.269  0.00  0.00    +0.000 OA
BRANCH  15  24
ATOM     16  C   UNL     1      -0.102  12.379  18.706  0.00  0.00    +0.000 C 
ATOM     17  C   UNL     1       0.031  11.417  19.851  0.00  0.00    +0.000 A 
ATOM     18  C   UNL     1      -0.482  11.704  21.056  0.00  0.00    +0.000 A 
ATOM     19  C   UNL     1      -0.378  10.809  22.217  0.00  0.00    +0.000 A 
ATOM     20  O   UNL     1      -0.868  11.125  23.295  0.00  0.00    +0.000 OA
ATOM     21  O   UNL     1       0.296   9.614  22.027  0.00  0.00    +0.000 OA
ATOM     22  C   UNL     1       0.849   9.277  20.773  0.00  0.00    +0.000 A 
ATOM     23  C   UNL     1       1.508   8.040  20.703  0.00  0.00    +0.000 A 
ATOM     24  C   UNL     1       2.079   7.638  19.499  0.00  0.00    +0.000 A 
ATOM     25  C   UNL     1       1.967   8.482  18.390  0.00  0.00    +0.000 A 
ATOM     26  C   UNL     1       1.306   9.715  18.474  0.00  0.00    +0.000 A 
ATOM     27  C   UNL     1       0.735  10.137  19.678  0.00  0.00    +0.000 A 
ENDBRANCH  15  24
ENDBRANCH   1  15
TORSDOF 6
ENDMDL
