MODEL 1
REMARK VINA RESULT:      -8.8      0.000      0.000
REMARK  Name = 
REMARK  7 active torsions:
REMARK  status: ('A' for Active; 'I' for Inactive)
REMARK    1  A    between atoms: O_1  and  C_2
REMARK    2  A    between atoms: C_2  and  C_3
REMARK    3  A    between atoms: C_2  and  C_17
REMARK    4  A    between atoms: C_5  and  C_6
REMARK    5  A    between atoms: C_11  and  C_12
REMARK    6  A    between atoms: C_19  and  C_20
REMARK    7  A    between atoms: C_25  and  C_26
REMARK                            x       y       z     vdW  Elec       q    Type
REMARK                         _______ _______ _______ _____ _____    ______ ____
ROOT
ATOM      1  C   UNL     1       3.197   7.174  17.320  0.00  0.00    +0.000 C 
ENDROOT
BRANCH   1   2
ATOM      2  C   UNL     1       4.558   6.573  17.004  0.00  0.00    +0.000 A 
ATOM      3  C   UNL     1       4.800   5.923  15.783  0.00  0.00    +0.000 A 
ATOM      4  C   UNL     1       6.007   5.248  15.543  0.00  0.00    +0.000 A 
ATOM      5  C   UNL     1       6.995   5.241  16.542  0.00  0.00    +0.000 A 
ATOM      6  C   UNL     1       6.786   5.888  17.769  0.00  0.00    +0.000 A 
ATOM      7  C   UNL     1       5.565   6.553  17.985  0.00  0.00    +0.000 A 
BRANCH   4   8
ATOM      8  C   UNL     1       6.237   4.498  14.251  0.00  0.00    +0.000 C 
ATOM      9  F   UNL     1       7.210   5.044  13.470  0.00  0.00    +0.000 F 
ATOM     10  F   UNL     1       6.599   3.203  14.457  0.00  0.00    +0.000 F 
ATOM     11  F   UNL     1       5.117   4.458  13.477  0.00  0.00    +0.000 F 
ENDBRANCH   4   8
BRANCH   6  12
ATOM     12  C   UNL     1       7.827   5.844  18.865  0.00  0.00    +0.000 C 
ATOM     13  F   UNL     1       8.628   6.944  18.898  0.00  0.00    +0.000 F 
ATOM     14  F   UNL     1       7.274   5.742  20.105  0.00  0.00    +0.000 F 
ATOM     15  F   UNL     1       8.662   4.776  18.738  0.00  0.00    +0.000 F 
ENDBRANCH   6  12
ENDBRANCH   1   2
BRANCH   1  16
ATOM     16  C   UNL     1       2.616   6.862  18.688  0.00  0.00    +0.000 A 
ATOM     17  C   UNL     1       2.555   5.529  19.127  0.00  0.00    +0.000 A 
ATOM     18  C   UNL     1       1.871   5.180  20.305  0.00  0.00    +0.000 A 
ATOM     19  C   UNL     1       1.297   6.198  21.086  0.00  0.00    +0.000 A 
ATOM     20  C   UNL     1       1.382   7.541  20.697  0.00  0.00    +0.000 A 
ATOM     21  C   UNL     1       2.039   7.858  19.496  0.00  0.00    +0.000 A 
BRANCH  18  22
ATOM     22  C   UNL     1       1.685   3.731  20.693  0.00  0.00    +0.000 C 
ATOM     23  F   UNL     1       1.770   3.514  22.035  0.00  0.00    +0.000 F 
ATOM     24  F   UNL     1       0.479   3.232  20.307  0.00  0.00    +0.000 F 
ATOM     25  F   UNL     1       2.626   2.924  20.127  0.00  0.00    +0.000 F 
ENDBRANCH  18  22
BRANCH  20  26
ATOM     26  C   UNL     1       0.743   8.638  21.519  0.00  0.00    +0.000 C 
ATOM     27  F   UNL     1       1.438   8.942  22.650  0.00  0.00    +0.000 F 
ATOM     28  F   UNL     1       0.627   9.804  20.827  0.00  0.00    +0.000 F 
ATOM     29  F   UNL     1      -0.515   8.317  21.929  0.00  0.00    +0.000 F 
ENDBRANCH  20  26
ENDBRANCH   1  16
BRANCH   1  30
ATOM     30  O   UNL     1       3.272   8.593  17.146  0.00  0.00    +0.000 OA
ATOM     31  H   UNL     1       3.844   8.938  17.853  0.00  0.00    +0.000 HD
ENDBRANCH   1  30
TORSDOF 7
ENDMDL
MODEL 2
REMARK VINA RESULT:      -8.8      0.094      1.210
REMARK  Name = 
REMARK  7 active torsions:
REMARK  status: ('A' for Active; 'I' for Inactive)
REMARK    1  A    between atoms: O_1  and  C_2
REMARK    2  A    between atoms: C_2  and  C_3
REMARK    3  A    between atoms: C_2  and  C_17
REMARK    4  A    between atoms: C_5  and  C_6
REMARK    5  A    between atoms: C_11  and  C_12
REMARK    6  A    between atoms: C_19  and  C_20
REMARK    7  A    between atoms: C_25  and  C_26
REMARK                            x       y       z     vdW  Elec       q    Type
REMARK                         _______ _______ _______ _____ _____    ______ ____
ROOT
ATOM      1  C   UNL     1       3.175   7.098  17.312  0.00  0.00    +0.000 C 
ENDROOT
BRANCH   1   2
ATOM      2  C   UNL     1       4.545   6.518  16.995  0.00  0.00    +0.000 A 
ATOM      3  C   UNL     1       4.801   5.885  15.768  0.00  0.00    +0.000 A 
ATOM      4  C   UNL     1       6.019   5.229  15.527  0.00  0.00    +0.000 A 
ATOM      5  C   UNL     1       7.001   5.225  16.530  0.00  0.00    +0.000 A 
ATOM      6  C   UNL     1       6.778   5.855  17.763  0.00  0.00    +0.000 A 
ATOM      7  C   UNL     1       5.548   6.501  17.981  0.00  0.00    +0.000 A 
BRANCH   4   8
ATOM      8  C   UNL     1       6.265   4.497  14.228  0.00  0.00    +0.000 C 
ATOM      9  F   UNL     1       5.166   4.425  13.426  0.00  0.00    +0.000 F 
ATOM     10  F   UNL     1       7.243   5.075  13.480  0.00  0.00    +0.000 F 
ATOM     11  F   UNL     1       6.659   3.209  14.434  0.00  0.00    +0.000 F 
ENDBRANCH   4   8
BRANCH   6  12
ATOM     12  C   UNL     1       7.815   5.813  18.863  0.00  0.00    +0.000 C 
ATOM     13  F   UNL     1       8.599   6.925  18.915  0.00  0.00    +0.000 F 
ATOM     14  F   UNL     1       7.258   5.687  20.099  0.00  0.00    +0.000 F 
ATOM     15  F   UNL     1       8.667   4.759  18.727  0.00  0.00    +0.000 F 
ENDBRANCH   6  12
ENDBRANCH   1   2
BRANCH   1  16
ATOM     16  C   UNL     1       2.622   6.819  18.698  0.00  0.00    +0.000 A 
ATOM     17  C   UNL     1       2.584   5.500  19.177  0.00  0.00    +0.000 A 
ATOM     18  C   UNL     1       1.925   5.177  20.376  0.00  0.00    +0.000 A 
ATOM     19  C   UNL     1       1.353   6.211  21.137  0.00  0.00    +0.000 A 
ATOM     20  C   UNL     1       1.414   7.543  20.708  0.00  0.00    +0.000 A 
ATOM     21  C   UNL     1       2.047   7.832  19.486  0.00  0.00    +0.000 A 
BRANCH  18  22
ATOM     22  C   UNL     1       1.764   3.738  20.810  0.00  0.00    +0.000 C 
ATOM     23  F   UNL     1       2.586   2.877  20.150  0.00  0.00    +0.000 F 
ATOM     24  F   UNL     1       2.015   3.557  22.135  0.00  0.00    +0.000 F 
ATOM     25  F   UNL     1       0.499   3.278  20.600  0.00  0.00    +0.000 F 
ENDBRANCH  18  22
BRANCH  20  26
ATOM     26  C   UNL     1       0.776   8.656  21.508  0.00  0.00    +0.000 C 
ATOM     27  F   UNL     1      -0.488   8.368  21.924  0.00  0.00    +0.000 F 
ATOM     28  F   UNL     1       1.480   8.956  22.634  0.00  0.00    +0.000 F 
ATOM     29  F   UNL     1       0.681   9.817  20.804  0.00  0.00    +0.000 F 
ENDBRANCH  20  26
ENDBRANCH   1  16
BRANCH   1  30
ATOM     30  O   UNL     1       3.213   8.511  17.089  0.00  0.00    +0.000 OA
ATOM     31  H   UNL     1       3.892   8.677  16.412  0.00  0.00    +0.000 HD
ENDBRANCH   1  30
TORSDOF 7
ENDMDL
MODEL 3
REMARK VINA RESULT:      -8.8      0.120      1.195
REMARK  Name = 
REMARK  7 active torsions:
REMARK  status: ('A' for Active; 'I' for Inactive)
REMARK    1  A    between atoms: O_1  and  C_2
REMARK    2  A    between atoms: C_2  and  C_3
REMARK    3  A    between atoms: C_2  and  C_17
REMARK    4  A    between atoms: C_5  and  C_6
REMARK    5  A    between atoms: C_11  and  C_12
REMARK    6  A    between atoms: C_19  and  C_20
REMARK    7  A    between atoms: C_25  and  C_26
REMARK                            x       y       z     vdW  Elec       q    Type
REMARK                         _______ _______ _______ _____ _____    ______ ____
ROOT
ATOM      1  C   UNL     1       3.177   7.092  17.316  0.00  0.00    +0.000 C 
ENDROOT
BRANCH   1   2
ATOM      2  C   UNL     1       4.546   6.508  17.000  0.00  0.00    +0.000 A 
ATOM      3  C   UNL     1       4.798   5.866  15.777  0.00  0.00    +0.000 A 
ATOM      4  C   UNL     1       6.014   5.207  15.537  0.00  0.00    +0.000 A 
ATOM      5  C   UNL     1       7.000   5.209  16.537  0.00  0.00    +0.000 A 
ATOM      6  C   UNL     1       6.781   5.848  17.766  0.00  0.00    +0.000 A 
ATOM      7  C   UNL     1       5.551   6.498  17.984  0.00  0.00    +0.000 A 
BRANCH   4   8
ATOM      8  C   UNL     1       6.256   4.465  14.243  0.00  0.00    +0.000 C 
ATOM      9  F   UNL     1       6.657   3.176  14.420  0.00  0.00    +0.000 F 
ATOM     10  F   UNL     1       5.146   4.411  13.458  0.00  0.00    +0.000 F 
ATOM     11  F   UNL     1       7.223   5.056  13.488  0.00  0.00    +0.000 F 
ENDBRANCH   4   8
BRANCH   6  12
ATOM     12  C   UNL     1       7.820   5.814  18.864  0.00  0.00    +0.000 C 
ATOM     13  F   UNL     1       7.290   5.696  20.112  0.00  0.00    +0.000 F 
ATOM     14  F   UNL     1       8.691   4.776  18.724  0.00  0.00    +0.000 F 
ATOM     15  F   UNL     1       8.583   6.942  18.886  0.00  0.00    +0.000 F 
ENDBRANCH   6  12
ENDBRANCH   1   2
BRANCH   1  16
ATOM     16  C   UNL     1       2.626   6.820  18.705  0.00  0.00    +0.000 A 
ATOM     17  C   UNL     1       2.604   5.505  19.197  0.00  0.00    +0.000 A 
ATOM     18  C   UNL     1       1.947   5.187  20.399  0.00  0.00    +0.000 A 
ATOM     19  C   UNL     1       1.362   6.221  21.149  0.00  0.00    +0.000 A 
ATOM     20  C   UNL     1       1.407   7.549  20.706  0.00  0.00    +0.000 A 
ATOM     21  C   UNL     1       2.037   7.834  19.482  0.00  0.00    +0.000 A 
BRANCH  18  22
ATOM     22  C   UNL     1       1.804   3.751  20.847  0.00  0.00    +0.000 C 
ATOM     23  F   UNL     1       2.120   3.557  22.158  0.00  0.00    +0.000 F 
ATOM     24  F   UNL     1       0.539   3.274  20.691  0.00  0.00    +0.000 F 
ATOM     25  F   UNL     1       2.613   2.911  20.143  0.00  0.00    +0.000 F 
ENDBRANCH  18  22
BRANCH  20  26
ATOM     26  C   UNL     1       0.754   8.662  21.494  0.00  0.00    +0.000 C 
ATOM     27  F   UNL     1       0.662   9.833  20.804  0.00  0.00    +0.000 F 
ATOM     28  F   UNL     1      -0.515   8.353  21.876  0.00  0.00    +0.000 F 
ATOM     29  F   UNL     1       1.429   8.957  22.639  0.00  0.00    +0.000 F 
ENDBRANCH  20  26
ENDBRANCH   1  16
BRANCH   1  30
ATOM     30  O   UNL     1       3.218   8.504  17.087  0.00  0.00    +0.000 OA
ATOM     31  H   UNL     1       2.576   8.699  16.382  0.00  0.00    +0.000 HD
ENDBRANCH   1  30
TORSDOF 7
ENDMDL
MODEL 4
REMARK VINA RESULT:      -8.8      0.093      1.188
REMARK  Name = 
REMARK  7 active torsions:
REMARK  status: ('A' for Active; 'I' for Inactive)
REMARK    1  A    between atoms: O_1  and  C_2
REMARK    2  A    between atoms: C_2  and  C_3
REMARK    3  A    between atoms: C_2  and  C_17
REMARK    4  A    between atoms: C_5  and  C_6
REMARK    5  A    between atoms: C_11  and  C_12
REMARK    6  A    between atoms: C_19  and  C_20
REMARK    7  A    between atoms: C_25  and  C_26
REMARK                            x       y       z     vdW  Elec       q    Type
REMARK                         _______ _______ _______ _____ _____    ______ ____
ROOT
ATOM      1  C   UNL     1       3.203   7.162  17.347  0.00  0.00    +0.000 C 
ENDROOT
BRANCH   1   2
ATOM      2  C   UNL     1       4.567   6.571  17.027  0.00  0.00    +0.000 A 
ATOM      3  C   UNL     1       4.809   5.919  15.807  0.00  0.00    +0.000 A 
ATOM      4  C   UNL     1       6.021   5.253  15.564  0.00  0.00    +0.000 A 
ATOM      5  C   UNL     1       7.013   5.259  16.558  0.00  0.00    +0.000 A 
ATOM      6  C   UNL     1       6.804   5.908  17.783  0.00  0.00    +0.000 A 
ATOM      7  C   UNL     1       5.579   6.564  18.004  0.00  0.00    +0.000 A 
BRANCH   4   8
ATOM      8  C   UNL     1       6.252   4.501  14.273  0.00  0.00    +0.000 C 
ATOM      9  F   UNL     1       5.140   4.403  13.494  0.00  0.00    +0.000 F 
ATOM     10  F   UNL     1       7.209   5.077  13.497  0.00  0.00    +0.000 F 
ATOM     11  F   UNL     1       6.665   3.222  14.494  0.00  0.00    +0.000 F 
ENDBRANCH   4   8
BRANCH   6  12
ATOM     12  C   UNL     1       7.851   5.878  18.875  0.00  0.00    +0.000 C 
ATOM     13  F   UNL     1       8.719   4.834  18.768  0.00  0.00    +0.000 F 
ATOM     14  F   UNL     1       8.616   7.004  18.894  0.00  0.00    +0.000 F 
ATOM     15  F   UNL     1       7.297   5.779  20.115  0.00  0.00    +0.000 F 
ENDBRANCH   6  12
ENDBRANCH   1   2
BRANCH   1  16
ATOM     16  C   UNL     1       2.637   6.860  18.723  0.00  0.00    +0.000 A 
ATOM     17  C   UNL     1       2.623   5.536  19.192  0.00  0.00    +0.000 A 
ATOM     18  C   UNL     1       1.954   5.189  20.379  0.00  0.00    +0.000 A 
ATOM     19  C   UNL     1       1.348   6.204  21.140  0.00  0.00    +0.000 A 
ATOM     20  C   UNL     1       1.385   7.540  20.721  0.00  0.00    +0.000 A 
ATOM     21  C   UNL     1       2.027   7.853  19.511  0.00  0.00    +0.000 A 
BRANCH  18  22
ATOM     22  C   UNL     1       1.820   3.744  20.801  0.00  0.00    +0.000 C 
ATOM     23  F   UNL     1       0.593   3.214  20.539  0.00  0.00    +0.000 F 
ATOM     24  F   UNL     1       2.720   2.930  20.185  0.00  0.00    +0.000 F 
ATOM     25  F   UNL     1       2.018   3.580  22.139  0.00  0.00    +0.000 F 
ENDBRANCH  18  22
BRANCH  20  26
ATOM     26  C   UNL     1       0.710   8.632  21.521  0.00  0.00    +0.000 C 
ATOM     27  F   UNL     1       1.384   8.967  22.656  0.00  0.00    +0.000 F 
ATOM     28  F   UNL     1       0.575   9.786  20.813  0.00  0.00    +0.000 F 
ATOM     29  F   UNL     1      -0.545   8.287  21.920  0.00  0.00    +0.000 F 
ENDBRANCH  20  26
ENDBRANCH   1  16
BRANCH   1  30
ATOM     30  O   UNL     1       3.261   8.579  17.156  0.00  0.00    +0.000 OA
ATOM     31  H   UNL     1       3.038   8.752  16.225  0.00  0.00    +0.000 HD
ENDBRANCH   1  30
TORSDOF 7
ENDMDL
MODEL 5
REMARK VINA RESULT:      -8.7      0.250      3.276
REMARK  Name = 
REMARK  7 active torsions:
REMARK  status: ('A' for Active; 'I' for Inactive)
REMARK    1  A    between atoms: O_1  and  C_2
REMARK    2  A    between atoms: C_2  and  C_3
REMARK    3  A    between atoms: C_2  and  C_17
REMARK    4  A    between atoms: C_5  and  C_6
REMARK    5  A    between atoms: C_11  and  C_12
REMARK    6  A    between atoms: C_19  and  C_20
REMARK    7  A    between atoms: C_25  and  C_26
REMARK                            x       y       z     vdW  Elec       q    Type
REMARK                         _______ _______ _______ _____ _____    ______ ____
ROOT
ATOM      1  C   UNL     1       3.229   7.347  17.245  0.00  0.00    +0.000 C 
ENDROOT
BRANCH   1   2
ATOM      2  C   UNL     1       4.562   6.670  16.969  0.00  0.00    +0.000 A 
ATOM      3  C   UNL     1       4.788   5.971  15.772  0.00  0.00    +0.000 A 
ATOM      4  C   UNL     1       5.964   5.230  15.572  0.00  0.00    +0.000 A 
ATOM      5  C   UNL     1       6.935   5.205  16.585  0.00  0.00    +0.000 A 
ATOM      6  C   UNL     1       6.742   5.899  17.789  0.00  0.00    +0.000 A 
ATOM      7  C   UNL     1       5.553   6.631  17.966  0.00  0.00    +0.000 A 
BRANCH   4   8
ATOM      8  C   UNL     1       6.174   4.430  14.307  0.00  0.00    +0.000 C 
ATOM      9  F   UNL     1       7.131   4.948  13.488  0.00  0.00    +0.000 F 
ATOM     10  F   UNL     1       6.545   3.145  14.557  0.00  0.00    +0.000 F 
ATOM     11  F   UNL     1       5.041   4.356  13.555  0.00  0.00    +0.000 F 
ENDBRANCH   4   8
BRANCH   6  12
ATOM     12  C   UNL     1       7.764   5.838  18.902  0.00  0.00    +0.000 C 
ATOM     13  F   UNL     1       8.629   4.793  18.790  0.00  0.00    +0.000 F 
ATOM     14  F   UNL     1       8.533   6.960  18.965  0.00  0.00    +0.000 F 
ATOM     15  F   UNL     1       7.182   5.713  20.127  0.00  0.00    +0.000 F 
ENDBRANCH   6  12
ENDBRANCH   1   2
BRANCH   1  16
ATOM     16  C   UNL     1       2.529   6.969  18.538  0.00  0.00    +0.000 A 
ATOM     17  C   UNL     1       1.980   7.976  19.350  0.00  0.00    +0.000 A 
ATOM     18  C   UNL     1       1.480   7.688  20.632  0.00  0.00    +0.000 A 
ATOM     19  C   UNL     1       1.471   6.355  21.075  0.00  0.00    +0.000 A 
ATOM     20  C   UNL     1       1.969   5.322  20.269  0.00  0.00    +0.000 A 
ATOM     21  C   UNL     1       2.498   5.644  19.007  0.00  0.00    +0.000 A 
BRANCH  18  22
ATOM     22  C   UNL     1       1.026   8.796  21.554  0.00  0.00    +0.000 C 
ATOM     23  F   UNL     1       1.850   8.985  22.622  0.00  0.00    +0.000 F 
ATOM     24  F   UNL     1       0.940  10.001  20.928  0.00  0.00    +0.000 F 
ATOM     25  F   UNL     1      -0.209   8.554  22.077  0.00  0.00    +0.000 F 
ENDBRANCH  18  22
BRANCH  20  26
ATOM     26  C   UNL     1       1.987   3.889  20.752  0.00  0.00    +0.000 C 
ATOM     27  F   UNL     1       2.851   3.096  20.059  0.00  0.00    +0.000 F 
ATOM     28  F   UNL     1       2.352   3.786  22.058  0.00  0.00    +0.000 F 
ATOM     29  F   UNL     1       0.769   3.289  20.653  0.00  0.00    +0.000 F 
ENDBRANCH  20  26
ENDBRANCH   1  16
BRANCH   1  30
ATOM     30  O   UNL     1       3.419   8.765  17.203  0.00  0.00    +0.000 OA
ATOM     31  H   UNL     1       2.947   9.141  17.965  0.00  0.00    +0.000 HD
ENDBRANCH   1  30
TORSDOF 7
ENDMDL
MODEL 6
REMARK VINA RESULT:      -8.7      0.248      3.279
REMARK  Name = 
REMARK  7 active torsions:
REMARK  status: ('A' for Active; 'I' for Inactive)
REMARK    1  A    between atoms: O_1  and  C_2
REMARK    2  A    between atoms: C_2  and  C_3
REMARK    3  A    between atoms: C_2  and  C_17
REMARK    4  A    between atoms: C_5  and  C_6
REMARK    5  A    between atoms: C_11  and  C_12
REMARK    6  A    between atoms: C_19  and  C_20
REMARK    7  A    between atoms: C_25  and  C_26
REMARK                            x       y       z     vdW  Elec       q    Type
REMARK                         _______ _______ _______ _____ _____    ______ ____
ROOT
ATOM      1  C   UNL     1       3.201   7.356  17.265  0.00  0.00    +0.000 C 
ENDROOT
BRANCH   1   2
ATOM      2  C   UNL     1       4.533   6.679  16.984  0.00  0.00    +0.000 A 
ATOM      3  C   UNL     1       4.752   5.972  15.791  0.00  0.00    +0.000 A 
ATOM      4  C   UNL     1       5.927   5.231  15.587  0.00  0.00    +0.000 A 
ATOM      5  C   UNL     1       6.906   5.217  16.593  0.00  0.00    +0.000 A 
ATOM      6  C   UNL     1       6.721   5.919  17.793  0.00  0.00    +0.000 A 
ATOM      7  C   UNL     1       5.532   6.650  17.974  0.00  0.00    +0.000 A 
BRANCH   4   8
ATOM      8  C   UNL     1       6.129   4.422  14.326  0.00  0.00    +0.000 C 
ATOM      9  F   UNL     1       5.011   4.325  13.556  0.00  0.00    +0.000 F 
ATOM     10  F   UNL     1       7.099   4.940  13.524  0.00  0.00    +0.000 F 
ATOM     11  F   UNL     1       6.508   3.142  14.597  0.00  0.00    +0.000 F 
ENDBRANCH   4   8
BRANCH   6  12
ATOM     12  C   UNL     1       7.751   5.869  18.898  0.00  0.00    +0.000 C 
ATOM     13  F   UNL     1       8.531   6.983  18.967  0.00  0.00    +0.000 F 
ATOM     14  F   UNL     1       7.188   5.726  20.130  0.00  0.00    +0.000 F 
ATOM     15  F   UNL     1       8.608   4.820  18.755  0.00  0.00    +0.000 F 
ENDBRANCH   6  12
ENDBRANCH   1   2
BRANCH   1  16
ATOM     16  C   UNL     1       2.503   6.974  18.558  0.00  0.00    +0.000 A 
ATOM     17  C   UNL     1       1.961   7.978  19.377  0.00  0.00    +0.000 A 
ATOM     18  C   UNL     1       1.463   7.685  20.659  0.00  0.00    +0.000 A 
ATOM     19  C   UNL     1       1.450   6.349  21.094  0.00  0.00    +0.000 A 
ATOM     20  C   UNL     1       1.941   5.319  20.281  0.00  0.00    +0.000 A 
ATOM     21  C   UNL     1       2.468   5.645  19.019  0.00  0.00    +0.000 A 
BRANCH  18  22
ATOM     22  C   UNL     1       1.017   8.789  21.589  0.00  0.00    +0.000 C 
ATOM     23  F   UNL     1       1.841   8.963  22.659  0.00  0.00    +0.000 F 
ATOM     24  F   UNL     1       0.940   9.999  20.972  0.00  0.00    +0.000 F 
ATOM     25  F   UNL     1      -0.220   8.552  22.108  0.00  0.00    +0.000 F 
ENDBRANCH  18  22
BRANCH  20  26
ATOM     26  C   UNL     1       1.955   3.883  20.755  0.00  0.00    +0.000 C 
ATOM     27  F   UNL     1       2.338   3.746  22.054  0.00  0.00    +0.000 F 
ATOM     28  F   UNL     1       0.732   3.293  20.662  0.00  0.00    +0.000 F 
ATOM     29  F   UNL     1       2.804   3.102  20.032  0.00  0.00    +0.000 F 
ENDBRANCH  20  26
ENDBRANCH   1  16
BRANCH   1  30
ATOM     30  O   UNL     1       3.391   8.774  17.227  0.00  0.00    +0.000 OA
ATOM     31  H   UNL     1       3.115   9.078  16.346  0.00  0.00    +0.000 HD
ENDBRANCH   1  30
TORSDOF 7
ENDMDL
MODEL 7
REMARK VINA RESULT:      -8.7      0.257      3.275
REMARK  Name = 
REMARK  7 active torsions:
REMARK  status: ('A' for Active; 'I' for Inactive)
REMARK    1  A    between atoms: O_1  and  C_2
REMARK    2  A    between atoms: C_2  and  C_3
REMARK    3  A    between atoms: C_2  and  C_17
REMARK    4  A    between atoms: C_5  and  C_6
REMARK    5  A    between atoms: C_11  and  C_12
REMARK    6  A    between atoms: C_19  and  C_20
REMARK    7  A    between atoms: C_25  and  C_26
REMARK                            x       y       z     vdW  Elec       q    Type
REMARK                         _______ _______ _______ _____ _____    ______ ____
ROOT
ATOM      1  C   UNL     1       3.226   7.349  17.260  0.00  0.00    +0.000 C 
ENDROOT
BRANCH   1   2
ATOM      2  C   UNL     1       4.558   6.668  16.984  0.00  0.00    +0.000 A 
ATOM      3  C   UNL     1       4.778   5.957  15.794  0.00  0.00    +0.000 A 
ATOM      4  C   UNL     1       5.953   5.213  15.596  0.00  0.00    +0.000 A 
ATOM      5  C   UNL     1       6.929   5.200  16.605  0.00  0.00    +0.000 A 
ATOM      6  C   UNL     1       6.742   5.907  17.801  0.00  0.00    +0.000 A 
ATOM      7  C   UNL     1       5.554   6.640  17.977  0.00  0.00    +0.000 A 
BRANCH   4   8
ATOM      8  C   UNL     1       6.157   4.399  14.339  0.00  0.00    +0.000 C 
ATOM      9  F   UNL     1       7.147   4.876  13.536  0.00  0.00    +0.000 F 
ATOM     10  F   UNL     1       6.474   3.102  14.603  0.00  0.00    +0.000 F 
ATOM     11  F   UNL     1       5.036   4.363  13.566  0.00  0.00    +0.000 F 
ENDBRANCH   4   8
BRANCH   6  12
ATOM     12  C   UNL     1       7.769   5.858  18.910  0.00  0.00    +0.000 C 
ATOM     13  F   UNL     1       7.225   5.739  20.152  0.00  0.00    +0.000 F 
ATOM     14  F   UNL     1       8.633   4.814  18.774  0.00  0.00    +0.000 F 
ATOM     15  F   UNL     1       8.541   6.980  18.945  0.00  0.00    +0.000 F 
ENDBRANCH   6  12
ENDBRANCH   1   2
BRANCH   1  16
ATOM     16  C   UNL     1       2.525   6.974  18.553  0.00  0.00    +0.000 A 
ATOM     17  C   UNL     1       1.977   7.982  19.362  0.00  0.00    +0.000 A 
ATOM     18  C   UNL     1       1.476   7.697  20.645  0.00  0.00    +0.000 A 
ATOM     19  C   UNL     1       1.465   6.364  21.090  0.00  0.00    +0.000 A 
ATOM     20  C   UNL     1       1.962   5.330  20.286  0.00  0.00    +0.000 A 
ATOM     21  C   UNL     1       2.492   5.649  19.024  0.00  0.00    +0.000 A 
BRANCH  18  22
ATOM     22  C   UNL     1       1.023   8.807  21.565  0.00  0.00    +0.000 C 
ATOM     23  F   UNL     1       0.956  10.023  20.956  0.00  0.00    +0.000 F 
ATOM     24  F   UNL     1      -0.210   8.583  22.094  0.00  0.00    +0.000 F 
ATOM     25  F   UNL     1       1.864   8.968  22.625  0.00  0.00    +0.000 F 
ENDBRANCH  18  22
BRANCH  20  26
ATOM     26  C   UNL     1       1.979   3.898  20.771  0.00  0.00    +0.000 C 
ATOM     27  F   UNL     1       2.339   3.773  22.078  0.00  0.00    +0.000 F 
ATOM     28  F   UNL     1       0.762   3.298  20.660  0.00  0.00    +0.000 F 
ATOM     29  F   UNL     1       2.847   3.119  20.069  0.00  0.00    +0.000 F 
ENDBRANCH  20  26
ENDBRANCH   1  16
BRANCH   1  30
ATOM     30  O   UNL     1       3.419   8.767  17.215  0.00  0.00    +0.000 OA
ATOM     31  H   UNL     1       2.564   9.165  16.978  0.00  0.00    +0.000 HD
ENDBRANCH   1  30
TORSDOF 7
ENDMDL
MODEL 8
REMARK VINA RESULT:      -8.7      0.243      3.358
REMARK  Name = 
REMARK  7 active torsions:
REMARK  status: ('A' for Active; 'I' for Inactive)
REMARK    1  A    between atoms: O_1  and  C_2
REMARK    2  A    between atoms: C_2  and  C_3
REMARK    3  A    between atoms: C_2  and  C_17
REMARK    4  A    between atoms: C_5  and  C_6
REMARK    5  A    between atoms: C_11  and  C_12
REMARK    6  A    between atoms: C_19  and  C_20
REMARK    7  A    between atoms: C_25  and  C_26
REMARK                            x       y       z     vdW  Elec       q    Type
REMARK                         _______ _______ _______ _____ _____    ______ ____
ROOT
ATOM      1  C   UNL     1       3.201   7.342  17.253  0.00  0.00    +0.000 C 
ENDROOT
BRANCH   1   2
ATOM      2  C   UNL     1       4.534   6.665  16.974  0.00  0.00    +0.000 A 
ATOM      3  C   UNL     1       4.756   5.959  15.781  0.00  0.00    +0.000 A 
ATOM      4  C   UNL     1       5.932   5.218  15.580  0.00  0.00    +0.000 A 
ATOM      5  C   UNL     1       6.909   5.204  16.588  0.00  0.00    +0.000 A 
ATOM      6  C   UNL     1       6.720   5.906  17.788  0.00  0.00    +0.000 A 
ATOM      7  C   UNL     1       5.531   6.636  17.966  0.00  0.00    +0.000 A 
BRANCH   4   8
ATOM      8  C   UNL     1       6.138   4.410  14.320  0.00  0.00    +0.000 C 
ATOM      9  F   UNL     1       6.514   3.122  14.554  0.00  0.00    +0.000 F 
ATOM     10  F   UNL     1       5.015   4.343  13.554  0.00  0.00    +0.000 F 
ATOM     11  F   UNL     1       7.106   4.942  13.523  0.00  0.00    +0.000 F 
ENDBRANCH   4   8
BRANCH   6  12
ATOM     12  C   UNL     1       7.749   5.856  18.896  0.00  0.00    +0.000 C 
ATOM     13  F   UNL     1       8.632   4.828  18.772  0.00  0.00    +0.000 F 
ATOM     14  F   UNL     1       8.497   6.991  18.964  0.00  0.00    +0.000 F 
ATOM     15  F   UNL     1       7.175   5.711  20.123  0.00  0.00    +0.000 F 
ENDBRANCH   6  12
ENDBRANCH   1   2
BRANCH   1  16
ATOM     16  C   UNL     1       2.501   6.960  18.545  0.00  0.00    +0.000 A 
ATOM     17  C   UNL     1       1.939   7.962  19.352  0.00  0.00    +0.000 A 
ATOM     18  C   UNL     1       1.438   7.672  20.633  0.00  0.00    +0.000 A 
ATOM     19  C   UNL     1       1.442   6.340  21.079  0.00  0.00    +0.000 A 
ATOM     20  C   UNL     1       1.954   5.311  20.278  0.00  0.00    +0.000 A 
ATOM     21  C   UNL     1       2.483   5.635  19.017  0.00  0.00    +0.000 A 
BRANCH  18  22
ATOM     22  C   UNL     1       0.969   8.778  21.551  0.00  0.00    +0.000 C 
ATOM     23  F   UNL     1       0.960  10.005  20.961  0.00  0.00    +0.000 F 
ATOM     24  F   UNL     1      -0.293   8.575  22.018  0.00  0.00    +0.000 F 
ATOM     25  F   UNL     1       1.763   8.901  22.651  0.00  0.00    +0.000 F 
ENDBRANCH  18  22
BRANCH  20  26
ATOM     26  C   UNL     1       1.986   3.880  20.765  0.00  0.00    +0.000 C 
ATOM     27  F   UNL     1       0.792   3.238  20.639  0.00  0.00    +0.000 F 
ATOM     28  F   UNL     1       2.891   3.121  20.087  0.00  0.00    +0.000 F 
ATOM     29  F   UNL     1       2.324   3.783  22.080  0.00  0.00    +0.000 F 
ENDBRANCH  20  26
ENDBRANCH   1  16
BRANCH   1  30
ATOM     30  O   UNL     1       3.391   8.760  17.214  0.00  0.00    +0.000 OA
ATOM     31  H   UNL     1       3.658   9.038  18.107  0.00  0.00    +0.000 HD
ENDBRANCH   1  30
TORSDOF 7
ENDMDL
MODEL 9
REMARK VINA RESULT:      -8.5      2.364      7.247
REMARK  Name = 
REMARK  7 active torsions:
REMARK  status: ('A' for Active; 'I' for Inactive)
REMARK    1  A    between atoms: O_1  and  C_2
REMARK    2  A    between atoms: C_2  and  C_3
REMARK    3  A    between atoms: C_2  and  C_17
REMARK    4  A    between atoms: C_5  and  C_6
REMARK    5  A    between atoms: C_11  and  C_12
REMARK    6  A    between atoms: C_19  and  C_20
REMARK    7  A    between atoms: C_25  and  C_26
REMARK                            x       y       z     vdW  Elec       q    Type
REMARK                         _______ _______ _______ _____ _____    ______ ____
ROOT
ATOM      1  C   UNL     1       2.752   8.401  18.289  0.00  0.00    +0.000 C 
ENDROOT
BRANCH   1   2
ATOM      2  C   UNL     1       1.445   8.904  18.881  0.00  0.00    +0.000 A 
ATOM      3  C   UNL     1       0.442   9.455  18.067  0.00  0.00    +0.000 A 
ATOM      4  C   UNL     1      -0.705  10.045  18.621  0.00  0.00    +0.000 A 
ATOM      5  C   UNL     1      -0.854  10.065  20.018  0.00  0.00    +0.000 A 
ATOM      6  C   UNL     1       0.127   9.517  20.857  0.00  0.00    +0.000 A 
ATOM      7  C   UNL     1       1.269   8.935  20.276  0.00  0.00    +0.000 A 
BRANCH   4   8
ATOM      8  C   UNL     1      -1.751  10.691  17.742  0.00  0.00    +0.000 C 
ATOM      9  F   UNL     1      -1.539  12.019  17.529  0.00  0.00    +0.000 F 
ATOM     10  F   UNL     1      -1.825  10.116  16.512  0.00  0.00    +0.000 F 
ATOM     11  F   UNL     1      -3.000  10.594  18.279  0.00  0.00    +0.000 F 
ENDBRANCH   4   8
BRANCH   6  12
ATOM     12  C   UNL     1      -0.007   9.578  22.362  0.00  0.00    +0.000 C 
ATOM     13  F   UNL     1      -0.949   8.732  22.860  0.00  0.00    +0.000 F 
ATOM     14  F   UNL     1       1.155   9.267  23.001  0.00  0.00    +0.000 F 
ATOM     15  F   UNL     1      -0.352  10.822  22.798  0.00  0.00    +0.000 F 
ENDBRANCH   6  12
ENDBRANCH   1   2
BRANCH   1  16
ATOM     16  C   UNL     1       2.982   6.901  18.323  0.00  0.00    +0.000 A 
ATOM     17  C   UNL     1       4.013   6.339  17.552  0.00  0.00    +0.000 A 
ATOM     18  C   UNL     1       4.149   4.946  17.418  0.00  0.00    +0.000 A 
ATOM     19  C   UNL     1       3.274   4.106  18.128  0.00  0.00    +0.000 A 
ATOM     20  C   UNL     1       2.264   4.637  18.942  0.00  0.00    +0.000 A 
ATOM     21  C   UNL     1       2.127   6.033  19.027  0.00  0.00    +0.000 A 
BRANCH  18  22
ATOM     22  C   UNL     1       5.168   4.354  16.473  0.00  0.00    +0.000 C 
ATOM     23  F   UNL     1       5.056   3.004  16.332  0.00  0.00    +0.000 F 
ATOM     24  F   UNL     1       5.085   4.871  15.217  0.00  0.00    +0.000 F 
ATOM     25  F   UNL     1       6.445   4.579  16.890  0.00  0.00    +0.000 F 
ENDBRANCH  18  22
BRANCH  20  26
ATOM     26  C   UNL     1       1.302   3.738  19.685  0.00  0.00    +0.000 C 
ATOM     27  F   UNL     1       0.522   2.982  18.863  0.00  0.00    +0.000 F 
ATOM     28  F   UNL     1       1.940   2.860  20.506  0.00  0.00    +0.000 F 
ATOM     29  F   UNL     1       0.442   4.435  20.477  0.00  0.00    +0.000 F 
ENDBRANCH  20  26
ENDBRANCH   1  16
BRANCH   1  30
ATOM     30  O   UNL     1       2.854   8.869  16.941  0.00  0.00    +0.000 OA
ATOM     31  H   UNL     1       2.154   8.427  16.430  0.00  0.00    +0.000 HD
ENDBRANCH   1  30
TORSDOF 7
ENDMDL
