MODEL 1
REMARK VINA RESULT:      -8.4      0.000      0.000
REMARK  Name = 
REMARK  8 active torsions:
REMARK  status: ('A' for Active; 'I' for Inactive)
REMARK    1  A    between atoms: C_1  and  O_2
REMARK    2  A    between atoms: O_2  and  C_3
REMARK    3  A    between atoms: C_6  and  N_7
REMARK    4  A    between atoms: C_9  and  C_10
REMARK    5  A    between atoms: C_14  and  C_15
REMARK    6  A    between atoms: C_19  and  O_20
REMARK    7  A    between atoms: O_20  and  C_21
REMARK    8  A    between atoms: N_23  and  C_24
REMARK                            x       y       z     vdW  Elec       q    Type
REMARK                         _______ _______ _______ _____ _____    ______ ____
ROOT
ATOM      1  N   UNL     1       3.535   4.726  19.094  0.00  0.00    +0.000 N 
ATOM      2  N   UNL     1       3.427   3.491  19.670  0.00  0.00    +0.000 NA
ATOM      3  C   UNL     1       2.582   3.670  20.703  0.00  0.00    +0.000 A 
ATOM      4  C   UNL     1       2.006   4.954  20.667  0.00  0.00    +0.000 A 
ATOM      5  C   UNL     1       2.588   5.615  19.597  0.00  0.00    +0.000 A 
ENDROOT
BRANCH   1   9
ATOM      6  C   UNL     1       6.553   5.550  16.245  0.00  0.00    +0.000 A 
ATOM      7  C   UNL     1       5.413   4.825  15.886  0.00  0.00    +0.000 A 
ATOM      8  C   UNL     1       4.424   4.526  16.830  0.00  0.00    +0.000 A 
ATOM      9  C   UNL     1       4.570   4.972  18.148  0.00  0.00    +0.000 A 
ATOM     10  C   UNL     1       5.739   5.650  18.518  0.00  0.00    +0.000 A 
ATOM     11  C   UNL     1       6.720   5.947  17.569  0.00  0.00    +0.000 A 
BRANCH   6  13
ATOM     12  C   UNL     1       7.266   5.002  14.052  0.00  0.00    +0.000 C 
ATOM     13  O   UNL     1       7.445   5.777  15.234  0.00  0.00    +0.000 OA
ENDBRANCH   6  13
ENDBRANCH   1   9
BRANCH   5  14
ATOM     14  C   UNL     1       2.315   6.983  19.142  0.00  0.00    +0.000 A 
ATOM     15  C   UNL     1       2.641   7.449  17.862  0.00  0.00    +0.000 A 
ATOM     16  C   UNL     1       2.445   8.793  17.525  0.00  0.00    +0.000 A 
ATOM     17  C   UNL     1       1.838   9.661  18.432  0.00  0.00    +0.000 A 
ATOM     18  C   UNL     1       1.423   9.177  19.670  0.00  0.00    +0.000 A 
ATOM     19  C   UNL     1       1.704   7.865  20.038  0.00  0.00    +0.000 A 
BRANCH  18  20
ATOM     20  O   UNL     1       0.760  10.094  20.512  0.00  0.00    +0.000 OA
BRANCH  20  21
ATOM     21  C   UNL     1      -0.381  10.782  20.113  0.00  0.00    +0.000 C 
ATOM     22  O   UNL     1      -1.300  10.363  19.422  0.00  0.00    +0.000 OA
ATOM     23  N   UNL     1      -0.443  12.045  20.623  0.00  0.00    +0.000 N 
ATOM     24  H   UNL     1      -1.337  12.460  20.396  0.00  0.00    +0.000 HD
BRANCH  23  25
ATOM     25  C   UNL     1       0.701  12.946  20.629  0.00  0.00    +0.000 C 
ATOM     26  C   UNL     1       0.995  13.409  19.193  0.00  0.00    +0.000 C 
ATOM     27  C   UNL     1      -0.105  14.320  18.640  0.00  0.00    +0.000 C 
ATOM     28  C   UNL     1      -0.407  15.488  19.574  0.00  0.00    +0.000 C 
ATOM     29  C   UNL     1      -0.681  15.038  21.007  0.00  0.00    +0.000 C 
ATOM     30  C   UNL     1       0.433  14.141  21.543  0.00  0.00    +0.000 C 
ENDBRANCH  23  25
ENDBRANCH  20  21
ENDBRANCH  18  20
ENDBRANCH   5  14
BRANCH   3  31
ATOM     31  C   UNL     1       2.324   2.647  21.729  0.00  0.00    +0.000 C 
ATOM     32  N   UNL     1       1.024   2.568  22.141  0.00  0.00    +0.000 N 
ATOM     33  O   UNL     1       3.183   1.890  22.171  0.00  0.00    +0.000 OA
ATOM     34  H   UNL     1       0.332   3.165  21.699  0.00  0.00    +0.000 HD
ATOM     35  H   UNL     1       0.753   1.831  22.771  0.00  0.00    +0.000 HD
ENDBRANCH   3  31
TORSDOF 7
ENDMDL
MODEL 2
REMARK VINA RESULT:      -8.4      1.192      1.939
REMARK  Name = 
REMARK  8 active torsions:
REMARK  status: ('A' for Active; 'I' for Inactive)
REMARK    1  A    between atoms: C_1  and  O_2
REMARK    2  A    between atoms: O_2  and  C_3
REMARK    3  A    between atoms: C_6  and  N_7
REMARK    4  A    between atoms: C_9  and  C_10
REMARK    5  A    between atoms: C_14  and  C_15
REMARK    6  A    between atoms: C_19  and  O_20
REMARK    7  A    between atoms: O_20  and  C_21
REMARK    8  A    between atoms: N_23  and  C_24
REMARK                            x       y       z     vdW  Elec       q    Type
REMARK                         _______ _______ _______ _____ _____    ______ ____
ROOT
ATOM      1  N   UNL     1       3.378   4.845  19.089  0.00  0.00    +0.000 N 
ATOM      2  N   UNL     1       3.305   3.594  19.635  0.00  0.00    +0.000 NA
ATOM      3  C   UNL     1       2.524   3.741  20.722  0.00  0.00    +0.000 A 
ATOM      4  C   UNL     1       1.946   5.024  20.758  0.00  0.00    +0.000 A 
ATOM      5  C   UNL     1       2.463   5.717  19.674  0.00  0.00    +0.000 A 
ENDROOT
BRANCH   1   9
ATOM      6  C   UNL     1       6.341   5.570  16.156  0.00  0.00    +0.000 A 
ATOM      7  C   UNL     1       6.495   6.053  17.459  0.00  0.00    +0.000 A 
ATOM      8  C   UNL     1       5.506   5.839  18.426  0.00  0.00    +0.000 A 
ATOM      9  C   UNL     1       4.354   5.120  18.090  0.00  0.00    +0.000 A 
ATOM     10  C   UNL     1       4.178   4.684  16.770  0.00  0.00    +0.000 A 
ATOM     11  C   UNL     1       5.170   4.899  15.811  0.00  0.00    +0.000 A 
BRANCH   6  13
ATOM     12  C   UNL     1       7.374   5.135  14.068  0.00  0.00    +0.000 C 
ATOM     13  O   UNL     1       7.376   5.842  15.305  0.00  0.00    +0.000 OA
ENDBRANCH   6  13
ENDBRANCH   1   9
BRANCH   5  14
ATOM     14  C   UNL     1       2.162   7.097  19.275  0.00  0.00    +0.000 A 
ATOM     15  C   UNL     1       2.477   7.622  18.014  0.00  0.00    +0.000 A 
ATOM     16  C   UNL     1       2.254   8.974  17.733  0.00  0.00    +0.000 A 
ATOM     17  C   UNL     1       1.632   9.792  18.675  0.00  0.00    +0.000 A 
ATOM     18  C   UNL     1       1.229   9.250  19.894  0.00  0.00    +0.000 A 
ATOM     19  C   UNL     1       1.536   7.930  20.207  0.00  0.00    +0.000 A 
BRANCH  18  20
ATOM     20  O   UNL     1       0.550  10.118  20.773  0.00  0.00    +0.000 OA
BRANCH  20  21
ATOM     21  C   UNL     1       0.813  11.483  20.824  0.00  0.00    +0.000 C 
ATOM     22  O   UNL     1       1.893  12.027  21.011  0.00  0.00    +0.000 OA
ATOM     23  N   UNL     1      -0.292  12.245  20.583  0.00  0.00    +0.000 N 
ATOM     24  H   UNL     1      -0.028  13.218  20.522  0.00  0.00    +0.000 HD
BRANCH  23  25
ATOM     25  C   UNL     1      -1.585  11.967  21.194  0.00  0.00    +0.000 C 
ATOM     26  C   UNL     1      -1.465  12.088  22.721  0.00  0.00    +0.000 C 
ATOM     27  C   UNL     1      -1.221  13.531  23.173  0.00  0.00    +0.000 C 
ATOM     28  C   UNL     1      -2.252  14.496  22.594  0.00  0.00    +0.000 C 
ATOM     29  C   UNL     1      -2.391  14.368  21.079  0.00  0.00    +0.000 C 
ATOM     30  C   UNL     1      -2.646  12.925  20.653  0.00  0.00    +0.000 C 
ENDBRANCH  23  25
ENDBRANCH  20  21
ENDBRANCH  18  20
ENDBRANCH   5  14
BRANCH   3  31
ATOM     31  C   UNL     1       2.328   2.689  21.731  0.00  0.00    +0.000 C 
ATOM     32  N   UNL     1       1.043   2.554  22.173  0.00  0.00    +0.000 N 
ATOM     33  O   UNL     1       3.225   1.955  22.137  0.00  0.00    +0.000 OA
ATOM     34  H   UNL     1       0.319   3.133  21.760  0.00  0.00    +0.000 HD
ATOM     35  H   UNL     1       0.815   1.795  22.793  0.00  0.00    +0.000 HD
ENDBRANCH   3  31
TORSDOF 7
ENDMDL
MODEL 3
REMARK VINA RESULT:      -8.3      0.792      1.334
REMARK  Name = 
REMARK  8 active torsions:
REMARK  status: ('A' for Active; 'I' for Inactive)
REMARK    1  A    between atoms: C_1  and  O_2
REMARK    2  A    between atoms: O_2  and  C_3
REMARK    3  A    between atoms: C_6  and  N_7
REMARK    4  A    between atoms: C_9  and  C_10
REMARK    5  A    between atoms: C_14  and  C_15
REMARK    6  A    between atoms: C_19  and  O_20
REMARK    7  A    between atoms: O_20  and  C_21
REMARK    8  A    between atoms: N_23  and  C_24
REMARK                            x       y       z     vdW  Elec       q    Type
REMARK                         _______ _______ _______ _____ _____    ______ ____
ROOT
ATOM      1  N   UNL     1       3.594   4.725  18.995  0.00  0.00    +0.000 N 
ATOM      2  N   UNL     1       3.476   3.503  19.598  0.00  0.00    +0.000 NA
ATOM      3  C   UNL     1       2.624   3.709  20.619  0.00  0.00    +0.000 A 
ATOM      4  C   UNL     1       2.053   4.994  20.550  0.00  0.00    +0.000 A 
ATOM      5  C   UNL     1       2.647   5.629  19.470  0.00  0.00    +0.000 A 
ENDROOT
BRANCH   1   9
ATOM      6  C   UNL     1       6.639   5.474  16.154  0.00  0.00    +0.000 A 
ATOM      7  C   UNL     1       5.487   4.769  15.794  0.00  0.00    +0.000 A 
ATOM      8  C   UNL     1       4.489   4.495  16.736  0.00  0.00    +0.000 A 
ATOM      9  C   UNL     1       4.637   4.945  18.052  0.00  0.00    +0.000 A 
ATOM     10  C   UNL     1       5.817   5.604  18.424  0.00  0.00    +0.000 A 
ATOM     11  C   UNL     1       6.808   5.876  17.477  0.00  0.00    +0.000 A 
BRANCH   6  13
ATOM     12  C   UNL     1       7.319   4.940  13.948  0.00  0.00    +0.000 C 
ATOM     13  O   UNL     1       7.540   5.679  15.146  0.00  0.00    +0.000 OA
ENDBRANCH   6  13
ENDBRANCH   1   9
BRANCH   5  14
ATOM     14  C   UNL     1       2.382   6.987  18.982  0.00  0.00    +0.000 A 
ATOM     15  C   UNL     1       2.923   7.499  17.796  0.00  0.00    +0.000 A 
ATOM     16  C   UNL     1       2.713   8.835  17.439  0.00  0.00    +0.000 A 
ATOM     17  C   UNL     1       1.886   9.646  18.216  0.00  0.00    +0.000 A 
ATOM     18  C   UNL     1       1.268   9.112  19.344  0.00  0.00    +0.000 A 
ATOM     19  C   UNL     1       1.553   7.812  19.749  0.00  0.00    +0.000 A 
BRANCH  18  20
ATOM     20  O   UNL     1       0.396   9.969  20.047  0.00  0.00    +0.000 OA
BRANCH  20  21
ATOM     21  C   UNL     1       0.838  10.815  21.058  0.00  0.00    +0.000 C 
ATOM     22  O   UNL     1       0.978  10.549  22.245  0.00  0.00    +0.000 OA
ATOM     23  N   UNL     1       1.184  12.053  20.601  0.00  0.00    +0.000 N 
ATOM     24  H   UNL     1       1.600  12.589  21.350  0.00  0.00    +0.000 HD
BRANCH  23  25
ATOM     25  C   UNL     1       0.363  12.797  19.657  0.00  0.00    +0.000 C 
ATOM     26  C   UNL     1      -0.352  13.942  20.393  0.00  0.00    +0.000 C 
ATOM     27  C   UNL     1       0.621  15.025  20.867  0.00  0.00    +0.000 C 
ATOM     28  C   UNL     1       1.513  15.531  19.737  0.00  0.00    +0.000 C 
ATOM     29  C   UNL     1       2.211  14.398  18.988  0.00  0.00    +0.000 C 
ATOM     30  C   UNL     1       1.222  13.337  18.514  0.00  0.00    +0.000 C 
ENDBRANCH  23  25
ENDBRANCH  20  21
ENDBRANCH  18  20
ENDBRANCH   5  14
BRANCH   3  31
ATOM     31  C   UNL     1       2.353   2.710  21.666  0.00  0.00    +0.000 C 
ATOM     32  N   UNL     1       1.050   2.647  22.071  0.00  0.00    +0.000 N 
ATOM     33  O   UNL     1       3.205   1.958  22.130  0.00  0.00    +0.000 OA
ATOM     34  H   UNL     1       0.364   3.238  21.611  0.00  0.00    +0.000 HD
ATOM     35  H   UNL     1       0.771   1.926  22.715  0.00  0.00    +0.000 HD
ENDBRANCH   3  31
TORSDOF 7
ENDMDL
MODEL 4
REMARK VINA RESULT:      -8.3      1.046      1.615
REMARK  Name = 
REMARK  8 active torsions:
REMARK  status: ('A' for Active; 'I' for Inactive)
REMARK    1  A    between atoms: C_1  and  O_2
REMARK    2  A    between atoms: O_2  and  C_3
REMARK    3  A    between atoms: C_6  and  N_7
REMARK    4  A    between atoms: C_9  and  C_10
REMARK    5  A    between atoms: C_14  and  C_15
REMARK    6  A    between atoms: C_19  and  O_20
REMARK    7  A    between atoms: O_20  and  C_21
REMARK    8  A    between atoms: N_23  and  C_24
REMARK                            x       y       z     vdW  Elec       q    Type
REMARK                         _______ _______ _______ _____ _____    ______ ____
ROOT
ATOM      1  N   UNL     1       3.584   4.707  19.009  0.00  0.00    +0.000 N 
ATOM      2  N   UNL     1       3.471   3.483  19.607  0.00  0.00    +0.000 NA
ATOM      3  C   UNL     1       2.623   3.682  20.633  0.00  0.00    +0.000 A 
ATOM      4  C   UNL     1       2.050   4.966  20.573  0.00  0.00    +0.000 A 
ATOM      5  C   UNL     1       2.638   5.607  19.493  0.00  0.00    +0.000 A 
ENDROOT
BRANCH   1   9
ATOM      6  C   UNL     1       6.614   5.473  16.156  0.00  0.00    +0.000 A 
ATOM      7  C   UNL     1       5.479   4.735  15.809  0.00  0.00    +0.000 A 
ATOM      8  C   UNL     1       4.486   4.455  16.755  0.00  0.00    +0.000 A 
ATOM      9  C   UNL     1       4.623   4.934  18.063  0.00  0.00    +0.000 A 
ATOM     10  C   UNL     1       5.787   5.627  18.422  0.00  0.00    +0.000 A 
ATOM     11  C   UNL     1       6.772   5.904  17.471  0.00  0.00    +0.000 A 
BRANCH   6  13
ATOM     12  C   UNL     1       7.260   4.976  13.931  0.00  0.00    +0.000 C 
ATOM     13  O   UNL     1       7.511   5.680  15.144  0.00  0.00    +0.000 OA
ENDBRANCH   6  13
ENDBRANCH   1   9
BRANCH   5  14
ATOM     14  C   UNL     1       2.369   6.968  19.013  0.00  0.00    +0.000 A 
ATOM     15  C   UNL     1       2.868   7.472  17.805  0.00  0.00    +0.000 A 
ATOM     16  C   UNL     1       2.659   8.810  17.454  0.00  0.00    +0.000 A 
ATOM     17  C   UNL     1       1.873   9.631  18.261  0.00  0.00    +0.000 A 
ATOM     18  C   UNL     1       1.295   9.106  19.415  0.00  0.00    +0.000 A 
ATOM     19  C   UNL     1       1.581   7.804  19.810  0.00  0.00    +0.000 A 
BRANCH  18  20
ATOM     20  O   UNL     1       0.461   9.974  20.150  0.00  0.00    +0.000 OA
BRANCH  20  21
ATOM     21  C   UNL     1       0.860  10.548  21.353  0.00  0.00    +0.000 C 
ATOM     22  O   UNL     1       1.348   9.983  22.323  0.00  0.00    +0.000 OA
ATOM     23  N   UNL     1       0.708  11.903  21.370  0.00  0.00    +0.000 N 
ATOM     24  H   UNL     1       1.112  12.281  22.216  0.00  0.00    +0.000 HD
BRANCH  23  25
ATOM     25  C   UNL     1      -0.496  12.563  20.881  0.00  0.00    +0.000 C 
ATOM     26  C   UNL     1      -1.704  12.104  21.713  0.00  0.00    +0.000 C 
ATOM     27  C   UNL     1      -1.643  12.614  23.156  0.00  0.00    +0.000 C 
ATOM     28  C   UNL     1      -1.435  14.124  23.223  0.00  0.00    +0.000 C 
ATOM     29  C   UNL     1      -0.248  14.590  22.384  0.00  0.00    +0.000 C 
ATOM     30  C   UNL     1      -0.334  14.081  20.947  0.00  0.00    +0.000 C 
ENDBRANCH  23  25
ENDBRANCH  20  21
ENDBRANCH  18  20
ENDBRANCH   5  14
BRANCH   3  31
ATOM     31  C   UNL     1       2.358   2.678  21.675  0.00  0.00    +0.000 C 
ATOM     32  N   UNL     1       1.056   2.605  22.081  0.00  0.00    +0.000 N 
ATOM     33  O   UNL     1       3.215   1.929  22.137  0.00  0.00    +0.000 OA
ATOM     34  H   UNL     1       0.366   3.193  21.623  0.00  0.00    +0.000 HD
ATOM     35  H   UNL     1       0.782   1.880  22.722  0.00  0.00    +0.000 HD
ENDBRANCH   3  31
TORSDOF 7
ENDMDL
MODEL 5
REMARK VINA RESULT:      -8.3      1.289      1.644
REMARK  Name = 
REMARK  8 active torsions:
REMARK  status: ('A' for Active; 'I' for Inactive)
REMARK    1  A    between atoms: C_1  and  O_2
REMARK    2  A    between atoms: O_2  and  C_3
REMARK    3  A    between atoms: C_6  and  N_7
REMARK    4  A    between atoms: C_9  and  C_10
REMARK    5  A    between atoms: C_14  and  C_15
REMARK    6  A    between atoms: C_19  and  O_20
REMARK    7  A    between atoms: O_20  and  C_21
REMARK    8  A    between atoms: N_23  and  C_24
REMARK                            x       y       z     vdW  Elec       q    Type
REMARK                         _______ _______ _______ _____ _____    ______ ____
ROOT
ATOM      1  N   UNL     1       3.539   4.718  19.048  0.00  0.00    +0.000 N 
ATOM      2  N   UNL     1       3.422   3.490  19.638  0.00  0.00    +0.000 NA
ATOM      3  C   UNL     1       2.581   3.685  20.669  0.00  0.00    +0.000 A 
ATOM      4  C   UNL     1       2.013   4.973  20.621  0.00  0.00    +0.000 A 
ATOM      5  C   UNL     1       2.599   5.619  19.543  0.00  0.00    +0.000 A 
ENDROOT
BRANCH   1   9
ATOM      6  C   UNL     1       6.557   5.488  16.185  0.00  0.00    +0.000 A 
ATOM      7  C   UNL     1       5.429   4.736  15.846  0.00  0.00    +0.000 A 
ATOM      8  C   UNL     1       4.440   4.455  16.796  0.00  0.00    +0.000 A 
ATOM      9  C   UNL     1       4.574   4.946  18.098  0.00  0.00    +0.000 A 
ATOM     10  C   UNL     1       5.732   5.653  18.450  0.00  0.00    +0.000 A 
ATOM     11  C   UNL     1       6.714   5.932  17.496  0.00  0.00    +0.000 A 
BRANCH   6  13
ATOM     12  C   UNL     1       7.231   4.945  13.978  0.00  0.00    +0.000 C 
ATOM     13  O   UNL     1       7.451   5.694  15.170  0.00  0.00    +0.000 OA
ENDBRANCH   6  13
ENDBRANCH   1   9
BRANCH   5  14
ATOM     14  C   UNL     1       2.335   6.984  19.074  0.00  0.00    +0.000 A 
ATOM     15  C   UNL     1       2.697   7.446  17.802  0.00  0.00    +0.000 A 
ATOM     16  C   UNL     1       2.506   8.787  17.454  0.00  0.00    +0.000 A 
ATOM     17  C   UNL     1       1.870   9.657  18.338  0.00  0.00    +0.000 A 
ATOM     18  C   UNL     1       1.421   9.177  19.566  0.00  0.00    +0.000 A 
ATOM     19  C   UNL     1       1.696   7.868  19.948  0.00  0.00    +0.000 A 
BRANCH  18  20
ATOM     20  O   UNL     1       0.731  10.095  20.385  0.00  0.00    +0.000 OA
BRANCH  20  21
ATOM     21  C   UNL     1      -0.266  10.931  19.891  0.00  0.00    +0.000 C 
ATOM     22  O   UNL     1      -0.479  11.228  18.723  0.00  0.00    +0.000 OA
ATOM     23  N   UNL     1      -1.095  11.400  20.867  0.00  0.00    +0.000 N 
ATOM     24  H   UNL     1      -1.862  11.907  20.447  0.00  0.00    +0.000 HD
BRANCH  23  25
ATOM     25  C   UNL     1      -0.600  11.916  22.135  0.00  0.00    +0.000 C 
ATOM     26  C   UNL     1      -0.503  13.448  22.060  0.00  0.00    +0.000 C 
ATOM     27  C   UNL     1      -1.880  14.115  21.978  0.00  0.00    +0.000 C 
ATOM     28  C   UNL     1      -2.811  13.647  23.094  0.00  0.00    +0.000 C 
ATOM     29  C   UNL     1      -2.898  12.126  23.187  0.00  0.00    +0.000 C 
ATOM     30  C   UNL     1      -1.516  11.484  23.280  0.00  0.00    +0.000 C 
ENDBRANCH  23  25
ENDBRANCH  20  21
ENDBRANCH  18  20
ENDBRANCH   5  14
BRANCH   3  31
ATOM     31  C   UNL     1       2.316   2.675  21.706  0.00  0.00    +0.000 C 
ATOM     32  N   UNL     1       1.015   2.604  22.115  0.00  0.00    +0.000 N 
ATOM     33  O   UNL     1       3.172   1.921  22.160  0.00  0.00    +0.000 OA
ATOM     34  H   UNL     1       0.326   3.197  21.664  0.00  0.00    +0.000 HD
ATOM     35  H   UNL     1       0.740   1.875  22.753  0.00  0.00    +0.000 HD
ENDBRANCH   3  31
TORSDOF 7
ENDMDL
MODEL 6
REMARK VINA RESULT:      -8.2      1.053      1.602
REMARK  Name = 
REMARK  8 active torsions:
REMARK  status: ('A' for Active; 'I' for Inactive)
REMARK    1  A    between atoms: C_1  and  O_2
REMARK    2  A    between atoms: O_2  and  C_3
REMARK    3  A    between atoms: C_6  and  N_7
REMARK    4  A    between atoms: C_9  and  C_10
REMARK    5  A    between atoms: C_14  and  C_15
REMARK    6  A    between atoms: C_19  and  O_20
REMARK    7  A    between atoms: O_20  and  C_21
REMARK    8  A    between atoms: N_23  and  C_24
REMARK                            x       y       z     vdW  Elec       q    Type
REMARK                         _______ _______ _______ _____ _____    ______ ____
ROOT
ATOM      1  N   UNL     1       3.470   4.750  19.043  0.00  0.00    +0.000 N 
ATOM      2  N   UNL     1       3.413   3.503  19.600  0.00  0.00    +0.000 NA
ATOM      3  C   UNL     1       2.642   3.653  20.694  0.00  0.00    +0.000 A 
ATOM      4  C   UNL     1       2.055   4.932  20.725  0.00  0.00    +0.000 A 
ATOM      5  C   UNL     1       2.554   5.620  19.630  0.00  0.00    +0.000 A 
ENDROOT
BRANCH   1   9
ATOM      6  C   UNL     1       6.398   5.476  16.075  0.00  0.00    +0.000 A 
ATOM      7  C   UNL     1       6.544   6.000  17.364  0.00  0.00    +0.000 A 
ATOM      8  C   UNL     1       5.566   5.785  18.341  0.00  0.00    +0.000 A 
ATOM      9  C   UNL     1       4.434   5.025  18.032  0.00  0.00    +0.000 A 
ATOM     10  C   UNL     1       4.263   4.548  16.725  0.00  0.00    +0.000 A 
ATOM     11  C   UNL     1       5.245   4.763  15.755  0.00  0.00    +0.000 A 
BRANCH   6  13
ATOM     12  C   UNL     1       7.403   5.051  13.972  0.00  0.00    +0.000 C 
ATOM     13  O   UNL     1       7.420   5.754  15.211  0.00  0.00    +0.000 OA
ENDBRANCH   6  13
ENDBRANCH   1   9
BRANCH   5  14
ATOM     14  C   UNL     1       2.238   6.994  19.224  0.00  0.00    +0.000 A 
ATOM     15  C   UNL     1       2.335   7.449  17.902  0.00  0.00    +0.000 A 
ATOM     16  C   UNL     1       2.116   8.797  17.598  0.00  0.00    +0.000 A 
ATOM     17  C   UNL     1       1.710   9.682  18.595  0.00  0.00    +0.000 A 
ATOM     18  C   UNL     1       1.518   9.213  19.892  0.00  0.00    +0.000 A 
ATOM     19  C   UNL     1       1.827   7.895  20.211  0.00  0.00    +0.000 A 
BRANCH  18  20
ATOM     20  O   UNL     1       1.046  10.149  20.835  0.00  0.00    +0.000 OA
BRANCH  20  21
ATOM     21  C   UNL     1      -0.213  10.050  21.418  0.00  0.00    +0.000 C 
ATOM     22  O   UNL     1      -0.682   9.093  22.021  0.00  0.00    +0.000 OA
ATOM     23  N   UNL     1      -0.939  11.200  21.311  0.00  0.00    +0.000 N 
ATOM     24  H   UNL     1      -1.794  11.113  21.843  0.00  0.00    +0.000 HD
BRANCH  23  25
ATOM     25  C   UNL     1      -1.025  11.960  20.072  0.00  0.00    +0.000 C 
ATOM     26  C   UNL     1      -2.501  12.126  19.677  0.00  0.00    +0.000 C 
ATOM     27  C   UNL     1      -3.264  13.036  20.644  0.00  0.00    +0.000 C 
ATOM     28  C   UNL     1      -2.563  14.377  20.843  0.00  0.00    +0.000 C 
ATOM     29  C   UNL     1      -1.091  14.221  21.217  0.00  0.00    +0.000 C 
ATOM     30  C   UNL     1      -0.349  13.320  20.233  0.00  0.00    +0.000 C 
ENDBRANCH  23  25
ENDBRANCH  20  21
ENDBRANCH  18  20
ENDBRANCH   5  14
BRANCH   3  31
ATOM     31  C   UNL     1       2.466   2.608  21.714  0.00  0.00    +0.000 C 
ATOM     32  N   UNL     1       1.200   2.511  22.218  0.00  0.00    +0.000 N 
ATOM     33  O   UNL     1       3.359   1.848  22.076  0.00  0.00    +0.000 OA
ATOM     34  H   UNL     1       0.474   3.111  21.840  0.00  0.00    +0.000 HD
ATOM     35  H   UNL     1       0.980   1.759  22.851  0.00  0.00    +0.000 HD
ENDBRANCH   3  31
TORSDOF 7
ENDMDL
MODEL 7
REMARK VINA RESULT:      -8.2      3.005      9.094
REMARK  Name = 
REMARK  8 active torsions:
REMARK  status: ('A' for Active; 'I' for Inactive)
REMARK    1  A    between atoms: C_1  and  O_2
REMARK    2  A    between atoms: O_2  and  C_3
REMARK    3  A    between atoms: C_6  and  N_7
REMARK    4  A    between atoms: C_9  and  C_10
REMARK    5  A    between atoms: C_14  and  C_15
REMARK    6  A    between atoms: C_19  and  O_20
REMARK    7  A    between atoms: O_20  and  C_21
REMARK    8  A    between atoms: N_23  and  C_24
REMARK                            x       y       z     vdW  Elec       q    Type
REMARK                         _______ _______ _______ _____ _____    ______ ____
ROOT
ATOM      1  N   UNL     1      -1.234  11.181  19.690  0.00  0.00    +0.000 N 
ATOM      2  N   UNL     1      -1.798  12.055  20.578  0.00  0.00    +0.000 NA
ATOM      3  C   UNL     1      -1.109  11.872  21.720  0.00  0.00    +0.000 A 
ATOM      4  C   UNL     1       0.006  11.038  21.510  0.00  0.00    +0.000 A 
ATOM      5  C   UNL     1      -0.052  10.634  20.185  0.00  0.00    +0.000 A 
ENDROOT
BRANCH   1   9
ATOM      6  C   UNL     1      -3.308  10.384  16.089  0.00  0.00    +0.000 A 
ATOM      7  C   UNL     1      -3.347   9.475  17.150  0.00  0.00    +0.000 A 
ATOM      8  C   UNL     1      -2.641   9.720  18.333  0.00  0.00    +0.000 A 
ATOM      9  C   UNL     1      -1.898  10.899  18.464  0.00  0.00    +0.000 A 
ATOM     10  C   UNL     1      -1.816  11.782  17.379  0.00  0.00    +0.000 A 
ATOM     11  C   UNL     1      -2.526  11.531  16.202  0.00  0.00    +0.000 A 
BRANCH   6  13
ATOM     12  C   UNL     1      -3.339  10.021  13.747  0.00  0.00    +0.000 C 
ATOM     13  O   UNL     1      -4.039  10.032  14.988  0.00  0.00    +0.000 OA
ENDBRANCH   6  13
ENDBRANCH   1   9
BRANCH   5  14
ATOM     14  C   UNL     1       0.892   9.760  19.480  0.00  0.00    +0.000 A 
ATOM     15  C   UNL     1       1.410  10.047  18.210  0.00  0.00    +0.000 A 
ATOM     16  C   UNL     1       2.227   9.123  17.552  0.00  0.00    +0.000 A 
ATOM     17  C   UNL     1       2.609   7.945  18.192  0.00  0.00    +0.000 A 
ATOM     18  C   UNL     1       2.175   7.700  19.492  0.00  0.00    +0.000 A 
ATOM     19  C   UNL     1       1.287   8.575  20.109  0.00  0.00    +0.000 A 
BRANCH  18  20
ATOM     20  O   UNL     1       2.650   6.520  20.101  0.00  0.00    +0.000 OA
BRANCH  20  21
ATOM     21  C   UNL     1       1.917   5.338  20.109  0.00  0.00    +0.000 C 
ATOM     22  O   UNL     1       1.154   4.940  20.980  0.00  0.00    +0.000 OA
ATOM     23  N   UNL     1       2.073   4.609  18.967  0.00  0.00    +0.000 N 
ATOM     24  H   UNL     1       1.439   3.823  18.975  0.00  0.00    +0.000 HD
BRANCH  23  25
ATOM     25  C   UNL     1       3.375   4.380  18.355  0.00  0.00    +0.000 C 
ATOM     26  C   UNL     1       4.314   3.726  19.382  0.00  0.00    +0.000 C 
ATOM     27  C   UNL     1       3.887   2.298  19.732  0.00  0.00    +0.000 C 
ATOM     28  C   UNL     1       3.698   1.434  18.488  0.00  0.00    +0.000 C 
ATOM     29  C   UNL     1       2.782   2.085  17.455  0.00  0.00    +0.000 C 
ATOM     30  C   UNL     1       3.232   3.503  17.112  0.00  0.00    +0.000 C 
ENDBRANCH  23  25
ENDBRANCH  20  21
ENDBRANCH  18  20
ENDBRANCH   5  14
BRANCH   3  31
ATOM     31  C   UNL     1      -1.500  12.465  23.008  0.00  0.00    +0.000 C 
ATOM     32  N   UNL     1      -2.663  11.977  23.533  0.00  0.00    +0.000 N 
ATOM     33  O   UNL     1      -0.834  13.309  23.602  0.00  0.00    +0.000 OA
ATOM     34  H   UNL     1      -3.145  11.230  23.044  0.00  0.00    +0.000 HD
ATOM     35  H   UNL     1      -2.944  12.267  24.455  0.00  0.00    +0.000 HD
ENDBRANCH   3  31
TORSDOF 7
ENDMDL
MODEL 8
REMARK VINA RESULT:      -8.1      0.801      1.537
REMARK  Name = 
REMARK  8 active torsions:
REMARK  status: ('A' for Active; 'I' for Inactive)
REMARK    1  A    between atoms: C_1  and  O_2
REMARK    2  A    between atoms: O_2  and  C_3
REMARK    3  A    between atoms: C_6  and  N_7
REMARK    4  A    between atoms: C_9  and  C_10
REMARK    5  A    between atoms: C_14  and  C_15
REMARK    6  A    between atoms: C_19  and  O_20
REMARK    7  A    between atoms: O_20  and  C_21
REMARK    8  A    between atoms: N_23  and  C_24
REMARK                            x       y       z     vdW  Elec       q    Type
REMARK                         _______ _______ _______ _____ _____    ______ ____
ROOT
ATOM      1  N   UNL     1       3.518   4.763  18.906  0.00  0.00    +0.000 N 
ATOM      2  N   UNL     1       3.411   3.539  19.507  0.00  0.00    +0.000 NA
ATOM      3  C   UNL     1       2.612   3.750  20.569  0.00  0.00    +0.000 A 
ATOM      4  C   UNL     1       2.057   5.044  20.535  0.00  0.00    +0.000 A 
ATOM      5  C   UNL     1       2.608   5.677  19.432  0.00  0.00    +0.000 A 
ENDROOT
BRANCH   1   9
ATOM      6  C   UNL     1       6.551   5.298  16.004  0.00  0.00    +0.000 A 
ATOM      7  C   UNL     1       6.699   5.816  17.294  0.00  0.00    +0.000 A 
ATOM      8  C   UNL     1       5.688   5.666  18.250  0.00  0.00    +0.000 A 
ATOM      9  C   UNL     1       4.519   4.974  17.916  0.00  0.00    +0.000 A 
ATOM     10  C   UNL     1       4.349   4.503  16.608  0.00  0.00    +0.000 A 
ATOM     11  C   UNL     1       5.364   4.655  15.659  0.00  0.00    +0.000 A 
BRANCH   6  13
ATOM     12  C   UNL     1       7.437   5.069  13.818  0.00  0.00    +0.000 C 
ATOM     13  O   UNL     1       7.608   5.510  15.162  0.00  0.00    +0.000 OA
ENDBRANCH   6  13
ENDBRANCH   1   9
BRANCH   5  14
ATOM     14  C   UNL     1       2.341   7.042  18.964  0.00  0.00    +0.000 A 
ATOM     15  C   UNL     1       2.940   7.599  17.827  0.00  0.00    +0.000 A 
ATOM     16  C   UNL     1       2.720   8.940  17.494  0.00  0.00    +0.000 A 
ATOM     17  C   UNL     1       1.828   9.709  18.239  0.00  0.00    +0.000 A 
ATOM     18  C   UNL     1       1.156   9.130  19.313  0.00  0.00    +0.000 A 
ATOM     19  C   UNL     1       1.447   7.826  19.700  0.00  0.00    +0.000 A 
BRANCH  18  20
ATOM     20  O   UNL     1       0.222   9.947  19.984  0.00  0.00    +0.000 OA
BRANCH  20  21
ATOM     21  C   UNL     1       0.608  11.019  20.783  0.00  0.00    +0.000 C 
ATOM     22  O   UNL     1       1.006  10.980  21.940  0.00  0.00    +0.000 OA
ATOM     23  N   UNL     1       0.560  12.214  20.127  0.00  0.00    +0.000 N 
ATOM     24  H   UNL     1       0.953  12.939  20.711  0.00  0.00    +0.000 HD
BRANCH  23  25
ATOM     25  C   UNL     1      -0.565  12.602  19.287  0.00  0.00    +0.000 C 
ATOM     26  C   UNL     1      -1.818  12.774  20.160  0.00  0.00    +0.000 C 
ATOM     27  C   UNL     1      -1.711  13.979  21.100  0.00  0.00    +0.000 C 
ATOM     28  C   UNL     1      -1.345  15.258  20.354  0.00  0.00    +0.000 C 
ATOM     29  C   UNL     1      -0.112  15.090  19.470  0.00  0.00    +0.000 C 
ATOM     30  C   UNL     1      -0.245  13.892  18.533  0.00  0.00    +0.000 C 
ENDBRANCH  23  25
ENDBRANCH  20  21
ENDBRANCH  18  20
ENDBRANCH   5  14
BRANCH   3  31
ATOM     31  C   UNL     1       2.376   2.749  21.621  0.00  0.00    +0.000 C 
ATOM     32  N   UNL     1       1.079   2.657  22.042  0.00  0.00    +0.000 N 
ATOM     33  O   UNL     1       3.250   2.019  22.079  0.00  0.00    +0.000 OA
ATOM     34  H   UNL     1       0.375   3.230  21.588  0.00  0.00    +0.000 HD
ATOM     35  H   UNL     1       0.825   1.931  22.691  0.00  0.00    +0.000 HD
ENDBRANCH   3  31
TORSDOF 7
ENDMDL
MODEL 9
REMARK VINA RESULT:      -8.1      1.728      2.241
REMARK  Name = 
REMARK  8 active torsions:
REMARK  status: ('A' for Active; 'I' for Inactive)
REMARK    1  A    between atoms: C_1  and  O_2
REMARK    2  A    between atoms: O_2  and  C_3
REMARK    3  A    between atoms: C_6  and  N_7
REMARK    4  A    between atoms: C_9  and  C_10
REMARK    5  A    between atoms: C_14  and  C_15
REMARK    6  A    between atoms: C_19  and  O_20
REMARK    7  A    between atoms: O_20  and  C_21
REMARK    8  A    between atoms: N_23  and  C_24
REMARK                            x       y       z     vdW  Elec       q    Type
REMARK                         _______ _______ _______ _____ _____    ______ ____
ROOT
ATOM      1  N   UNL     1       3.663   4.627  18.955  0.00  0.00    +0.000 N 
ATOM      2  N   UNL     1       3.511   3.407  19.554  0.00  0.00    +0.000 NA
ATOM      3  C   UNL     1       2.673   3.634  20.582  0.00  0.00    +0.000 A 
ATOM      4  C   UNL     1       2.142   4.937  20.523  0.00  0.00    +0.000 A 
ATOM      5  C   UNL     1       2.749   5.558  19.441  0.00  0.00    +0.000 A 
ENDROOT
BRANCH   1   9
ATOM      6  C   UNL     1       6.714   5.294  16.100  0.00  0.00    +0.000 A 
ATOM      7  C   UNL     1       5.521   4.664  15.734  0.00  0.00    +0.000 A 
ATOM      8  C   UNL     1       4.520   4.416  16.680  0.00  0.00    +0.000 A 
ATOM      9  C   UNL     1       4.707   4.818  18.006  0.00  0.00    +0.000 A 
ATOM     10  C   UNL     1       5.925   5.400  18.382  0.00  0.00    +0.000 A 
ATOM     11  C   UNL     1       6.919   5.647  17.432  0.00  0.00    +0.000 A 
BRANCH   6  13
ATOM     12  C   UNL     1       7.311   4.834  13.853  0.00  0.00    +0.000 C 
ATOM     13  O   UNL     1       7.613   5.480  15.086  0.00  0.00    +0.000 OA
ENDBRANCH   6  13
ENDBRANCH   1   9
BRANCH   5  14
ATOM     14  C   UNL     1       2.524   6.926  18.961  0.00  0.00    +0.000 A 
ATOM     15  C   UNL     1       2.930   7.376  17.698  0.00  0.00    +0.000 A 
ATOM     16  C   UNL     1       2.776   8.720  17.340  0.00  0.00    +0.000 A 
ATOM     17  C   UNL     1       2.132   9.605  18.204  0.00  0.00    +0.000 A 
ATOM     18  C   UNL     1       1.640   9.138  19.421  0.00  0.00    +0.000 A 
ATOM     19  C   UNL     1       1.878   7.826  19.814  0.00  0.00    +0.000 A 
BRANCH  18  20
ATOM     20  O   UNL     1       0.946  10.073  20.217  0.00  0.00    +0.000 OA
BRANCH  20  21
ATOM     21  C   UNL     1      -0.368   9.872  20.626  0.00  0.00    +0.000 C 
ATOM     22  O   UNL     1      -0.793   8.991  21.363  0.00  0.00    +0.000 OA
ATOM     23  N   UNL     1      -1.222  10.827  20.158  0.00  0.00    +0.000 N 
ATOM     24  H   UNL     1      -2.135  10.700  20.571  0.00  0.00    +0.000 HD
BRANCH  23  25
ATOM     25  C   UNL     1      -1.199  11.289  18.777  0.00  0.00    +0.000 C 
ATOM     26  C   UNL     1      -1.513  10.112  17.839  0.00  0.00    +0.000 C 
ATOM     27  C   UNL     1      -2.961   9.632  17.974  0.00  0.00    +0.000 C 
ATOM     28  C   UNL     1      -3.961  10.774  17.824  0.00  0.00    +0.000 C 
ATOM     29  C   UNL     1      -3.645  11.955  18.739  0.00  0.00    +0.000 C 
ATOM     30  C   UNL     1      -2.201  12.425  18.579  0.00  0.00    +0.000 C 
ENDBRANCH  23  25
ENDBRANCH  20  21
ENDBRANCH  18  20
ENDBRANCH   5  14
BRANCH   3  31
ATOM     31  C   UNL     1       2.378   2.640  21.626  0.00  0.00    +0.000 C 
ATOM     32  N   UNL     1       3.384   1.749  21.867  0.00  0.00    +0.000 N 
ATOM     33  O   UNL     1       1.332   2.613  22.268  0.00  0.00    +0.000 OA
ATOM     34  H   UNL     1       4.260   1.850  21.363  0.00  0.00    +0.000 HD
ATOM     35  H   UNL     1       3.292   1.099  22.630  0.00  0.00    +0.000 HD
ENDBRANCH   3  31
TORSDOF 7
ENDMDL
