MODEL 1
REMARK VINA RESULT:      -7.5      0.000      0.000
REMARK  Name = 
REMARK  15 active torsions:
REMARK  status: ('A' for Active; 'I' for Inactive)
REMARK    1  A    between atoms: C_1  and  C_2
REMARK    2  A    between atoms: C_4  and  C_5
REMARK    3  A    between atoms: N_9  and  C_10
REMARK    4  A    between atoms: C_10  and  C_11
REMARK    5  A    between atoms: C_11  and  C_12
REMARK    6  A    between atoms: C_12  and  N_13
REMARK    7  A    between atoms: N_13  and  C_14
REMARK    8  A    between atoms: N_13  and  C_15
REMARK    9  A    between atoms: C_23  and  C_24
REMARK   10  A    between atoms: C_25  and  C_26
REMARK   11  A    between atoms: N_28  and  C_29
REMARK   12  A    between atoms: C_29  and  C_30
REMARK   13  A    between atoms: C_30  and  N_31
REMARK   14  A    between atoms: N_31  and  C_32
REMARK   15  A    between atoms: N_31  and  C_33
REMARK                            x       y       z     vdW  Elec       q    Type
REMARK                         _______ _______ _______ _____ _____    ______ ____
ROOT
ATOM      1  C   UNL     1       2.049   9.406  17.937  0.00  0.00    +0.000 C 
ATOM      2  C   UNL     1       2.374   8.227  18.487  0.00  0.00    +0.000 C 
ATOM      3  C   UNL     1       1.839   7.662  19.779  0.00  0.00    +0.000 C 
ATOM      4  O   UNL     1       1.076   8.180  20.574  0.00  0.00    +0.000 OA
ATOM      5  N   UNL     1       2.432   6.405  19.893  0.00  0.00    +0.000 N 
ATOM      6  C   UNL     1       3.286   6.139  18.809  0.00  0.00    +0.000 A 
ATOM      7  C   UNL     1       4.048   5.009  18.568  0.00  0.00    +0.000 A 
ATOM      8  C   UNL     1       4.806   4.962  17.395  0.00  0.00    +0.000 A 
ATOM      9  C   UNL     1       4.801   6.045  16.502  0.00  0.00    +0.000 A 
ATOM     10 CL   UNL     1       5.743   5.956  15.064  0.00  0.00    +0.000 Cl
ATOM     11  C   UNL     1       4.043   7.192  16.759  0.00  0.00    +0.000 A 
ATOM     12  C   UNL     1       3.288   7.224  17.921  0.00  0.00    +0.000 A 
ENDROOT
BRANCH   1  16
ATOM     13  C   UNL     1       0.500  12.841  21.017  0.00  0.00    +0.000 C 
ATOM     14  C   UNL     1       0.329  11.821  19.948  0.00  0.00    +0.000 A 
ATOM     15  N   UNL     1       1.432  11.147  19.468  0.00  0.00    +0.000 N 
ATOM     16  C   UNL     1       1.063  10.247  18.506  0.00  0.00    +0.000 A 
ATOM     17  C   UNL     1      -0.304  10.349  18.334  0.00  0.00    +0.000 A 
ATOM     18  C   UNL     1      -1.144   9.514  17.425  0.00  0.00    +0.000 C 
ATOM     19  C   UNL     1      -0.788  11.357  19.251  0.00  0.00    +0.000 A 
ATOM     20  H   UNL     1       2.374  11.268  19.812  0.00  0.00    +0.000 HD
BRANCH  19  21
ATOM     21  C   UNL     1      -2.193  11.768  19.377  0.00  0.00    +0.000 C 
ATOM     22  O   UNL     1      -2.644  12.221  20.430  0.00  0.00    +0.000 OA
ATOM     23  N   UNL     1      -2.972  11.677  18.247  0.00  0.00    +0.000 N 
ATOM     24  H   UNL     1      -2.546  11.442  17.364  0.00  0.00    +0.000 HD
BRANCH  23  25
ATOM     25  C   UNL     1      -4.333  12.173  18.250  0.00  0.00    +0.000 C 
BRANCH  25  26
ATOM     26  C   UNL     1      -5.397  11.060  18.220  0.00  0.00    +0.000 C 
BRANCH  26  27
ATOM     27  N   UNL     1      -6.554  11.270  19.116  0.00  0.00    +0.000 NA
ATOM     28  C   UNL     1      -7.090  10.000  19.613  0.00  0.00    +0.000 C 
ATOM     29  C   UNL     1      -6.155  12.109  20.253  0.00  0.00    +0.000 C 
ENDBRANCH  26  27
ENDBRANCH  25  26
ENDBRANCH  23  25
ENDBRANCH  19  21
ENDBRANCH   1  16
BRANCH   5  30
ATOM     30  C   UNL     1       2.124   5.507  20.982  0.00  0.00    +0.000 C 
BRANCH  30  31
ATOM     31  C   UNL     1       1.101   4.430  20.608  0.00  0.00    +0.000 C 
BRANCH  31  32
ATOM     32  C   UNL     1       1.545   3.001  20.946  0.00  0.00    +0.000 C 
BRANCH  32  33
ATOM     33  N   UNL     1       1.710   2.132  19.769  0.00  0.00    +0.000 NA
ATOM     34  C   UNL     1       0.990   2.630  18.598  0.00  0.00    +0.000 C 
ATOM     35  C   UNL     1       3.130   1.963  19.458  0.00  0.00    +0.000 C 
ENDBRANCH  32  33
ENDBRANCH  31  32
ENDBRANCH  30  31
ENDBRANCH   5  30
TORSDOF 9
ENDMDL
MODEL 2
REMARK VINA RESULT:      -7.4      1.918      2.561
REMARK  Name = 
REMARK  15 active torsions:
REMARK  status: ('A' for Active; 'I' for Inactive)
REMARK    1  A    between atoms: C_1  and  C_2
REMARK    2  A    between atoms: C_4  and  C_5
REMARK    3  A    between atoms: N_9  and  C_10
REMARK    4  A    between atoms: C_10  and  C_11
REMARK    5  A    between atoms: C_11  and  C_12
REMARK    6  A    between atoms: C_12  and  N_13
REMARK    7  A    between atoms: N_13  and  C_14
REMARK    8  A    between atoms: N_13  and  C_15
REMARK    9  A    between atoms: C_23  and  C_24
REMARK   10  A    between atoms: C_25  and  C_26
REMARK   11  A    between atoms: N_28  and  C_29
REMARK   12  A    between atoms: C_29  and  C_30
REMARK   13  A    between atoms: C_30  and  N_31
REMARK   14  A    between atoms: N_31  and  C_32
REMARK   15  A    between atoms: N_31  and  C_33
REMARK                            x       y       z     vdW  Elec       q    Type
REMARK                         _______ _______ _______ _____ _____    ______ ____
ROOT
ATOM      1  C   UNL     1       2.098   8.963  17.799  0.00  0.00    +0.000 C 
ATOM      2  C   UNL     1       2.493   7.849  18.431  0.00  0.00    +0.000 C 
ATOM      3  C   UNL     1       1.907   7.280  19.699  0.00  0.00    +0.000 C 
ATOM      4  O   UNL     1       1.027   7.744  20.401  0.00  0.00    +0.000 OA
ATOM      5  N   UNL     1       2.615   6.099  19.923  0.00  0.00    +0.000 N 
ATOM      6  C   UNL     1       3.585   5.885  18.930  0.00  0.00    +0.000 A 
ATOM      7  C   UNL     1       4.478   4.835  18.808  0.00  0.00    +0.000 A 
ATOM      8  C   UNL     1       5.338   4.824  17.706  0.00  0.00    +0.000 A 
ATOM      9  C   UNL     1       5.300   5.864  16.765  0.00  0.00    +0.000 A 
ATOM     10 CL   UNL     1       6.371   5.821  15.418  0.00  0.00    +0.000 Cl
ATOM     11  C   UNL     1       4.408   6.932  16.902  0.00  0.00    +0.000 A 
ATOM     12  C   UNL     1       3.554   6.929  17.993  0.00  0.00    +0.000 A 
ENDROOT
BRANCH   1  16
ATOM     13  C   UNL     1      -2.583  10.288  17.699  0.00  0.00    +0.000 C 
ATOM     14  C   UNL     1      -1.179  10.357  18.185  0.00  0.00    +0.000 A 
ATOM     15  N   UNL     1      -0.241   9.482  17.680  0.00  0.00    +0.000 N 
ATOM     16  C   UNL     1       0.984   9.716  18.241  0.00  0.00    +0.000 A 
ATOM     17  C   UNL     1       0.843  10.747  19.150  0.00  0.00    +0.000 A 
ATOM     18  C   UNL     1       1.935  11.372  19.952  0.00  0.00    +0.000 C 
ATOM     19  C   UNL     1      -0.541  11.166  19.126  0.00  0.00    +0.000 A 
ATOM     20  H   UNL     1      -0.424   8.796  16.961  0.00  0.00    +0.000 HD
BRANCH  19  21
ATOM     21  C   UNL     1      -1.104  12.241  19.956  0.00  0.00    +0.000 C 
ATOM     22  O   UNL     1      -1.465  13.313  19.469  0.00  0.00    +0.000 OA
ATOM     23  N   UNL     1      -1.261  11.975  21.296  0.00  0.00    +0.000 N 
ATOM     24  H   UNL     1      -1.095  11.044  21.644  0.00  0.00    +0.000 HD
BRANCH  23  25
ATOM     25  C   UNL     1      -1.919  12.932  22.163  0.00  0.00    +0.000 C 
BRANCH  25  26
ATOM     26  C   UNL     1      -3.419  12.651  22.368  0.00  0.00    +0.000 C 
BRANCH  26  27
ATOM     27  N   UNL     1      -4.052  13.387  23.483  0.00  0.00    +0.000 NA
ATOM     28  C   UNL     1      -5.313  14.010  23.072  0.00  0.00    +0.000 C 
ATOM     29  C   UNL     1      -4.302  12.472  24.602  0.00  0.00    +0.000 C 
ENDBRANCH  26  27
ENDBRANCH  25  26
ENDBRANCH  23  25
ENDBRANCH  19  21
ENDBRANCH   1  16
BRANCH   5  30
ATOM     30  C   UNL     1       2.306   5.218  21.025  0.00  0.00    +0.000 C 
BRANCH  30  31
ATOM     31  C   UNL     1       1.266   4.150  20.671  0.00  0.00    +0.000 C 
BRANCH  31  32
ATOM     32  C   UNL     1       1.836   2.729  20.570  0.00  0.00    +0.000 C 
BRANCH  32  33
ATOM     33  N   UNL     1       1.767   2.154  19.216  0.00  0.00    +0.000 NA
ATOM     34  C   UNL     1       1.228   3.093  18.234  0.00  0.00    +0.000 C 
ATOM     35  C   UNL     1       3.088   1.683  18.798  0.00  0.00    +0.000 C 
ENDBRANCH  32  33
ENDBRANCH  31  32
ENDBRANCH  30  31
ENDBRANCH   5  30
TORSDOF 9
ENDMDL
MODEL 3
REMARK VINA RESULT:      -7.3      1.667      2.035
REMARK  Name = 
REMARK  15 active torsions:
REMARK  status: ('A' for Active; 'I' for Inactive)
REMARK    1  A    between atoms: C_1  and  C_2
REMARK    2  A    between atoms: C_4  and  C_5
REMARK    3  A    between atoms: N_9  and  C_10
REMARK    4  A    between atoms: C_10  and  C_11
REMARK    5  A    between atoms: C_11  and  C_12
REMARK    6  A    between atoms: C_12  and  N_13
REMARK    7  A    between atoms: N_13  and  C_14
REMARK    8  A    between atoms: N_13  and  C_15
REMARK    9  A    between atoms: C_23  and  C_24
REMARK   10  A    between atoms: C_25  and  C_26
REMARK   11  A    between atoms: N_28  and  C_29
REMARK   12  A    between atoms: C_29  and  C_30
REMARK   13  A    between atoms: C_30  and  N_31
REMARK   14  A    between atoms: N_31  and  C_32
REMARK   15  A    between atoms: N_31  and  C_33
REMARK                            x       y       z     vdW  Elec       q    Type
REMARK                         _______ _______ _______ _____ _____    ______ ____
ROOT
ATOM      1  C   UNL     1       1.943   9.266  17.999  0.00  0.00    +0.000 C 
ATOM      2  C   UNL     1       2.297   8.099  18.555  0.00  0.00    +0.000 C 
ATOM      3  C   UNL     1       1.776   7.526  19.849  0.00  0.00    +0.000 C 
ATOM      4  O   UNL     1       0.999   8.028  20.641  0.00  0.00    +0.000 OA
ATOM      5  N   UNL     1       2.401   6.286  19.970  0.00  0.00    +0.000 N 
ATOM      6  C   UNL     1       3.264   6.037  18.889  0.00  0.00    +0.000 A 
ATOM      7  C   UNL     1       4.055   4.926  18.654  0.00  0.00    +0.000 A 
ATOM      8  C   UNL     1       4.815   4.893  17.482  0.00  0.00    +0.000 A 
ATOM      9  C   UNL     1       4.783   5.971  16.584  0.00  0.00    +0.000 A 
ATOM     10 CL   UNL     1       5.729   5.899  15.147  0.00  0.00    +0.000 Cl
ATOM     11  C   UNL     1       3.995   7.099  16.834  0.00  0.00    +0.000 A 
ATOM     12  C   UNL     1       3.239   7.117  17.995  0.00  0.00    +0.000 A 
ENDROOT
BRANCH   1  16
ATOM     13  C   UNL     1       0.196  12.368  21.316  0.00  0.00    +0.000 C 
ATOM     14  C   UNL     1       0.106  11.502  20.110  0.00  0.00    +0.000 A 
ATOM     15  N   UNL     1       1.228  10.832  19.669  0.00  0.00    +0.000 N 
ATOM     16  C   UNL     1       0.935  10.084  18.562  0.00  0.00    +0.000 A 
ATOM     17  C   UNL     1      -0.398  10.285  18.256  0.00  0.00    +0.000 A 
ATOM     18  C   UNL     1      -1.161   9.622  17.159  0.00  0.00    +0.000 C 
ATOM     19  C   UNL     1      -0.941  11.195  19.240  0.00  0.00    +0.000 A 
ATOM     20  H   UNL     1       2.128  10.855  20.127  0.00  0.00    +0.000 HD
BRANCH  19  21
ATOM     21  C   UNL     1      -2.332  11.668  19.264  0.00  0.00    +0.000 C 
ATOM     22  O   UNL     1      -3.180  11.226  18.486  0.00  0.00    +0.000 OA
ATOM     23  N   UNL     1      -2.661  12.588  20.232  0.00  0.00    +0.000 N 
ATOM     24  H   UNL     1      -1.989  12.825  20.945  0.00  0.00    +0.000 HD
BRANCH  23  25
ATOM     25  C   UNL     1      -4.034  13.016  20.403  0.00  0.00    +0.000 C 
BRANCH  25  26
ATOM     26  C   UNL     1      -4.431  13.246  21.874  0.00  0.00    +0.000 C 
BRANCH  26  27
ATOM     27  N   UNL     1      -3.301  13.348  22.822  0.00  0.00    +0.000 NA
ATOM     28  C   UNL     1      -3.251  14.665  23.463  0.00  0.00    +0.000 C 
ATOM     29  C   UNL     1      -3.423  12.310  23.852  0.00  0.00    +0.000 C 
ENDBRANCH  26  27
ENDBRANCH  25  26
ENDBRANCH  23  25
ENDBRANCH  19  21
ENDBRANCH   1  16
BRANCH   5  30
ATOM     30  C   UNL     1       2.116   5.386  21.064  0.00  0.00    +0.000 C 
BRANCH  30  31
ATOM     31  C   UNL     1       1.212   4.215  20.664  0.00  0.00    +0.000 C 
BRANCH  31  32
ATOM     32  C   UNL     1       1.881   2.840  20.779  0.00  0.00    +0.000 C 
BRANCH  32  33
ATOM     33  N   UNL     1       1.727   1.998  19.581  0.00  0.00    +0.000 NA
ATOM     34  C   UNL     1       0.830   2.591  18.590  0.00  0.00    +0.000 C 
ATOM     35  C   UNL     1       3.034   1.723  18.984  0.00  0.00    +0.000 C 
ENDBRANCH  32  33
ENDBRANCH  31  32
ENDBRANCH  30  31
ENDBRANCH   5  30
TORSDOF 9
ENDMDL
MODEL 4
REMARK VINA RESULT:      -7.2      1.697      2.358
REMARK  Name = 
REMARK  15 active torsions:
REMARK  status: ('A' for Active; 'I' for Inactive)
REMARK    1  A    between atoms: C_1  and  C_2
REMARK    2  A    between atoms: C_4  and  C_5
REMARK    3  A    between atoms: N_9  and  C_10
REMARK    4  A    between atoms: C_10  and  C_11
REMARK    5  A    between atoms: C_11  and  C_12
REMARK    6  A    between atoms: C_12  and  N_13
REMARK    7  A    between atoms: N_13  and  C_14
REMARK    8  A    between atoms: N_13  and  C_15
REMARK    9  A    between atoms: C_23  and  C_24
REMARK   10  A    between atoms: C_25  and  C_26
REMARK   11  A    between atoms: N_28  and  C_29
REMARK   12  A    between atoms: C_29  and  C_30
REMARK   13  A    between atoms: C_30  and  N_31
REMARK   14  A    between atoms: N_31  and  C_32
REMARK   15  A    between atoms: N_31  and  C_33
REMARK                            x       y       z     vdW  Elec       q    Type
REMARK                         _______ _______ _______ _____ _____    ______ ____
ROOT
ATOM      1  C   UNL     1       1.858   9.054  17.856  0.00  0.00    +0.000 C 
ATOM      2  C   UNL     1       2.295   7.941  18.463  0.00  0.00    +0.000 C 
ATOM      3  C   UNL     1       1.764   7.351  19.746  0.00  0.00    +0.000 C 
ATOM      4  O   UNL     1       0.902   7.793  20.483  0.00  0.00    +0.000 OA
ATOM      5  N   UNL     1       2.500   6.182  19.933  0.00  0.00    +0.000 N 
ATOM      6  C   UNL     1       3.438   5.993  18.904  0.00  0.00    +0.000 A 
ATOM      7  C   UNL     1       4.344   4.960  18.741  0.00  0.00    +0.000 A 
ATOM      8  C   UNL     1       5.164   4.975  17.609  0.00  0.00    +0.000 A 
ATOM      9  C   UNL     1       5.075   6.022  16.680  0.00  0.00    +0.000 A 
ATOM     10 CL   UNL     1       6.097   6.010  15.295  0.00  0.00    +0.000 Cl
ATOM     11  C   UNL     1       4.169   7.073  16.858  0.00  0.00    +0.000 A 
ATOM     12  C   UNL     1       3.355   7.045  17.979  0.00  0.00    +0.000 A 
ENDROOT
BRANCH   1  16
ATOM     13  C   UNL     1      -2.785  10.510  17.759  0.00  0.00    +0.000 C 
ATOM     14  C   UNL     1      -1.397  10.485  18.293  0.00  0.00    +0.000 A 
ATOM     15  N   UNL     1      -0.463   9.647  17.723  0.00  0.00    +0.000 N 
ATOM     16  C   UNL     1       0.747   9.783  18.345  0.00  0.00    +0.000 A 
ATOM     17  C   UNL     1       0.599  10.711  19.359  0.00  0.00    +0.000 A 
ATOM     18  C   UNL     1       1.678  11.212  20.260  0.00  0.00    +0.000 C 
ATOM     19  C   UNL     1      -0.772  11.167  19.339  0.00  0.00    +0.000 A 
ATOM     20  H   UNL     1      -0.637   9.050  16.926  0.00  0.00    +0.000 HD
BRANCH  19  21
ATOM     21  C   UNL     1      -1.338  12.157  20.266  0.00  0.00    +0.000 C 
ATOM     22  O   UNL     1      -1.479  11.915  21.466  0.00  0.00    +0.000 OA
ATOM     23  N   UNL     1      -1.653  13.390  19.744  0.00  0.00    +0.000 N 
ATOM     24  H   UNL     1      -1.396  13.612  18.795  0.00  0.00    +0.000 HD
BRANCH  23  25
ATOM     25  C   UNL     1      -2.102  14.462  20.609  0.00  0.00    +0.000 C 
BRANCH  25  26
ATOM     26  C   UNL     1      -3.629  14.496  20.810  0.00  0.00    +0.000 C 
BRANCH  26  27
ATOM     27  N   UNL     1      -4.105  13.977  22.110  0.00  0.00    +0.000 NA
ATOM     28  C   UNL     1      -4.788  15.016  22.888  0.00  0.00    +0.000 C 
ATOM     29  C   UNL     1      -5.021  12.853  21.890  0.00  0.00    +0.000 C 
ENDBRANCH  26  27
ENDBRANCH  25  26
ENDBRANCH  23  25
ENDBRANCH  19  21
ENDBRANCH   1  16
BRANCH   5  30
ATOM     30  C   UNL     1       2.246   5.285  21.037  0.00  0.00    +0.000 C 
BRANCH  30  31
ATOM     31  C   UNL     1       1.258   4.166  20.692  0.00  0.00    +0.000 C 
BRANCH  31  32
ATOM     32  C   UNL     1       1.884   2.766  20.659  0.00  0.00    +0.000 C 
BRANCH  32  33
ATOM     33  N   UNL     1       1.823   2.116  19.339  0.00  0.00    +0.000 NA
ATOM     34  C   UNL     1       1.193   2.960  18.326  0.00  0.00    +0.000 C 
ATOM     35  C   UNL     1       3.165   1.719  18.908  0.00  0.00    +0.000 C 
ENDBRANCH  32  33
ENDBRANCH  31  32
ENDBRANCH  30  31
ENDBRANCH   5  30
TORSDOF 9
ENDMDL
MODEL 5
REMARK VINA RESULT:      -7.2      2.087      3.644
REMARK  Name = 
REMARK  15 active torsions:
REMARK  status: ('A' for Active; 'I' for Inactive)
REMARK    1  A    between atoms: C_1  and  C_2
REMARK    2  A    between atoms: C_4  and  C_5
REMARK    3  A    between atoms: N_9  and  C_10
REMARK    4  A    between atoms: C_10  and  C_11
REMARK    5  A    between atoms: C_11  and  C_12
REMARK    6  A    between atoms: C_12  and  N_13
REMARK    7  A    between atoms: N_13  and  C_14
REMARK    8  A    between atoms: N_13  and  C_15
REMARK    9  A    between atoms: C_23  and  C_24
REMARK   10  A    between atoms: C_25  and  C_26
REMARK   11  A    between atoms: N_28  and  C_29
REMARK   12  A    between atoms: C_29  and  C_30
REMARK   13  A    between atoms: C_30  and  N_31
REMARK   14  A    between atoms: N_31  and  C_32
REMARK   15  A    between atoms: N_31  and  C_33
REMARK                            x       y       z     vdW  Elec       q    Type
REMARK                         _______ _______ _______ _____ _____    ______ ____
ROOT
ATOM      1  C   UNL     1       2.191   9.222  17.568  0.00  0.00    +0.000 C 
ATOM      2  C   UNL     1       2.502   8.100  18.232  0.00  0.00    +0.000 C 
ATOM      3  C   UNL     1       1.914   7.638  19.541  0.00  0.00    +0.000 C 
ATOM      4  O   UNL     1       1.109   8.211  20.253  0.00  0.00    +0.000 OA
ATOM      5  N   UNL     1       2.515   6.405  19.789  0.00  0.00    +0.000 N 
ATOM      6  C   UNL     1       3.422   6.061  18.773  0.00  0.00    +0.000 A 
ATOM      7  C   UNL     1       4.206   4.926  18.664  0.00  0.00    +0.000 A 
ATOM      8  C   UNL     1       5.019   4.791  17.535  0.00  0.00    +0.000 A 
ATOM      9  C   UNL     1       5.044   5.794  16.554  0.00  0.00    +0.000 A 
ATOM     10 CL   UNL     1       6.054   5.597  15.173  0.00  0.00    +0.000 Cl
ATOM     11  C   UNL     1       4.262   6.947  16.676  0.00  0.00    +0.000 A 
ATOM     12  C   UNL     1       3.454   7.067  17.796  0.00  0.00    +0.000 A 
ENDROOT
BRANCH   1  16
ATOM     13  C   UNL     1      -2.450  10.561  18.161  0.00  0.00    +0.000 C 
ATOM     14  C   UNL     1      -0.978  10.738  18.273  0.00  0.00    +0.000 A 
ATOM     15  N   UNL     1      -0.137   9.734  17.841  0.00  0.00    +0.000 N 
ATOM     16  C   UNL     1       1.170  10.095  18.017  0.00  0.00    +0.000 A 
ATOM     17  C   UNL     1       1.189  11.349  18.598  0.00  0.00    +0.000 A 
ATOM     18  C   UNL     1       2.403  12.156  18.915  0.00  0.00    +0.000 C 
ATOM     19  C   UNL     1      -0.183  11.772  18.770  0.00  0.00    +0.000 A 
ATOM     20  H   UNL     1      -0.444   8.873  17.412  0.00  0.00    +0.000 HD
BRANCH  19  21
ATOM     21  C   UNL     1      -0.595  13.053  19.361  0.00  0.00    +0.000 C 
ATOM     22  O   UNL     1      -1.012  13.128  20.518  0.00  0.00    +0.000 OA
ATOM     23  N   UNL     1      -0.442  14.176  18.582  0.00  0.00    +0.000 N 
ATOM     24  H   UNL     1       0.035  14.109  17.697  0.00  0.00    +0.000 HD
BRANCH  23  25
ATOM     25  C   UNL     1      -0.709  15.491  19.128  0.00  0.00    +0.000 C 
BRANCH  25  26
ATOM     26  C   UNL     1       0.510  16.134  19.815  0.00  0.00    +0.000 C 
BRANCH  26  27
ATOM     27  N   UNL     1       0.191  17.129  20.862  0.00  0.00    +0.000 NA
ATOM     28  C   UNL     1      -0.378  16.494  22.054  0.00  0.00    +0.000 C 
ATOM     29  C   UNL     1       1.406  17.862  21.235  0.00  0.00    +0.000 C 
ENDBRANCH  26  27
ENDBRANCH  25  26
ENDBRANCH  23  25
ENDBRANCH  19  21
ENDBRANCH   1  16
BRANCH   5  30
ATOM     30  C   UNL     1       2.166   5.599  20.936  0.00  0.00    +0.000 C 
BRANCH  30  31
ATOM     31  C   UNL     1       1.218   4.443  20.598  0.00  0.00    +0.000 C 
BRANCH  31  32
ATOM     32  C   UNL     1       1.806   3.052  20.866  0.00  0.00    +0.000 C 
BRANCH  32  33
ATOM     33  N   UNL     1       1.686   2.124  19.729  0.00  0.00    +0.000 NA
ATOM     34  C   UNL     1       0.761   2.608  18.705  0.00  0.00    +0.000 C 
ATOM     35  C   UNL     1       3.003   1.867  19.143  0.00  0.00    +0.000 C 
ENDBRANCH  32  33
ENDBRANCH  31  32
ENDBRANCH  30  31
ENDBRANCH   5  30
TORSDOF 9
ENDMDL
MODEL 6
REMARK VINA RESULT:      -7.1      2.299      3.744
REMARK  Name = 
REMARK  15 active torsions:
REMARK  status: ('A' for Active; 'I' for Inactive)
REMARK    1  A    between atoms: C_1  and  C_2
REMARK    2  A    between atoms: C_4  and  C_5
REMARK    3  A    between atoms: N_9  and  C_10
REMARK    4  A    between atoms: C_10  and  C_11
REMARK    5  A    between atoms: C_11  and  C_12
REMARK    6  A    between atoms: C_12  and  N_13
REMARK    7  A    between atoms: N_13  and  C_14
REMARK    8  A    between atoms: N_13  and  C_15
REMARK    9  A    between atoms: C_23  and  C_24
REMARK   10  A    between atoms: C_25  and  C_26
REMARK   11  A    between atoms: N_28  and  C_29
REMARK   12  A    between atoms: C_29  and  C_30
REMARK   13  A    between atoms: C_30  and  N_31
REMARK   14  A    between atoms: N_31  and  C_32
REMARK   15  A    between atoms: N_31  and  C_33
REMARK                            x       y       z     vdW  Elec       q    Type
REMARK                         _______ _______ _______ _____ _____    ______ ____
ROOT
ATOM      1  C   UNL     1       2.592   8.939  17.496  0.00  0.00    +0.000 C 
ATOM      2  C   UNL     1       2.867   7.807  18.158  0.00  0.00    +0.000 C 
ATOM      3  C   UNL     1       2.252   7.355  19.459  0.00  0.00    +0.000 C 
ATOM      4  O   UNL     1       1.453   7.944  20.163  0.00  0.00    +0.000 OA
ATOM      5  N   UNL     1       2.819   6.106  19.708  0.00  0.00    +0.000 N 
ATOM      6  C   UNL     1       3.730   5.743  18.701  0.00  0.00    +0.000 A 
ATOM      7  C   UNL     1       4.487   4.589  18.597  0.00  0.00    +0.000 A 
ATOM      8  C   UNL     1       5.310   4.439  17.477  0.00  0.00    +0.000 A 
ATOM      9  C   UNL     1       5.371   5.445  16.501  0.00  0.00    +0.000 A 
ATOM     10 CL   UNL     1       6.392   5.228  15.132  0.00  0.00    +0.000 Cl
ATOM     11  C   UNL     1       4.617   6.616  16.619  0.00  0.00    +0.000 A 
ATOM     12  C   UNL     1       3.798   6.752  17.729  0.00  0.00    +0.000 A 
ENDROOT
BRANCH   1  16
ATOM     13  C   UNL     1      -2.007  10.187  18.486  0.00  0.00    +0.000 C 
ATOM     14  C   UNL     1      -0.544  10.433  18.373  0.00  0.00    +0.000 A 
ATOM     15  N   UNL     1       0.292   9.404  17.993  0.00  0.00    +0.000 N 
ATOM     16  C   UNL     1       1.588   9.835  17.936  0.00  0.00    +0.000 A 
ATOM     17  C   UNL     1       1.608  11.166  18.308  0.00  0.00    +0.000 A 
ATOM     18  C   UNL     1       2.804  12.057  18.333  0.00  0.00    +0.000 C 
ATOM     19  C   UNL     1       0.247  11.561  18.594  0.00  0.00    +0.000 A 
ATOM     20  H   UNL     1      -0.018   8.474  17.747  0.00  0.00    +0.000 HD
BRANCH  19  21
ATOM     21  C   UNL     1      -0.159  12.905  19.029  0.00  0.00    +0.000 C 
ATOM     22  O   UNL     1      -0.688  13.705  18.255  0.00  0.00    +0.000 OA
ATOM     23  N   UNL     1       0.026  13.212  20.357  0.00  0.00    +0.000 N 
ATOM     24  H   UNL     1       0.324  12.494  20.999  0.00  0.00    +0.000 HD
BRANCH  23  25
ATOM     25  C   UNL     1      -0.456  14.467  20.896  0.00  0.00    +0.000 C 
BRANCH  25  26
ATOM     26  C   UNL     1       0.641  15.539  21.040  0.00  0.00    +0.000 C 
BRANCH  26  27
ATOM     27  N   UNL     1       0.903  16.340  19.825  0.00  0.00    +0.000 NA
ATOM     28  C   UNL     1      -0.300  17.042  19.371  0.00  0.00    +0.000 C 
ATOM     29  C   UNL     1       1.965  17.316  20.095  0.00  0.00    +0.000 C 
ENDBRANCH  26  27
ENDBRANCH  25  26
ENDBRANCH  23  25
ENDBRANCH  19  21
ENDBRANCH   1  16
BRANCH   5  30
ATOM     30  C   UNL     1       2.437   5.304  20.848  0.00  0.00    +0.000 C 
BRANCH  30  31
ATOM     31  C   UNL     1       1.212   4.421  20.583  0.00  0.00    +0.000 C 
BRANCH  31  32
ATOM     32  C   UNL     1       1.483   2.918  20.722  0.00  0.00    +0.000 C 
BRANCH  32  33
ATOM     33  N   UNL     1       1.536   2.199  19.439  0.00  0.00    +0.000 NA
ATOM     34  C   UNL     1       1.080   3.018  18.317  0.00  0.00    +0.000 C 
ATOM     35  C   UNL     1       2.891   1.706  19.190  0.00  0.00    +0.000 C 
ENDBRANCH  32  33
ENDBRANCH  31  32
ENDBRANCH  30  31
ENDBRANCH   5  30
TORSDOF 9
ENDMDL
MODEL 7
REMARK VINA RESULT:      -7.1      1.981      2.661
REMARK  Name = 
REMARK  15 active torsions:
REMARK  status: ('A' for Active; 'I' for Inactive)
REMARK    1  A    between atoms: C_1  and  C_2
REMARK    2  A    between atoms: C_4  and  C_5
REMARK    3  A    between atoms: N_9  and  C_10
REMARK    4  A    between atoms: C_10  and  C_11
REMARK    5  A    between atoms: C_11  and  C_12
REMARK    6  A    between atoms: C_12  and  N_13
REMARK    7  A    between atoms: N_13  and  C_14
REMARK    8  A    between atoms: N_13  and  C_15
REMARK    9  A    between atoms: C_23  and  C_24
REMARK   10  A    between atoms: C_25  and  C_26
REMARK   11  A    between atoms: N_28  and  C_29
REMARK   12  A    between atoms: C_29  and  C_30
REMARK   13  A    between atoms: C_30  and  N_31
REMARK   14  A    between atoms: N_31  and  C_32
REMARK   15  A    between atoms: N_31  and  C_33
REMARK                            x       y       z     vdW  Elec       q    Type
REMARK                         _______ _______ _______ _____ _____    ______ ____
ROOT
ATOM      1  C   UNL     1       2.279   9.075  17.539  0.00  0.00    +0.000 C 
ATOM      2  C   UNL     1       2.601   7.962  18.214  0.00  0.00    +0.000 C 
ATOM      3  C   UNL     1       2.010   7.506  19.525  0.00  0.00    +0.000 C 
ATOM      4  O   UNL     1       1.194   8.075  20.226  0.00  0.00    +0.000 OA
ATOM      5  N   UNL     1       2.624   6.281  19.787  0.00  0.00    +0.000 N 
ATOM      6  C   UNL     1       3.542   5.939  18.779  0.00  0.00    +0.000 A 
ATOM      7  C   UNL     1       4.340   4.813  18.685  0.00  0.00    +0.000 A 
ATOM      8  C   UNL     1       5.161   4.678  17.562  0.00  0.00    +0.000 A 
ATOM      9  C   UNL     1       5.179   5.672  16.572  0.00  0.00    +0.000 A 
ATOM     10 CL   UNL     1       6.199   5.475  15.199  0.00  0.00    +0.000 Cl
ATOM     11  C   UNL     1       4.383   6.817  16.679  0.00  0.00    +0.000 A 
ATOM     12  C   UNL     1       3.567   6.937  17.793  0.00  0.00    +0.000 A 
ENDROOT
BRANCH   1  16
ATOM     13  C   UNL     1      -2.382  10.330  18.156  0.00  0.00    +0.000 C 
ATOM     14  C   UNL     1      -0.912  10.543  18.241  0.00  0.00    +0.000 A 
ATOM     15  N   UNL     1      -0.055   9.544  17.829  0.00  0.00    +0.000 N 
ATOM     16  C   UNL     1       1.246   9.939  17.974  0.00  0.00    +0.000 A 
ATOM     17  C   UNL     1       1.245  11.212  18.513  0.00  0.00    +0.000 A 
ATOM     18  C   UNL     1       2.444  12.056  18.786  0.00  0.00    +0.000 C 
ATOM     19  C   UNL     1      -0.134  11.610  18.692  0.00  0.00    +0.000 A 
ATOM     20  H   UNL     1      -0.349   8.662  17.433  0.00  0.00    +0.000 HD
BRANCH  19  21
ATOM     21  C   UNL     1      -0.566  12.900  19.247  0.00  0.00    +0.000 C 
ATOM     22  O   UNL     1      -0.531  13.936  18.580  0.00  0.00    +0.000 OA
ATOM     23  N   UNL     1      -1.065  12.892  20.528  0.00  0.00    +0.000 N 
ATOM     24  H   UNL     1      -1.218  12.014  20.999  0.00  0.00    +0.000 HD
BRANCH  23  25
ATOM     25  C   UNL     1      -1.624  14.096  21.108  0.00  0.00    +0.000 C 
BRANCH  25  26
ATOM     26  C   UNL     1      -3.157  14.185  20.988  0.00  0.00    +0.000 C 
BRANCH  26  27
ATOM     27  N   UNL     1      -3.749  15.470  21.419  0.00  0.00    +0.000 NA
ATOM     28  C   UNL     1      -3.318  16.577  20.561  0.00  0.00    +0.000 C 
ATOM     29  C   UNL     1      -5.213  15.374  21.392  0.00  0.00    +0.000 C 
ENDBRANCH  26  27
ENDBRANCH  25  26
ENDBRANCH  23  25
ENDBRANCH  19  21
ENDBRANCH   1  16
BRANCH   5  30
ATOM     30  C   UNL     1       2.279   5.482  20.939  0.00  0.00    +0.000 C 
BRANCH  30  31
ATOM     31  C   UNL     1       1.284   4.360  20.621  0.00  0.00    +0.000 C 
BRANCH  31  32
ATOM     32  C   UNL     1       1.839   2.948  20.848  0.00  0.00    +0.000 C 
BRANCH  32  33
ATOM     33  N   UNL     1       1.714   2.062  19.679  0.00  0.00    +0.000 NA
ATOM     34  C   UNL     1       0.792   2.587  18.673  0.00  0.00    +0.000 C 
ATOM     35  C   UNL     1       3.029   1.818  19.085  0.00  0.00    +0.000 C 
ENDBRANCH  32  33
ENDBRANCH  31  32
ENDBRANCH  30  31
ENDBRANCH   5  30
TORSDOF 9
ENDMDL
MODEL 8
REMARK VINA RESULT:      -7.1      1.982      3.428
REMARK  Name = 
REMARK  15 active torsions:
REMARK  status: ('A' for Active; 'I' for Inactive)
REMARK    1  A    between atoms: C_1  and  C_2
REMARK    2  A    between atoms: C_4  and  C_5
REMARK    3  A    between atoms: N_9  and  C_10
REMARK    4  A    between atoms: C_10  and  C_11
REMARK    5  A    between atoms: C_11  and  C_12
REMARK    6  A    between atoms: C_12  and  N_13
REMARK    7  A    between atoms: N_13  and  C_14
REMARK    8  A    between atoms: N_13  and  C_15
REMARK    9  A    between atoms: C_23  and  C_24
REMARK   10  A    between atoms: C_25  and  C_26
REMARK   11  A    between atoms: N_28  and  C_29
REMARK   12  A    between atoms: C_29  and  C_30
REMARK   13  A    between atoms: C_30  and  N_31
REMARK   14  A    between atoms: N_31  and  C_32
REMARK   15  A    between atoms: N_31  and  C_33
REMARK                            x       y       z     vdW  Elec       q    Type
REMARK                         _______ _______ _______ _____ _____    ______ ____
ROOT
ATOM      1  C   UNL     1       1.811   9.200  17.734  0.00  0.00    +0.000 C 
ATOM      2  C   UNL     1       2.270   8.109  18.364  0.00  0.00    +0.000 C 
ATOM      3  C   UNL     1       1.782   7.562  19.682  0.00  0.00    +0.000 C 
ATOM      4  O   UNL     1       0.941   8.026  20.429  0.00  0.00    +0.000 OA
ATOM      5  N   UNL     1       2.528   6.401  19.885  0.00  0.00    +0.000 N 
ATOM      6  C   UNL     1       3.434   6.181  18.835  0.00  0.00    +0.000 A 
ATOM      7  C   UNL     1       4.339   5.145  18.679  0.00  0.00    +0.000 A 
ATOM      8  C   UNL     1       5.124   5.124  17.523  0.00  0.00    +0.000 A 
ATOM      9  C   UNL     1       5.002   6.139  16.562  0.00  0.00    +0.000 A 
ATOM     10 CL   UNL     1       5.982   6.083  15.148  0.00  0.00    +0.000 Cl
ATOM     11  C   UNL     1       4.098   7.192  16.732  0.00  0.00    +0.000 A 
ATOM     12  C   UNL     1       3.319   7.200  17.879  0.00  0.00    +0.000 A 
ENDROOT
BRANCH   1  16
ATOM     13  C   UNL     1      -2.868  10.535  17.817  0.00  0.00    +0.000 C 
ATOM     14  C   UNL     1      -1.449  10.588  18.261  0.00  0.00    +0.000 A 
ATOM     15  N   UNL     1      -0.529   9.726  17.702  0.00  0.00    +0.000 N 
ATOM     16  C   UNL     1       0.713   9.942  18.232  0.00  0.00    +0.000 A 
ATOM     17  C   UNL     1       0.603  10.947  19.173  0.00  0.00    +0.000 A 
ATOM     18  C   UNL     1       1.721  11.548  19.958  0.00  0.00    +0.000 C 
ATOM     19  C   UNL     1      -0.780  11.369  19.204  0.00  0.00    +0.000 A 
ATOM     20  H   UNL     1      -0.736   9.060  16.971  0.00  0.00    +0.000 HD
BRANCH  19  21
ATOM     21  C   UNL     1      -1.314  12.420  20.081  0.00  0.00    +0.000 C 
ATOM     22  O   UNL     1      -1.712  12.173  21.220  0.00  0.00    +0.000 OA
ATOM     23  N   UNL     1      -1.299  13.706  19.592  0.00  0.00    +0.000 N 
ATOM     24  H   UNL     1      -0.837  13.903  18.718  0.00  0.00    +0.000 HD
BRANCH  23  25
ATOM     25  C   UNL     1      -1.694  14.817  20.434  0.00  0.00    +0.000 C 
BRANCH  25  26
ATOM     26  C   UNL     1      -1.196  16.184  19.927  0.00  0.00    +0.000 C 
BRANCH  26  27
ATOM     27  N   UNL     1      -0.284  16.130  18.764  0.00  0.00    +0.000 NA
ATOM     28  C   UNL     1      -0.521  17.243  17.841  0.00  0.00    +0.000 C 
ATOM     29  C   UNL     1       1.109  16.168  19.225  0.00  0.00    +0.000 C 
ENDBRANCH  26  27
ENDBRANCH  25  26
ENDBRANCH  23  25
ENDBRANCH  19  21
ENDBRANCH   1  16
BRANCH   5  30
ATOM     30  C   UNL     1       2.311   5.541  21.026  0.00  0.00    +0.000 C 
BRANCH  30  31
ATOM     31  C   UNL     1       1.321   4.405  20.748  0.00  0.00    +0.000 C 
BRANCH  31  32
ATOM     32  C   UNL     1       1.985   3.047  20.484  0.00  0.00    +0.000 C 
BRANCH  32  33
ATOM     33  N   UNL     1       2.011   2.661  19.064  0.00  0.00    +0.000 NA
ATOM     34  C   UNL     1       3.064   1.692  18.765  0.00  0.00    +0.000 C 
ATOM     35  C   UNL     1       0.707   2.137  18.657  0.00  0.00    +0.000 C 
ENDBRANCH  32  33
ENDBRANCH  31  32
ENDBRANCH  30  31
ENDBRANCH   5  30
TORSDOF 9
ENDMDL
MODEL 9
REMARK VINA RESULT:      -7.1      2.058      3.142
REMARK  Name = 
REMARK  15 active torsions:
REMARK  status: ('A' for Active; 'I' for Inactive)
REMARK    1  A    between atoms: C_1  and  C_2
REMARK    2  A    between atoms: C_4  and  C_5
REMARK    3  A    between atoms: N_9  and  C_10
REMARK    4  A    between atoms: C_10  and  C_11
REMARK    5  A    between atoms: C_11  and  C_12
REMARK    6  A    between atoms: C_12  and  N_13
REMARK    7  A    between atoms: N_13  and  C_14
REMARK    8  A    between atoms: N_13  and  C_15
REMARK    9  A    between atoms: C_23  and  C_24
REMARK   10  A    between atoms: C_25  and  C_26
REMARK   11  A    between atoms: N_28  and  C_29
REMARK   12  A    between atoms: C_29  and  C_30
REMARK   13  A    between atoms: C_30  and  N_31
REMARK   14  A    between atoms: N_31  and  C_32
REMARK   15  A    between atoms: N_31  and  C_33
REMARK                            x       y       z     vdW  Elec       q    Type
REMARK                         _______ _______ _______ _____ _____    ______ ____
ROOT
ATOM      1  C   UNL     1       2.213   9.110  17.594  0.00  0.00    +0.000 C 
ATOM      2  C   UNL     1       2.574   8.019  18.285  0.00  0.00    +0.000 C 
ATOM      3  C   UNL     1       1.975   7.542  19.584  0.00  0.00    +0.000 C 
ATOM      4  O   UNL     1       1.116   8.074  20.262  0.00  0.00    +0.000 OA
ATOM      5  N   UNL     1       2.643   6.352  19.870  0.00  0.00    +0.000 N 
ATOM      6  C   UNL     1       3.601   6.050  18.887  0.00  0.00    +0.000 A 
ATOM      7  C   UNL     1       4.456   4.964  18.820  0.00  0.00    +0.000 A 
ATOM      8  C   UNL     1       5.310   4.864  17.717  0.00  0.00    +0.000 A 
ATOM      9  C   UNL     1       5.302   5.851  16.721  0.00  0.00    +0.000 A 
ATOM     10 CL   UNL     1       6.363   5.697  15.374  0.00  0.00    +0.000 Cl
ATOM     11  C   UNL     1       4.447   6.955  16.801  0.00  0.00    +0.000 A 
ATOM     12  C   UNL     1       3.600   7.041  17.895  0.00  0.00    +0.000 A 
ENDROOT
BRANCH   1  16
ATOM     13  C   UNL     1      -2.514  10.211  17.948  0.00  0.00    +0.000 C 
ATOM     14  C   UNL     1      -1.060  10.457  18.144  0.00  0.00    +0.000 A 
ATOM     15  N   UNL     1      -0.148   9.503  17.745  0.00  0.00    +0.000 N 
ATOM     16  C   UNL     1       1.128   9.924  17.998  0.00  0.00    +0.000 A 
ATOM     17  C   UNL     1       1.053  11.168  18.597  0.00  0.00    +0.000 A 
ATOM     18  C   UNL     1       2.206  12.028  18.992  0.00  0.00    +0.000 C 
ATOM     19  C   UNL     1      -0.346  11.520  18.699  0.00  0.00    +0.000 A 
ATOM     20  H   UNL     1      -0.389   8.635  17.287  0.00  0.00    +0.000 HD
BRANCH  19  21
ATOM     21  C   UNL     1      -0.852  12.770  19.285  0.00  0.00    +0.000 C 
ATOM     22  O   UNL     1      -0.687  13.858  18.731  0.00  0.00    +0.000 OA
ATOM     23  N   UNL     1      -1.568  12.664  20.454  0.00  0.00    +0.000 N 
ATOM     24  H   UNL     1      -1.813  11.753  20.810  0.00  0.00    +0.000 HD
BRANCH  23  25
ATOM     25  C   UNL     1      -2.205  13.829  21.034  0.00  0.00    +0.000 C 
BRANCH  25  26
ATOM     26  C   UNL     1      -1.390  14.477  22.169  0.00  0.00    +0.000 C 
BRANCH  26  27
ATOM     27  N   UNL     1      -2.165  14.833  23.377  0.00  0.00    +0.000 NA
ATOM     28  C   UNL     1      -1.300  14.973  24.551  0.00  0.00    +0.000 C 
ATOM     29  C   UNL     1      -2.886  16.091  23.151  0.00  0.00    +0.000 C 
ENDBRANCH  26  27
ENDBRANCH  25  26
ENDBRANCH  23  25
ENDBRANCH  19  21
ENDBRANCH   1  16
BRANCH   5  30
ATOM     30  C   UNL     1       2.311   5.543  21.020  0.00  0.00    +0.000 C 
BRANCH  30  31
ATOM     31  C   UNL     1       1.274   4.456  20.715  0.00  0.00    +0.000 C 
BRANCH  31  32
ATOM     32  C   UNL     1       1.874   3.060  20.507  0.00  0.00    +0.000 C 
BRANCH  32  33
ATOM     33  N   UNL     1       1.985   2.663  19.093  0.00  0.00    +0.000 NA
ATOM     34  C   UNL     1       3.024   1.658  18.872  0.00  0.00    +0.000 C 
ATOM     35  C   UNL     1       0.695   2.177  18.601  0.00  0.00    +0.000 C 
ENDBRANCH  32  33
ENDBRANCH  31  32
ENDBRANCH  30  31
ENDBRANCH   5  30
TORSDOF 9
ENDMDL
