MODEL 1
REMARK VINA RESULT:      -6.8      0.000      0.000
REMARK  Name = 
REMARK  8 active torsions:
REMARK  status: ('A' for Active; 'I' for Inactive)
REMARK    1  A    between atoms: C_1  and  C_2
REMARK    2  A    between atoms: C_2  and  C_3
REMARK    3  A    between atoms: N_5  and  C_6
REMARK    4  A    between atoms: C_17  and  C_19
REMARK    5  A    between atoms: C_23  and  C_24
REMARK    6  A    between atoms: C_27  and  O_28
REMARK    7  A    between atoms: O_28  and  C_29
REMARK    8  A    between atoms: C_29  and  C_30
REMARK                            x       y       z     vdW  Elec       q    Type
REMARK                         _______ _______ _______ _____ _____    ______ ____
ROOT
ATOM      1  C   UNL     1      -2.731  11.338  18.569  0.00  0.00    +0.000 C 
ATOM      2  C   UNL     1      -3.576  12.230  19.409  0.00  0.00    +0.000 A 
ATOM      3  C   UNL     1      -4.969  12.237  19.439  0.00  0.00    +0.000 A 
ATOM      4  C   UNL     1      -5.617  13.109  20.308  0.00  0.00    +0.000 A 
ATOM      5  C   UNL     1      -4.873  13.956  21.134  0.00  0.00    +0.000 A 
ATOM      6  C   UNL     1      -3.476  13.933  21.105  0.00  0.00    +0.000 A 
ATOM      7  C   UNL     1      -2.825  13.053  20.242  0.00  0.00    +0.000 A 
ATOM      8  C   UNL     1      -1.321  12.880  20.051  0.00  0.00    +0.000 C 
ATOM      9  C   UNL     1      -0.777  14.209  19.489  0.00  0.00    +0.000 C 
ATOM     10  C   UNL     1       0.742  14.258  19.451  0.00  0.00    +0.000 C 
ATOM     11  N   UNL     1       1.340  14.052  20.760  0.00  0.00    +0.000 N 
ATOM     12  C   UNL     1       2.552  14.660  21.197  0.00  0.00    +0.000 C 
ATOM     13  O   UNL     1       2.925  14.481  22.359  0.00  0.00    +0.000 OA
ATOM     14  C   UNL     1       0.883  12.859  21.479  0.00  0.00    +0.000 C 
ATOM     15  C   UNL     1      -0.626  12.580  21.401  0.00  0.00    +0.000 C 
ATOM     16  C   UNL     1      -1.254  11.738  18.942  0.00  0.00    +0.000 C 
ENDROOT
BRANCH  12  17
ATOM     17  C   UNL     1       3.341  15.523  20.293  0.00  0.00    +0.000 A 
ATOM     18  S   UNL     1       4.549  14.858  19.251  0.00  0.00    +0.000 S 
ATOM     19  C   UNL     1       4.822  16.348  18.479  0.00  0.00    +0.000 A 
ATOM     20  C   UNL     1       4.229  17.378  19.166  0.00  0.00    +0.000 A 
ATOM     21  C   UNL     1       3.427  16.921  20.269  0.00  0.00    +0.000 A 
ATOM     22  C   UNL     1       2.765  17.875  21.214  0.00  0.00    +0.000 C 
ENDBRANCH  12  17
BRANCH   1  25
ATOM     23  C   UNL     1      -2.877  10.493  16.235  0.00  0.00    +0.000 C 
ATOM     24  O   UNL     1      -2.431   9.388  16.522  0.00  0.00    +0.000 OA
ATOM     25  N   UNL     1      -3.021  11.518  17.148  0.00  0.00    +0.000 N 
ATOM     26  H   UNL     1      -3.555  12.334  16.880  0.00  0.00    +0.000 HD
BRANCH  23  28
ATOM     27  C   UNL     1      -2.930   9.810  13.806  0.00  0.00    +0.000 C 
ATOM     28  C   UNL     1      -3.286  10.880  14.825  0.00  0.00    +0.000 C 
ENDBRANCH  23  28
ENDBRANCH   1  25
BRANCH  16  29
ATOM     29  O   UNL     1      -0.501  10.577  19.355  0.00  0.00    +0.000 OA
BRANCH  29  30
ATOM     30  C   UNL     1       0.714  10.440  18.594  0.00  0.00    +0.000 C 
BRANCH  30  31
ATOM     31  C   UNL     1       1.393   9.119  18.813  0.00  0.00    +0.000 A 
ATOM     32  C   UNL     1       2.197   8.564  17.811  0.00  0.00    +0.000 A 
ATOM     33  C   UNL     1       2.859   7.361  18.041  0.00  0.00    +0.000 A 
ATOM     34  C   UNL     1       2.705   6.762  19.277  0.00  0.00    +0.000 A 
ATOM     35  N   UNL     1       1.952   7.272  20.273  0.00  0.00    +0.000 NA
ATOM     36  C   UNL     1       1.311   8.441  20.019  0.00  0.00    +0.000 A 
ENDBRANCH  30  31
ENDBRANCH  29  30
ENDBRANCH  16  29
TORSDOF 6
ENDMDL
MODEL 2
REMARK VINA RESULT:      -6.8      3.670      7.977
REMARK  Name = 
REMARK  8 active torsions:
REMARK  status: ('A' for Active; 'I' for Inactive)
REMARK    1  A    between atoms: C_1  and  C_2
REMARK    2  A    between atoms: C_2  and  C_3
REMARK    3  A    between atoms: N_5  and  C_6
REMARK    4  A    between atoms: C_17  and  C_19
REMARK    5  A    between atoms: C_23  and  C_24
REMARK    6  A    between atoms: C_27  and  O_28
REMARK    7  A    between atoms: O_28  and  C_29
REMARK    8  A    between atoms: C_29  and  C_30
REMARK                            x       y       z     vdW  Elec       q    Type
REMARK                         _______ _______ _______ _____ _____    ______ ____
ROOT
ATOM      1  C   UNL     1       1.829  13.393  19.742  0.00  0.00    +0.000 C 
ATOM      2  C   UNL     1       1.542  12.047  19.173  0.00  0.00    +0.000 A 
ATOM      3  C   UNL     1       2.328  11.376  18.239  0.00  0.00    +0.000 A 
ATOM      4  C   UNL     1       1.944  10.103  17.829  0.00  0.00    +0.000 A 
ATOM      5  C   UNL     1       0.790   9.517  18.355  0.00  0.00    +0.000 A 
ATOM      6  C   UNL     1       0.013  10.195  19.299  0.00  0.00    +0.000 A 
ATOM      7  C   UNL     1       0.402  11.466  19.719  0.00  0.00    +0.000 A 
ATOM      8  C   UNL     1      -0.305  12.370  20.724  0.00  0.00    +0.000 C 
ATOM      9  C   UNL     1      -1.681  12.728  20.126  0.00  0.00    +0.000 C 
ATOM     10  C   UNL     1      -2.584  13.449  21.114  0.00  0.00    +0.000 C 
ATOM     11  N   UNL     1      -2.813  12.679  22.326  0.00  0.00    +0.000 N 
ATOM     12  C   UNL     1      -4.022  12.704  23.079  0.00  0.00    +0.000 C 
ATOM     13  O   UNL     1      -4.138  11.947  24.047  0.00  0.00    +0.000 OA
ATOM     14  C   UNL     1      -1.606  12.192  22.999  0.00  0.00    +0.000 C 
ATOM     15  C   UNL     1      -0.513  11.637  22.071  0.00  0.00    +0.000 C 
ATOM     16  C   UNL     1       0.643  13.651  20.745  0.00  0.00    +0.000 C 
ENDROOT
BRANCH  12  17
ATOM     17  C   UNL     1      -5.141  13.592  22.698  0.00  0.00    +0.000 A 
ATOM     18  S   UNL     1      -5.601  14.927  23.694  0.00  0.00    +0.000 S 
ATOM     19  C   UNL     1      -6.728  15.496  22.555  0.00  0.00    +0.000 A 
ATOM     20  C   UNL     1      -6.958  14.561  21.577  0.00  0.00    +0.000 A 
ATOM     21  C   UNL     1      -6.096  13.414  21.691  0.00  0.00    +0.000 A 
ATOM     22  C   UNL     1      -6.237  12.228  20.787  0.00  0.00    +0.000 C 
ENDBRANCH  12  17
BRANCH   1  25
ATOM     23  C   UNL     1       2.823  15.439  18.737  0.00  0.00    +0.000 C 
ATOM     24  O   UNL     1       3.581  15.630  19.681  0.00  0.00    +0.000 OA
ATOM     25  N   UNL     1       1.909  14.406  18.692  0.00  0.00    +0.000 N 
ATOM     26  H   UNL     1       1.446  14.207  17.814  0.00  0.00    +0.000 HD
BRANCH  23  28
ATOM     27  C   UNL     1       1.757  17.464  17.675  0.00  0.00    +0.000 C 
ATOM     28  C   UNL     1       2.772  16.343  17.518  0.00  0.00    +0.000 C 
ENDBRANCH  23  28
ENDBRANCH   1  25
BRANCH  16  29
ATOM     29  O   UNL     1       1.148  13.972  22.059  0.00  0.00    +0.000 OA
BRANCH  29  30
ATOM     30  C   UNL     1       1.182  15.395  22.277  0.00  0.00    +0.000 C 
BRANCH  30  31
ATOM     31  C   UNL     1      -0.172  15.972  22.573  0.00  0.00    +0.000 A 
ATOM     32  C   UNL     1      -0.863  15.595  23.731  0.00  0.00    +0.000 A 
ATOM     33  C   UNL     1      -2.097  16.171  24.020  0.00  0.00    +0.000 A 
ATOM     34  C   UNL     1      -2.590  17.120  23.144  0.00  0.00    +0.000 A 
ATOM     35  N   UNL     1      -1.951  17.520  22.027  0.00  0.00    +0.000 NA
ATOM     36  C   UNL     1      -0.753  16.937  21.765  0.00  0.00    +0.000 A 
ENDBRANCH  30  31
ENDBRANCH  29  30
ENDBRANCH  16  29
TORSDOF 6
ENDMDL
MODEL 3
REMARK VINA RESULT:      -6.8      0.948      1.202
REMARK  Name = 
REMARK  8 active torsions:
REMARK  status: ('A' for Active; 'I' for Inactive)
REMARK    1  A    between atoms: C_1  and  C_2
REMARK    2  A    between atoms: C_2  and  C_3
REMARK    3  A    between atoms: N_5  and  C_6
REMARK    4  A    between atoms: C_17  and  C_19
REMARK    5  A    between atoms: C_23  and  C_24
REMARK    6  A    between atoms: C_27  and  O_28
REMARK    7  A    between atoms: O_28  and  C_29
REMARK    8  A    between atoms: C_29  and  C_30
REMARK                            x       y       z     vdW  Elec       q    Type
REMARK                         _______ _______ _______ _____ _____    ______ ____
ROOT
ATOM      1  C   UNL     1      -1.888  10.869  18.132  0.00  0.00    +0.000 C 
ATOM      2  C   UNL     1      -2.826  11.750  18.880  0.00  0.00    +0.000 A 
ATOM      3  C   UNL     1      -4.216  11.711  18.798  0.00  0.00    +0.000 A 
ATOM      4  C   UNL     1      -4.960  12.579  19.591  0.00  0.00    +0.000 A 
ATOM      5  C   UNL     1      -4.313  13.468  20.453  0.00  0.00    +0.000 A 
ATOM      6  C   UNL     1      -2.918  13.492  20.536  0.00  0.00    +0.000 A 
ATOM      7  C   UNL     1      -2.171  12.616  19.750  0.00  0.00    +0.000 A 
ATOM      8  C   UNL     1      -0.652  12.490  19.684  0.00  0.00    +0.000 C 
ATOM      9  C   UNL     1      -0.108  13.825  19.135  0.00  0.00    +0.000 C 
ATOM     10  C   UNL     1       1.407  13.923  19.219  0.00  0.00    +0.000 C 
ATOM     11  N   UNL     1       1.903  13.766  20.576  0.00  0.00    +0.000 N 
ATOM     12  C   UNL     1       3.056  14.425  21.093  0.00  0.00    +0.000 C 
ATOM     13  O   UNL     1       3.339  14.283  22.286  0.00  0.00    +0.000 OA
ATOM     14  C   UNL     1       1.429  12.575  21.285  0.00  0.00    +0.000 C 
ATOM     15  C   UNL     1      -0.060  12.243  21.093  0.00  0.00    +0.000 C 
ATOM     16  C   UNL     1      -0.459  11.327  18.612  0.00  0.00    +0.000 C 
ENDROOT
BRANCH  12  17
ATOM     17  C   UNL     1       3.888  15.294  20.235  0.00  0.00    +0.000 A 
ATOM     18  S   UNL     1       5.552  14.932  19.942  0.00  0.00    +0.000 S 
ATOM     19  C   UNL     1       5.713  16.190  18.809  0.00  0.00    +0.000 A 
ATOM     20  C   UNL     1       4.632  17.035  18.851  0.00  0.00    +0.000 A 
ATOM     21  C   UNL     1       3.595  16.568  19.733  0.00  0.00    +0.000 A 
ATOM     22  C   UNL     1       2.367  17.379  20.006  0.00  0.00    +0.000 C 
ENDBRANCH  12  17
BRANCH   1  25
ATOM     23  C   UNL     1      -2.827  10.120  15.955  0.00  0.00    +0.000 C 
ATOM     24  O   UNL     1      -3.345   9.117  16.433  0.00  0.00    +0.000 OA
ATOM     25  N   UNL     1      -2.067  11.008  16.689  0.00  0.00    +0.000 N 
ATOM     26  H   UNL     1      -1.824  11.897  16.271  0.00  0.00    +0.000 HD
BRANCH  23  28
ATOM     27  C   UNL     1      -4.070   9.763  13.788  0.00  0.00    +0.000 C 
ATOM     28  C   UNL     1      -2.927  10.484  14.484  0.00  0.00    +0.000 C 
ENDBRANCH  23  28
ENDBRANCH   1  25
BRANCH  16  29
ATOM     29  O   UNL     1       0.295  10.202  19.113  0.00  0.00    +0.000 OA
BRANCH  29  30
ATOM     30  C   UNL     1       1.384   9.865  18.233  0.00  0.00    +0.000 C 
BRANCH  30  31
ATOM     31  C   UNL     1       2.031   8.555  18.581  0.00  0.00    +0.000 A 
ATOM     32  C   UNL     1       1.735   7.921  19.792  0.00  0.00    +0.000 A 
ATOM     33  C   UNL     1       2.305   6.685  20.085  0.00  0.00    +0.000 A 
ATOM     34  C   UNL     1       3.143   6.119  19.143  0.00  0.00    +0.000 A 
ATOM     35  N   UNL     1       3.442   6.690  17.960  0.00  0.00    +0.000 NA
ATOM     36  C   UNL     1       2.880   7.899  17.703  0.00  0.00    +0.000 A 
ENDBRANCH  30  31
ENDBRANCH  29  30
ENDBRANCH  16  29
TORSDOF 6
ENDMDL
MODEL 4
REMARK VINA RESULT:      -6.8      2.579      5.315
REMARK  Name = 
REMARK  8 active torsions:
REMARK  status: ('A' for Active; 'I' for Inactive)
REMARK    1  A    between atoms: C_1  and  C_2
REMARK    2  A    between atoms: C_2  and  C_3
REMARK    3  A    between atoms: N_5  and  C_6
REMARK    4  A    between atoms: C_17  and  C_19
REMARK    5  A    between atoms: C_23  and  C_24
REMARK    6  A    between atoms: C_27  and  O_28
REMARK    7  A    between atoms: O_28  and  C_29
REMARK    8  A    between atoms: C_29  and  C_30
REMARK                            x       y       z     vdW  Elec       q    Type
REMARK                         _______ _______ _______ _____ _____    ______ ____
ROOT
ATOM      1  C   UNL     1      -0.264  10.188  20.288  0.00  0.00    +0.000 C 
ATOM      2  C   UNL     1      -1.034  10.509  19.055  0.00  0.00    +0.000 A 
ATOM      3  C   UNL     1      -1.851   9.625  18.355  0.00  0.00    +0.000 A 
ATOM      4  C   UNL     1      -2.537  10.088  17.236  0.00  0.00    +0.000 A 
ATOM      5  C   UNL     1      -2.403  11.418  16.833  0.00  0.00    +0.000 A 
ATOM      6  C   UNL     1      -1.588  12.301  17.549  0.00  0.00    +0.000 A 
ATOM      7  C   UNL     1      -0.908  11.842  18.676  0.00  0.00    +0.000 A 
ATOM      8  C   UNL     1       0.030  12.633  19.582  0.00  0.00    +0.000 C 
ATOM      9  C   UNL     1       1.244  13.052  18.727  0.00  0.00    +0.000 C 
ATOM     10  C   UNL     1       2.160  14.032  19.442  0.00  0.00    +0.000 C 
ATOM     11  N   UNL     1       1.469  15.242  19.856  0.00  0.00    +0.000 N 
ATOM     12  C   UNL     1       2.070  16.533  19.910  0.00  0.00    +0.000 C 
ATOM     13  O   UNL     1       1.367  17.507  20.196  0.00  0.00    +0.000 OA
ATOM     14  C   UNL     1       0.242  15.033  20.628  0.00  0.00    +0.000 C 
ATOM     15  C   UNL     1      -0.670  13.902  20.123  0.00  0.00    +0.000 C 
ATOM     16  C   UNL     1       0.458  11.538  20.658  0.00  0.00    +0.000 C 
ENDROOT
BRANCH  12  17
ATOM     17  C   UNL     1       3.502  16.723  19.597  0.00  0.00    +0.000 A 
ATOM     18  S   UNL     1       4.588  17.399  20.759  0.00  0.00    +0.000 S 
ATOM     19  C   UNL     1       5.946  17.118  19.775  0.00  0.00    +0.000 A 
ATOM     20  C   UNL     1       5.572  16.783  18.498  0.00  0.00    +0.000 A 
ATOM     21  C   UNL     1       4.149  16.624  18.360  0.00  0.00    +0.000 A 
ATOM     22  C   UNL     1       3.510  16.353  17.033  0.00  0.00    +0.000 C 
ENDBRANCH  12  17
BRANCH   1  25
ATOM     23  C   UNL     1       1.202   8.346  21.090  0.00  0.00    +0.000 C 
ATOM     24  O   UNL     1       0.987   8.583  22.273  0.00  0.00    +0.000 OA
ATOM     25  N   UNL     1       0.676   9.093  20.055  0.00  0.00    +0.000 N 
ATOM     26  H   UNL     1       0.752   8.735  19.112  0.00  0.00    +0.000 HD
BRANCH  23  28
ATOM     27  C   UNL     1       2.379   7.286  19.126  0.00  0.00    +0.000 C 
ATOM     28  C   UNL     1       2.111   7.224  20.621  0.00  0.00    +0.000 C 
ENDBRANCH  23  28
ENDBRANCH   1  25
BRANCH  16  29
ATOM     29  O   UNL     1       0.160  11.919  22.018  0.00  0.00    +0.000 OA
BRANCH  29  30
ATOM     30  C   UNL     1      -1.114  11.399  22.442  0.00  0.00    +0.000 C 
BRANCH  30  31
ATOM     31  C   UNL     1      -1.935  12.408  23.193  0.00  0.00    +0.000 A 
ATOM     32  C   UNL     1      -3.242  12.101  23.588  0.00  0.00    +0.000 A 
ATOM     33  C   UNL     1      -3.979  13.026  24.324  0.00  0.00    +0.000 A 
ATOM     34  C   UNL     1      -3.372  14.224  24.652  0.00  0.00    +0.000 A 
ATOM     35  N   UNL     1      -2.112  14.551  24.302  0.00  0.00    +0.000 NA
ATOM     36  C   UNL     1      -1.419  13.635  23.578  0.00  0.00    +0.000 A 
ENDBRANCH  30  31
ENDBRANCH  29  30
ENDBRANCH  16  29
TORSDOF 6
ENDMDL
MODEL 5
REMARK VINA RESULT:      -6.7      3.589      7.751
REMARK  Name = 
REMARK  8 active torsions:
REMARK  status: ('A' for Active; 'I' for Inactive)
REMARK    1  A    between atoms: C_1  and  C_2
REMARK    2  A    between atoms: C_2  and  C_3
REMARK    3  A    between atoms: N_5  and  C_6
REMARK    4  A    between atoms: C_17  and  C_19
REMARK    5  A    between atoms: C_23  and  C_24
REMARK    6  A    between atoms: C_27  and  O_28
REMARK    7  A    between atoms: O_28  and  C_29
REMARK    8  A    between atoms: C_29  and  C_30
REMARK                            x       y       z     vdW  Elec       q    Type
REMARK                         _______ _______ _______ _____ _____    ______ ____
ROOT
ATOM      1  C   UNL     1       1.867  13.328  19.749  0.00  0.00    +0.000 C 
ATOM      2  C   UNL     1       1.553  11.992  19.173  0.00  0.00    +0.000 A 
ATOM      3  C   UNL     1       2.329  11.306  18.242  0.00  0.00    +0.000 A 
ATOM      4  C   UNL     1       1.918  10.044  17.825  0.00  0.00    +0.000 A 
ATOM      5  C   UNL     1       0.747   9.483  18.341  0.00  0.00    +0.000 A 
ATOM      6  C   UNL     1      -0.020  10.175  19.283  0.00  0.00    +0.000 A 
ATOM      7  C   UNL     1       0.396  11.434  19.710  0.00  0.00    +0.000 A 
ATOM      8  C   UNL     1      -0.296  12.351  20.714  0.00  0.00    +0.000 C 
ATOM      9  C   UNL     1      -1.660  12.743  20.110  0.00  0.00    +0.000 C 
ATOM     10  C   UNL     1      -2.552  13.480  21.095  0.00  0.00    +0.000 C 
ATOM     11  N   UNL     1      -2.806  12.712  22.302  0.00  0.00    +0.000 N 
ATOM     12  C   UNL     1      -4.019  12.762  23.048  0.00  0.00    +0.000 C 
ATOM     13  O   UNL     1      -4.159  12.003  24.012  0.00  0.00    +0.000 OA
ATOM     14  C   UNL     1      -1.615  12.194  22.980  0.00  0.00    +0.000 C 
ATOM     15  C   UNL     1      -0.529  11.618  22.057  0.00  0.00    +0.000 C 
ATOM     16  C   UNL     1       0.681  13.610  20.747  0.00  0.00    +0.000 C 
ENDROOT
BRANCH  12  17
ATOM     17  C   UNL     1      -5.115  13.677  22.664  0.00  0.00    +0.000 A 
ATOM     18  S   UNL     1      -5.414  15.132  23.546  0.00  0.00    +0.000 S 
ATOM     19  C   UNL     1      -6.600  15.654  22.445  0.00  0.00    +0.000 A 
ATOM     20  C   UNL     1      -6.963  14.642  21.592  0.00  0.00    +0.000 A 
ATOM     21  C   UNL     1      -6.160  13.460  21.758  0.00  0.00    +0.000 A 
ATOM     22  C   UNL     1      -6.442  12.200  20.999  0.00  0.00    +0.000 C 
ENDBRANCH  12  17
BRANCH   1  25
ATOM     23  C   UNL     1       3.171  14.969  18.412  0.00  0.00    +0.000 C 
ATOM     24  O   UNL     1       4.205  14.782  19.043  0.00  0.00    +0.000 OA
ATOM     25  N   UNL     1       1.977  14.343  18.704  0.00  0.00    +0.000 N 
ATOM     26  H   UNL     1       1.219  14.411  18.037  0.00  0.00    +0.000 HD
BRANCH  23  28
ATOM     27  C   UNL     1       2.228  17.163  17.598  0.00  0.00    +0.000 C 
ATOM     28  C   UNL     1       3.072  15.946  17.254  0.00  0.00    +0.000 C 
ENDBRANCH  23  28
ENDBRANCH   1  25
BRANCH  16  29
ATOM     29  O   UNL     1       1.185  13.914  22.065  0.00  0.00    +0.000 OA
BRANCH  29  30
ATOM     30  C   UNL     1       1.145  15.328  22.330  0.00  0.00    +0.000 C 
BRANCH  30  31
ATOM     31  C   UNL     1       2.436  16.021  21.999  0.00  0.00    +0.000 A 
ATOM     32  C   UNL     1       2.428  17.229  21.295  0.00  0.00    +0.000 A 
ATOM     33  C   UNL     1       3.628  17.887  21.033  0.00  0.00    +0.000 A 
ATOM     34  C   UNL     1       4.795  17.315  21.502  0.00  0.00    +0.000 A 
ATOM     35  N   UNL     1       4.844  16.161  22.196  0.00  0.00    +0.000 NA
ATOM     36  C   UNL     1       3.661  15.536  22.430  0.00  0.00    +0.000 A 
ENDBRANCH  30  31
ENDBRANCH  29  30
ENDBRANCH  16  29
TORSDOF 6
ENDMDL
MODEL 6
REMARK VINA RESULT:      -6.6      1.868      2.459
REMARK  Name = 
REMARK  8 active torsions:
REMARK  status: ('A' for Active; 'I' for Inactive)
REMARK    1  A    between atoms: C_1  and  C_2
REMARK    2  A    between atoms: C_2  and  C_3
REMARK    3  A    between atoms: N_5  and  C_6
REMARK    4  A    between atoms: C_17  and  C_19
REMARK    5  A    between atoms: C_23  and  C_24
REMARK    6  A    between atoms: C_27  and  O_28
REMARK    7  A    between atoms: O_28  and  C_29
REMARK    8  A    between atoms: C_29  and  C_30
REMARK                            x       y       z     vdW  Elec       q    Type
REMARK                         _______ _______ _______ _____ _____    ______ ____
ROOT
ATOM      1  C   UNL     1      -4.362  12.630  20.282  0.00  0.00    +0.000 C 
ATOM      2  C   UNL     1      -4.548  13.546  21.440  0.00  0.00    +0.000 A 
ATOM      3  C   UNL     1      -5.764  13.851  22.047  0.00  0.00    +0.000 A 
ATOM      4  C   UNL     1      -5.770  14.701  23.148  0.00  0.00    +0.000 A 
ATOM      5  C   UNL     1      -4.571  15.231  23.630  0.00  0.00    +0.000 A 
ATOM      6  C   UNL     1      -3.355  14.911  23.020  0.00  0.00    +0.000 A 
ATOM      7  C   UNL     1      -3.345  14.052  21.923  0.00  0.00    +0.000 A 
ATOM      8  C   UNL     1      -2.137  13.589  21.115  0.00  0.00    +0.000 C 
ATOM      9  C   UNL     1      -1.531  14.838  20.444  0.00  0.00    +0.000 C 
ATOM     10  C   UNL     1      -0.192  14.561  19.780  0.00  0.00    +0.000 C 
ATOM     11  N   UNL     1       0.794  14.035  20.709  0.00  0.00    +0.000 N 
ATOM     12  C   UNL     1       2.193  14.293  20.631  0.00  0.00    +0.000 C 
ATOM     13  O   UNL     1       2.930  13.864  21.523  0.00  0.00    +0.000 OA
ATOM     14  C   UNL     1       0.362  12.875  21.494  0.00  0.00    +0.000 C 
ATOM     15  C   UNL     1      -1.074  12.944  22.037  0.00  0.00    +0.000 C 
ATOM     16  C   UNL     1      -2.808  12.640  20.025  0.00  0.00    +0.000 C 
ENDROOT
BRANCH  12  17
ATOM     17  C   UNL     1       2.760  15.092  19.524  0.00  0.00    +0.000 A 
ATOM     18  S   UNL     1       3.720  14.353  18.291  0.00  0.00    +0.000 S 
ATOM     19  C   UNL     1       3.808  15.789  17.383  0.00  0.00    +0.000 A 
ATOM     20  C   UNL     1       3.368  16.864  18.114  0.00  0.00    +0.000 A 
ATOM     21  C   UNL     1       2.827  16.484  19.392  0.00  0.00    +0.000 A 
ATOM     22  C   UNL     1       2.376  17.502  20.393  0.00  0.00    +0.000 C 
ENDBRANCH  12  17
BRANCH   1  25
ATOM     23  C   UNL     1      -5.563  12.208  18.146  0.00  0.00    +0.000 C 
ATOM     24  O   UNL     1      -5.287  11.013  18.134  0.00  0.00    +0.000 OA
ATOM     25  N   UNL     1      -5.126  13.081  19.121  0.00  0.00    +0.000 N 
ATOM     26  H   UNL     1      -5.536  14.005  19.161  0.00  0.00    +0.000 HD
BRANCH  23  28
ATOM     27  C   UNL     1      -6.798  14.292  17.440  0.00  0.00    +0.000 C 
ATOM     28  C   UNL     1      -6.387  12.878  17.061  0.00  0.00    +0.000 C 
ENDBRANCH  23  28
ENDBRANCH   1  25
BRANCH  16  29
ATOM     29  O   UNL     1      -2.282  11.295  20.030  0.00  0.00    +0.000 OA
BRANCH  29  30
ATOM     30  C   UNL     1      -1.523  11.022  18.837  0.00  0.00    +0.000 C 
BRANCH  30  31
ATOM     31  C   UNL     1      -0.365  10.098  19.081  0.00  0.00    +0.000 A 
ATOM     32  C   UNL     1       0.523   9.791  18.045  0.00  0.00    +0.000 A 
ATOM     33  C   UNL     1       1.620   8.969  18.293  0.00  0.00    +0.000 A 
ATOM     34  C   UNL     1       1.798   8.497  19.580  0.00  0.00    +0.000 A 
ATOM     35  N   UNL     1       0.973   8.781  20.608  0.00  0.00    +0.000 NA
ATOM     36  C   UNL     1      -0.093   9.576  20.336  0.00  0.00    +0.000 A 
ENDBRANCH  30  31
ENDBRANCH  29  30
ENDBRANCH  16  29
TORSDOF 6
ENDMDL
MODEL 7
REMARK VINA RESULT:      -6.6      0.880      1.418
REMARK  Name = 
REMARK  8 active torsions:
REMARK  status: ('A' for Active; 'I' for Inactive)
REMARK    1  A    between atoms: C_1  and  C_2
REMARK    2  A    between atoms: C_2  and  C_3
REMARK    3  A    between atoms: N_5  and  C_6
REMARK    4  A    between atoms: C_17  and  C_19
REMARK    5  A    between atoms: C_23  and  C_24
REMARK    6  A    between atoms: C_27  and  O_28
REMARK    7  A    between atoms: O_28  and  C_29
REMARK    8  A    between atoms: C_29  and  C_30
REMARK                            x       y       z     vdW  Elec       q    Type
REMARK                         _______ _______ _______ _____ _____    ______ ____
ROOT
ATOM      1  C   UNL     1      -3.012  11.499  18.710  0.00  0.00    +0.000 C 
ATOM      2  C   UNL     1      -3.790  12.440  19.561  0.00  0.00    +0.000 A 
ATOM      3  C   UNL     1      -5.179  12.512  19.630  0.00  0.00    +0.000 A 
ATOM      4  C   UNL     1      -5.762  13.424  20.505  0.00  0.00    +0.000 A 
ATOM      5  C   UNL     1      -4.957  14.248  21.296  0.00  0.00    +0.000 A 
ATOM      6  C   UNL     1      -3.563  14.161  21.226  0.00  0.00    +0.000 A 
ATOM      7  C   UNL     1      -2.978  13.240  20.358  0.00  0.00    +0.000 A 
ATOM      8  C   UNL     1      -1.490  12.997  20.126  0.00  0.00    +0.000 C 
ATOM      9  C   UNL     1      -0.904  14.292  19.528  0.00  0.00    +0.000 C 
ATOM     10  C   UNL     1       0.614  14.271  19.446  0.00  0.00    +0.000 C 
ATOM     11  N   UNL     1       1.240  14.056  20.740  0.00  0.00    +0.000 N 
ATOM     12  C   UNL     1       2.491  14.615  21.132  0.00  0.00    +0.000 C 
ATOM     13  O   UNL     1       2.890  14.436  22.286  0.00  0.00    +0.000 OA
ATOM     14  C   UNL     1       0.752  12.896  21.490  0.00  0.00    +0.000 C 
ATOM     15  C   UNL     1      -0.770  12.684  21.460  0.00  0.00    +0.000 C 
ATOM     16  C   UNL     1      -1.507  11.837  19.034  0.00  0.00    +0.000 C 
ENDROOT
BRANCH  12  17
ATOM     17  C   UNL     1       3.291  15.429  20.192  0.00  0.00    +0.000 A 
ATOM     18  S   UNL     1       3.348  17.151  20.326  0.00  0.00    +0.000 S 
ATOM     19  C   UNL     1       4.529  17.289  19.110  0.00  0.00    +0.000 A 
ATOM     20  C   UNL     1       4.677  16.108  18.427  0.00  0.00    +0.000 A 
ATOM     21  C   UNL     1       3.905  15.036  18.997  0.00  0.00    +0.000 A 
ATOM     22  C   UNL     1       3.840  13.683  18.358  0.00  0.00    +0.000 C 
ENDBRANCH  12  17
BRANCH   1  25
ATOM     23  C   UNL     1      -3.330  10.615  16.408  0.00  0.00    +0.000 C 
ATOM     24  O   UNL     1      -2.989   9.478  16.711  0.00  0.00    +0.000 OA
ATOM     25  N   UNL     1      -3.335  11.672  17.295  0.00  0.00    +0.000 N 
ATOM     26  H   UNL     1      -3.794  12.532  17.022  0.00  0.00    +0.000 HD
BRANCH  23  28
ATOM     27  C   UNL     1      -3.193  10.063  13.949  0.00  0.00    +0.000 C 
ATOM     28  C   UNL     1      -3.751  11.007  15.003  0.00  0.00    +0.000 C 
ENDBRANCH  23  28
ENDBRANCH   1  25
BRANCH  16  29
ATOM     29  O   UNL     1      -0.795  10.650  19.443  0.00  0.00    +0.000 OA
BRANCH  29  30
ATOM     30  C   UNL     1       0.468  10.533  18.761  0.00  0.00    +0.000 C 
BRANCH  30  31
ATOM     31  C   UNL     1       1.195   9.262  19.095  0.00  0.00    +0.000 A 
ATOM     32  C   UNL     1       1.116   8.720  20.382  0.00  0.00    +0.000 A 
ATOM     33  C   UNL     1       1.757   7.517  20.669  0.00  0.00    +0.000 A 
ATOM     34  C   UNL     1       2.443   6.889  19.646  0.00  0.00    +0.000 A 
ATOM     35  N   UNL     1       2.531   7.371  18.390  0.00  0.00    +0.000 NA
ATOM     36  C   UNL     1       1.905   8.550  18.141  0.00  0.00    +0.000 A 
ENDBRANCH  30  31
ENDBRANCH  29  30
ENDBRANCH  16  29
TORSDOF 6
ENDMDL
MODEL 8
REMARK VINA RESULT:      -6.5      3.269      6.408
REMARK  Name = 
REMARK  8 active torsions:
REMARK  status: ('A' for Active; 'I' for Inactive)
REMARK    1  A    between atoms: C_1  and  C_2
REMARK    2  A    between atoms: C_2  and  C_3
REMARK    3  A    between atoms: N_5  and  C_6
REMARK    4  A    between atoms: C_17  and  C_19
REMARK    5  A    between atoms: C_23  and  C_24
REMARK    6  A    between atoms: C_27  and  O_28
REMARK    7  A    between atoms: O_28  and  C_29
REMARK    8  A    between atoms: C_29  and  C_30
REMARK                            x       y       z     vdW  Elec       q    Type
REMARK                         _______ _______ _______ _____ _____    ______ ____
ROOT
ATOM      1  C   UNL     1      -0.853  11.140  19.285  0.00  0.00    +0.000 C 
ATOM      2  C   UNL     1      -0.605  10.509  20.610  0.00  0.00    +0.000 A 
ATOM      3  C   UNL     1      -0.011   9.266  20.819  0.00  0.00    +0.000 A 
ATOM      4  C   UNL     1       0.187   8.828  22.125  0.00  0.00    +0.000 A 
ATOM      5  C   UNL     1      -0.205   9.630  23.199  0.00  0.00    +0.000 A 
ATOM      6  C   UNL     1      -0.792  10.880  22.979  0.00  0.00    +0.000 A 
ATOM      7  C   UNL     1      -0.980  11.325  21.672  0.00  0.00    +0.000 A 
ATOM      8  C   UNL     1      -1.605  12.642  21.219  0.00  0.00    +0.000 C 
ATOM      9  C   UNL     1      -3.076  12.631  21.681  0.00  0.00    +0.000 C 
ATOM     10  C   UNL     1      -3.766  13.972  21.489  0.00  0.00    +0.000 C 
ATOM     11  N   UNL     1      -3.089  15.053  22.187  0.00  0.00    +0.000 N 
ATOM     12  C   UNL     1      -3.749  16.178  22.760  0.00  0.00    +0.000 C 
ATOM     13  O   UNL     1      -3.084  16.996  23.403  0.00  0.00    +0.000 OA
ATOM     14  C   UNL     1      -1.654  15.173  21.919  0.00  0.00    +0.000 C 
ATOM     15  C   UNL     1      -0.880  13.845  21.867  0.00  0.00    +0.000 C 
ATOM     16  C   UNL     1      -1.519  12.524  19.632  0.00  0.00    +0.000 C 
ENDROOT
BRANCH  12  17
ATOM     17  C   UNL     1      -5.210  16.358  22.624  0.00  0.00    +0.000 A 
ATOM     18  S   UNL     1      -6.301  15.731  23.807  0.00  0.00    +0.000 S 
ATOM     19  C   UNL     1      -7.648  16.467  23.077  0.00  0.00    +0.000 A 
ATOM     20  C   UNL     1      -7.336  16.940  21.826  0.00  0.00    +0.000 A 
ATOM     21  C   UNL     1      -5.937  16.814  21.518  0.00  0.00    +0.000 A 
ATOM     22  C   UNL     1      -5.389  17.178  20.172  0.00  0.00    +0.000 C 
ENDBRANCH  12  17
BRANCH   1  25
ATOM     23  C   UNL     1      -2.144  10.704  17.204  0.00  0.00    +0.000 C 
ATOM     24  O   UNL     1      -1.917  11.814  16.736  0.00  0.00    +0.000 OA
ATOM     25  N   UNL     1      -1.708  10.299  18.449  0.00  0.00    +0.000 N 
ATOM     26  H   UNL     1      -1.780   9.319  18.692  0.00  0.00    +0.000 HD
BRANCH  23  28
ATOM     27  C   UNL     1      -3.205  10.006  15.024  0.00  0.00    +0.000 C 
ATOM     28  C   UNL     1      -2.972   9.655  16.485  0.00  0.00    +0.000 C 
ENDBRANCH  23  28
ENDBRANCH   1  25
BRANCH  16  29
ATOM     29  O   UNL     1      -0.794  13.608  19.013  0.00  0.00    +0.000 OA
BRANCH  29  30
ATOM     30  C   UNL     1       0.511  13.185  18.575  0.00  0.00    +0.000 C 
BRANCH  30  31
ATOM     31  C   UNL     1       1.516  14.301  18.574  0.00  0.00    +0.000 A 
ATOM     32  C   UNL     1       1.136  15.594  18.950  0.00  0.00    +0.000 A 
ATOM     33  C   UNL     1       2.086  16.611  18.990  0.00  0.00    +0.000 A 
ATOM     34  C   UNL     1       3.391  16.292  18.666  0.00  0.00    +0.000 A 
ATOM     35  N   UNL     1       3.800  15.057  18.313  0.00  0.00    +0.000 NA
ATOM     36  C   UNL     1       2.852  14.086  18.274  0.00  0.00    +0.000 A 
ENDBRANCH  30  31
ENDBRANCH  29  30
ENDBRANCH  16  29
TORSDOF 6
ENDMDL
MODEL 9
REMARK VINA RESULT:      -6.5      3.855      8.338
REMARK  Name = 
REMARK  8 active torsions:
REMARK  status: ('A' for Active; 'I' for Inactive)
REMARK    1  A    between atoms: C_1  and  C_2
REMARK    2  A    between atoms: C_2  and  C_3
REMARK    3  A    between atoms: N_5  and  C_6
REMARK    4  A    between atoms: C_17  and  C_19
REMARK    5  A    between atoms: C_23  and  C_24
REMARK    6  A    between atoms: C_27  and  O_28
REMARK    7  A    between atoms: O_28  and  C_29
REMARK    8  A    between atoms: C_29  and  C_30
REMARK                            x       y       z     vdW  Elec       q    Type
REMARK                         _______ _______ _______ _____ _____    ______ ____
ROOT
ATOM      1  C   UNL     1       1.050  13.724  20.292  0.00  0.00    +0.000 C 
ATOM      2  C   UNL     1       0.860  12.366  19.713  0.00  0.00    +0.000 A 
ATOM      3  C   UNL     1       1.717  11.741  18.811  0.00  0.00    +0.000 A 
ATOM      4  C   UNL     1       1.420  10.449  18.387  0.00  0.00    +0.000 A 
ATOM      5  C   UNL     1       0.281   9.799  18.868  0.00  0.00    +0.000 A 
ATOM      6  C   UNL     1      -0.568  10.431  19.781  0.00  0.00    +0.000 A 
ATOM      7  C   UNL     1      -0.267  11.721  20.215  0.00  0.00    +0.000 A 
ATOM      8  C   UNL     1      -1.061  12.583  21.191  0.00  0.00    +0.000 C 
ATOM      9  C   UNL     1      -2.430  12.865  20.541  0.00  0.00    +0.000 C 
ATOM     10  C   UNL     1      -3.410  13.533  21.493  0.00  0.00    +0.000 C 
ATOM     11  N   UNL     1      -3.642  12.750  22.695  0.00  0.00    +0.000 N 
ATOM     12  C   UNL     1      -4.879  12.706  23.401  0.00  0.00    +0.000 C 
ATOM     13  O   UNL     1      -4.991  11.942  24.363  0.00  0.00    +0.000 OA
ATOM     14  C   UNL     1      -2.437  12.330  23.414  0.00  0.00    +0.000 C 
ATOM     15  C   UNL     1      -1.280  11.837  22.530  0.00  0.00    +0.000 C 
ATOM     16  C   UNL     1      -0.187  13.915  21.249  0.00  0.00    +0.000 C 
ENDROOT
BRANCH  12  17
ATOM     17  C   UNL     1      -6.030  13.532  22.976  0.00  0.00    +0.000 A 
ATOM     18  S   UNL     1      -6.461  14.970  23.831  0.00  0.00    +0.000 S 
ATOM     19  C   UNL     1      -7.653  15.389  22.693  0.00  0.00    +0.000 A 
ATOM     20  C   UNL     1      -7.916  14.343  21.844  0.00  0.00    +0.000 A 
ATOM     21  C   UNL     1      -7.032  13.226  22.047  0.00  0.00    +0.000 A 
ATOM     22  C   UNL     1      -7.198  11.941  21.297  0.00  0.00    +0.000 C 
ENDBRANCH  12  17
BRANCH   1  25
ATOM     23  C   UNL     1       1.892  15.875  19.371  0.00  0.00    +0.000 C 
ATOM     24  O   UNL     1       2.525  16.152  20.383  0.00  0.00    +0.000 OA
ATOM     25  N   UNL     1       1.113  14.742  19.246  0.00  0.00    +0.000 N 
ATOM     26  H   UNL     1       0.767  14.492  18.329  0.00  0.00    +0.000 HD
BRANCH  23  28
ATOM     27  C   UNL     1       3.138  16.686  17.332  0.00  0.00    +0.000 C 
ATOM     28  C   UNL     1       1.856  16.769  18.145  0.00  0.00    +0.000 C 
ENDBRANCH  23  28
ENDBRANCH   1  25
BRANCH  16  29
ATOM     29  O   UNL     1       0.248  14.261  22.581  0.00  0.00    +0.000 OA
BRANCH  29  30
ATOM     30  C   UNL     1       0.204  15.684  22.796  0.00  0.00    +0.000 C 
BRANCH  30  31
ATOM     31  C   UNL     1      -1.194  16.233  22.783  0.00  0.00    +0.000 A 
ATOM     32  C   UNL     1      -2.007  16.120  23.916  0.00  0.00    +0.000 A 
ATOM     33  C   UNL     1      -3.285  16.673  23.910  0.00  0.00    +0.000 A 
ATOM     34  C   UNL     1      -3.699  17.335  22.770  0.00  0.00    +0.000 A 
ATOM     35  N   UNL     1      -2.941  17.478  21.664  0.00  0.00    +0.000 NA
ATOM     36  C   UNL     1      -1.703  16.922  21.694  0.00  0.00    +0.000 A 
ENDBRANCH  30  31
ENDBRANCH  29  30
ENDBRANCH  16  29
TORSDOF 6
ENDMDL
