MODEL 1
REMARK VINA RESULT:      -7.4      0.000      0.000
REMARK  Name = 
REMARK  11 active torsions:
REMARK  status: ('A' for Active; 'I' for Inactive)
REMARK    1  A    between atoms: C_1  and  C_2
REMARK    2  A    between atoms: C_2  and  C_4
REMARK    3  A    between atoms: C_7  and  O_8
REMARK    4  A    between atoms: O_8  and  C_9
REMARK    5  A    between atoms: C_9  and  C_10
REMARK    6  A    between atoms: C_10  and  C_11
REMARK    7  A    between atoms: C_10  and  C_12
REMARK    8  A    between atoms: C_13  and  C_14
REMARK    9  A    between atoms: C_14  and  C_15
REMARK   10  A    between atoms: C_15  and  C_16
REMARK   11  A    between atoms: C_15  and  C_19
REMARK                            x       y       z     vdW  Elec       q    Type
REMARK                         _______ _______ _______ _____ _____    ______ ____
ROOT
ATOM      1  C   UNL     1       2.190   8.134  18.677  0.00  0.00    +0.000 A 
ATOM      2  C   UNL     1       1.799   7.399  19.787  0.00  0.00    +0.000 A 
ATOM      3  C   UNL     1       2.393   6.165  20.043  0.00  0.00    +0.000 A 
ATOM      4  C   UNL     1       3.381   5.623  19.198  0.00  0.00    +0.000 A 
ATOM      5  C   UNL     1       3.849   6.391  18.119  0.00  0.00    +0.000 A 
ATOM      6  C   UNL     1       3.207   7.631  17.857  0.00  0.00    +0.000 A 
ENDROOT
BRANCH   1   8
ATOM      7  C   UNL     1       0.309   9.853  19.068  0.00  0.00    +0.000 C 
ATOM      8  C   UNL     1       1.588   9.463  18.369  0.00  0.00    +0.000 C 
ATOM      9  O   UNL     1       2.138  10.220  17.572  0.00  0.00    +0.000 OA
ENDBRANCH   1   8
BRANCH   4  10
ATOM     10  O   UNL     1       3.892   4.359  19.406  0.00  0.00    +0.000 OA
BRANCH  10  11
ATOM     11  C   UNL     1       3.011   3.474  20.117  0.00  0.00    +0.000 C 
BRANCH  11  12
ATOM     12  C   UNL     1       2.393   2.402  19.211  0.00  0.00    +0.000 C 
ATOM     13  C   UNL     1       1.129   2.901  18.519  0.00  0.00    +0.000 C 
ATOM     14  C   UNL     1       3.431   1.967  18.171  0.00  0.00    +0.000 C 
ENDBRANCH  11  12
ENDBRANCH  10  11
ENDBRANCH   4  10
BRANCH   5  15
ATOM     15  C   UNL     1       5.069   6.113  17.249  0.00  0.00    +0.000 C 
BRANCH  15  16
ATOM     16  C   UNL     1       6.419   5.719  17.853  0.00  0.00    +0.000 C 
BRANCH  16  17
ATOM     17  C   UNL     1       7.022   4.534  17.134  0.00  0.00    +0.000 C 
ATOM     18  N   UNL     1       6.140   3.762  16.435  0.00  0.00    +0.000 N 
ATOM     19  O   UNL     1       8.203   4.209  17.220  0.00  0.00    +0.000 OA
ATOM     20  H   UNL     1       5.192   4.063  16.252  0.00  0.00    +0.000 HD
ATOM     21  H   UNL     1       6.513   2.983  15.908  0.00  0.00    +0.000 HD
ENDBRANCH  16  17
BRANCH  16  22
ATOM     22  C   UNL     1       7.372   6.904  17.793  0.00  0.00    +0.000 C 
ATOM     23  N   UNL     1       8.274   7.042  18.811  0.00  0.00    +0.000 N 
ATOM     24  O   UNL     1       7.359   7.714  16.871  0.00  0.00    +0.000 OA
ATOM     25  H   UNL     1       8.136   6.586  19.703  0.00  0.00    +0.000 HD
ATOM     26  H   UNL     1       8.844   7.884  18.801  0.00  0.00    +0.000 HD
ENDBRANCH  16  22
ENDBRANCH  15  16
ENDBRANCH   5  15
TORSDOF 8
ENDMDL
MODEL 2
REMARK VINA RESULT:      -7.3      2.471      6.032
REMARK  Name = 
REMARK  11 active torsions:
REMARK  status: ('A' for Active; 'I' for Inactive)
REMARK    1  A    between atoms: C_1  and  C_2
REMARK    2  A    between atoms: C_2  and  C_4
REMARK    3  A    between atoms: C_7  and  O_8
REMARK    4  A    between atoms: O_8  and  C_9
REMARK    5  A    between atoms: C_9  and  C_10
REMARK    6  A    between atoms: C_10  and  C_11
REMARK    7  A    between atoms: C_10  and  C_12
REMARK    8  A    between atoms: C_13  and  C_14
REMARK    9  A    between atoms: C_14  and  C_15
REMARK   10  A    between atoms: C_15  and  C_16
REMARK   11  A    between atoms: C_15  and  C_19
REMARK                            x       y       z     vdW  Elec       q    Type
REMARK                         _______ _______ _______ _____ _____    ______ ____
ROOT
ATOM      1  C   UNL     1       5.526   5.198  16.381  0.00  0.00    +0.000 A 
ATOM      2  C   UNL     1       5.401   6.578  16.448  0.00  0.00    +0.000 A 
ATOM      3  C   UNL     1       4.330   7.141  17.140  0.00  0.00    +0.000 A 
ATOM      4  C   UNL     1       3.351   6.351  17.772  0.00  0.00    +0.000 A 
ATOM      5  C   UNL     1       3.509   4.955  17.785  0.00  0.00    +0.000 A 
ATOM      6  C   UNL     1       4.589   4.400  17.047  0.00  0.00    +0.000 A 
ENDROOT
BRANCH   1   8
ATOM      7  C   UNL     1       6.413   4.002  14.277  0.00  0.00    +0.000 C 
ATOM      8  C   UNL     1       6.660   4.551  15.659  0.00  0.00    +0.000 C 
ATOM      9  O   UNL     1       7.769   4.487  16.184  0.00  0.00    +0.000 OA
ENDBRANCH   1   8
BRANCH   4  10
ATOM     10  O   UNL     1       2.244   6.916  18.369  0.00  0.00    +0.000 OA
BRANCH  10  11
ATOM     11  C   UNL     1       2.034   8.299  18.037  0.00  0.00    +0.000 C 
BRANCH  11  12
ATOM     12  C   UNL     1       1.579   9.133  19.241  0.00  0.00    +0.000 C 
ATOM     13  C   UNL     1       0.287   9.891  18.953  0.00  0.00    +0.000 C 
ATOM     14  C   UNL     1       1.394   8.209  20.449  0.00  0.00    +0.000 C 
ENDBRANCH  11  12
ENDBRANCH  10  11
ENDBRANCH   4  10
BRANCH   5  15
ATOM     15  C   UNL     1       2.724   3.946  18.614  0.00  0.00    +0.000 C 
BRANCH  15  16
ATOM     16  C   UNL     1       3.223   3.453  19.974  0.00  0.00    +0.000 C 
BRANCH  16  17
ATOM     17  C   UNL     1       2.075   3.143  20.906  0.00  0.00    +0.000 C 
ATOM     18  N   UNL     1       0.829   3.317  20.380  0.00  0.00    +0.000 N 
ATOM     19  O   UNL     1       2.215   2.835  22.087  0.00  0.00    +0.000 OA
ATOM     20  H   UNL     1       0.680   3.457  19.389  0.00  0.00    +0.000 HD
ATOM     21  H   UNL     1       0.035   3.080  20.961  0.00  0.00    +0.000 HD
ENDBRANCH  16  17
BRANCH  16  22
ATOM     22  C   UNL     1       4.088   2.216  19.784  0.00  0.00    +0.000 C 
ATOM     23  N   UNL     1       3.804   1.403  18.722  0.00  0.00    +0.000 N 
ATOM     24  O   UNL     1       5.019   1.940  20.535  0.00  0.00    +0.000 OA
ATOM     25  H   UNL     1       2.903   1.430  18.263  0.00  0.00    +0.000 HD
ATOM     26  H   UNL     1       4.333   0.538  18.658  0.00  0.00    +0.000 HD
ENDBRANCH  16  22
ENDBRANCH  15  16
ENDBRANCH   5  15
TORSDOF 8
ENDMDL
MODEL 3
REMARK VINA RESULT:      -7.2      2.472      6.025
REMARK  Name = 
REMARK  11 active torsions:
REMARK  status: ('A' for Active; 'I' for Inactive)
REMARK    1  A    between atoms: C_1  and  C_2
REMARK    2  A    between atoms: C_2  and  C_4
REMARK    3  A    between atoms: C_7  and  O_8
REMARK    4  A    between atoms: O_8  and  C_9
REMARK    5  A    between atoms: C_9  and  C_10
REMARK    6  A    between atoms: C_10  and  C_11
REMARK    7  A    between atoms: C_10  and  C_12
REMARK    8  A    between atoms: C_13  and  C_14
REMARK    9  A    between atoms: C_14  and  C_15
REMARK   10  A    between atoms: C_15  and  C_16
REMARK   11  A    between atoms: C_15  and  C_19
REMARK                            x       y       z     vdW  Elec       q    Type
REMARK                         _______ _______ _______ _____ _____    ______ ____
ROOT
ATOM      1  C   UNL     1       5.723   5.354  16.482  0.00  0.00    +0.000 A 
ATOM      2  C   UNL     1       5.687   6.687  16.865  0.00  0.00    +0.000 A 
ATOM      3  C   UNL     1       4.551   7.194  17.495  0.00  0.00    +0.000 A 
ATOM      4  C   UNL     1       3.420   6.395  17.748  0.00  0.00    +0.000 A 
ATOM      5  C   UNL     1       3.472   5.025  17.443  0.00  0.00    +0.000 A 
ATOM      6  C   UNL     1       4.625   4.536  16.773  0.00  0.00    +0.000 A 
ENDROOT
BRANCH   1   8
ATOM      7  C   UNL     1       6.891   4.588  14.315  0.00  0.00    +0.000 C 
ATOM      8  C   UNL     1       6.919   4.767  15.812  0.00  0.00    +0.000 C 
ATOM      9  O   UNL     1       7.905   4.454  16.475  0.00  0.00    +0.000 OA
ENDBRANCH   1   8
BRANCH   4  10
ATOM     10  O   UNL     1       2.266   6.930  18.283  0.00  0.00    +0.000 OA
BRANCH  10  11
ATOM     11  C   UNL     1       2.303   7.113  19.708  0.00  0.00    +0.000 C 
BRANCH  11  12
ATOM     12  C   UNL     1       1.773   8.485  20.141  0.00  0.00    +0.000 C 
ATOM     13  C   UNL     1       1.260   9.297  18.956  0.00  0.00    +0.000 C 
ATOM     14  C   UNL     1       0.657   8.288  21.172  0.00  0.00    +0.000 C 
ENDBRANCH  11  12
ENDBRANCH  10  11
ENDBRANCH   4  10
BRANCH   5  15
ATOM     15  C   UNL     1       2.479   3.948  17.863  0.00  0.00    +0.000 C 
BRANCH  15  16
ATOM     16  C   UNL     1       2.503   3.328  19.262  0.00  0.00    +0.000 C 
BRANCH  16  17
ATOM     17  C   UNL     1       1.152   2.763  19.639  0.00  0.00    +0.000 C 
ATOM     18  N   UNL     1       0.820   2.870  20.958  0.00  0.00    +0.000 N 
ATOM     19  O   UNL     1       0.417   2.166  18.857  0.00  0.00    +0.000 OA
ATOM     20  H   UNL     1       1.345   3.450  21.598  0.00  0.00    +0.000 HD
ATOM     21  H   UNL     1      -0.094   2.540  21.241  0.00  0.00    +0.000 HD
ENDBRANCH  16  17
BRANCH  16  22
ATOM     22  C   UNL     1       3.559   2.234  19.318  0.00  0.00    +0.000 C 
ATOM     23  N   UNL     1       3.365   1.127  18.539  0.00  0.00    +0.000 N 
ATOM     24  O   UNL     1       4.562   2.321  20.020  0.00  0.00    +0.000 OA
ATOM     25  H   UNL     1       2.449   0.888  18.180  0.00  0.00    +0.000 HD
ATOM     26  H   UNL     1       4.033   0.369  18.652  0.00  0.00    +0.000 HD
ENDBRANCH  16  22
ENDBRANCH  15  16
ENDBRANCH   5  15
TORSDOF 8
ENDMDL
MODEL 4
REMARK VINA RESULT:      -7.2      2.540      4.817
REMARK  Name = 
REMARK  11 active torsions:
REMARK  status: ('A' for Active; 'I' for Inactive)
REMARK    1  A    between atoms: C_1  and  C_2
REMARK    2  A    between atoms: C_2  and  C_4
REMARK    3  A    between atoms: C_7  and  O_8
REMARK    4  A    between atoms: O_8  and  C_9
REMARK    5  A    between atoms: C_9  and  C_10
REMARK    6  A    between atoms: C_10  and  C_11
REMARK    7  A    between atoms: C_10  and  C_12
REMARK    8  A    between atoms: C_13  and  C_14
REMARK    9  A    between atoms: C_14  and  C_15
REMARK   10  A    between atoms: C_15  and  C_16
REMARK   11  A    between atoms: C_15  and  C_19
REMARK                            x       y       z     vdW  Elec       q    Type
REMARK                         _______ _______ _______ _____ _____    ______ ____
ROOT
ATOM      1  C   UNL     1       2.479   7.699  18.479  0.00  0.00    +0.000 A 
ATOM      2  C   UNL     1       3.476   7.983  17.557  0.00  0.00    +0.000 A 
ATOM      3  C   UNL     1       4.320   6.964  17.119  0.00  0.00    +0.000 A 
ATOM      4  C   UNL     1       4.204   5.643  17.592  0.00  0.00    +0.000 A 
ATOM      5  C   UNL     1       3.147   5.322  18.460  0.00  0.00    +0.000 A 
ATOM      6  C   UNL     1       2.319   6.380  18.920  0.00  0.00    +0.000 A 
ENDROOT
BRANCH   1   8
ATOM      7  C   UNL     1       0.950   9.712  17.969  0.00  0.00    +0.000 C 
ATOM      8  C   UNL     1       1.547   8.756  18.971  0.00  0.00    +0.000 C 
ATOM      9  O   UNL     1       1.269   8.825  20.166  0.00  0.00    +0.000 OA
ENDBRANCH   1   8
BRANCH   4  10
ATOM     10  O   UNL     1       5.104   4.665  17.225  0.00  0.00    +0.000 OA
BRANCH  10  11
ATOM     11  C   UNL     1       4.873   4.104  15.922  0.00  0.00    +0.000 C 
BRANCH  11  12
ATOM     12  C   UNL     1       6.170   3.878  15.137  0.00  0.00    +0.000 C 
ATOM     13  C   UNL     1       5.931   3.873  13.631  0.00  0.00    +0.000 C 
ATOM     14  C   UNL     1       7.178   4.971  15.510  0.00  0.00    +0.000 C 
ENDBRANCH  11  12
ENDBRANCH  10  11
ENDBRANCH   4  10
BRANCH   5  15
ATOM     15  C   UNL     1       2.689   3.931  18.881  0.00  0.00    +0.000 C 
BRANCH  15  16
ATOM     16  C   UNL     1       3.173   3.279  20.178  0.00  0.00    +0.000 C 
BRANCH  16  17
ATOM     17  C   UNL     1       2.015   2.767  21.005  0.00  0.00    +0.000 C 
ATOM     18  N   UNL     1       0.779   2.942  20.455  0.00  0.00    +0.000 N 
ATOM     19  O   UNL     1       2.134   2.300  22.135  0.00  0.00    +0.000 OA
ATOM     20  H   UNL     1       0.656   3.215  19.489  0.00  0.00    +0.000 HD
ATOM     21  H   UNL     1      -0.016   2.576  20.961  0.00  0.00    +0.000 HD
ENDBRANCH  16  17
BRANCH  16  22
ATOM     22  C   UNL     1       4.124   2.137  19.853  0.00  0.00    +0.000 C 
ATOM     23  N   UNL     1       3.926   1.464  18.680  0.00  0.00    +0.000 N 
ATOM     24  O   UNL     1       5.050   1.818  20.594  0.00  0.00    +0.000 OA
ATOM     25  H   UNL     1       3.039   1.498  18.195  0.00  0.00    +0.000 HD
ATOM     26  H   UNL     1       4.515   0.651  18.517  0.00  0.00    +0.000 HD
ENDBRANCH  16  22
ENDBRANCH  15  16
ENDBRANCH   5  15
TORSDOF 8
ENDMDL
MODEL 5
REMARK VINA RESULT:      -7.1      2.618      6.111
REMARK  Name = 
REMARK  11 active torsions:
REMARK  status: ('A' for Active; 'I' for Inactive)
REMARK    1  A    between atoms: C_1  and  C_2
REMARK    2  A    between atoms: C_2  and  C_4
REMARK    3  A    between atoms: C_7  and  O_8
REMARK    4  A    between atoms: O_8  and  C_9
REMARK    5  A    between atoms: C_9  and  C_10
REMARK    6  A    between atoms: C_10  and  C_11
REMARK    7  A    between atoms: C_10  and  C_12
REMARK    8  A    between atoms: C_13  and  C_14
REMARK    9  A    between atoms: C_14  and  C_15
REMARK   10  A    between atoms: C_15  and  C_16
REMARK   11  A    between atoms: C_15  and  C_19
REMARK                            x       y       z     vdW  Elec       q    Type
REMARK                         _______ _______ _______ _____ _____    ______ ____
ROOT
ATOM      1  C   UNL     1       5.559   5.200  16.601  0.00  0.00    +0.000 A 
ATOM      2  C   UNL     1       5.117   6.474  16.275  0.00  0.00    +0.000 A 
ATOM      3  C   UNL     1       4.093   7.060  17.017  0.00  0.00    +0.000 A 
ATOM      4  C   UNL     1       3.474   6.393  18.092  0.00  0.00    +0.000 A 
ATOM      5  C   UNL     1       3.966   5.138  18.487  0.00  0.00    +0.000 A 
ATOM      6  C   UNL     1       4.988   4.545  17.698  0.00  0.00    +0.000 A 
ENDROOT
BRANCH   1   8
ATOM      7  C   UNL     1       6.349   3.973  14.475  0.00  0.00    +0.000 C 
ATOM      8  C   UNL     1       6.657   4.536  15.840  0.00  0.00    +0.000 C 
ATOM      9  O   UNL     1       7.787   4.470  16.319  0.00  0.00    +0.000 OA
ENDBRANCH   1   8
BRANCH   4  10
ATOM     10  O   UNL     1       2.398   6.942  18.756  0.00  0.00    +0.000 OA
BRANCH  10  11
ATOM     11  C   UNL     1       2.084   8.289  18.364  0.00  0.00    +0.000 C 
BRANCH  11  12
ATOM     12  C   UNL     1       1.540   9.131  19.525  0.00  0.00    +0.000 C 
ATOM     13  C   UNL     1       0.239   9.837  19.155  0.00  0.00    +0.000 C 
ATOM     14  C   UNL     1       1.325   8.225  20.741  0.00  0.00    +0.000 C 
ENDBRANCH  11  12
ENDBRANCH  10  11
ENDBRANCH   4  10
BRANCH   5  15
ATOM     15  C   UNL     1       3.622   4.371  19.758  0.00  0.00    +0.000 C 
BRANCH  15  16
ATOM     16  C   UNL     1       2.247   3.733  19.970  0.00  0.00    +0.000 C 
BRANCH  16  17
ATOM     17  C   UNL     1       1.831   2.908  18.774  0.00  0.00    +0.000 C 
ATOM     18  N   UNL     1       2.384   1.664  18.698  0.00  0.00    +0.000 N 
ATOM     19  O   UNL     1       1.113   3.327  17.869  0.00  0.00    +0.000 OA
ATOM     20  H   UNL     1       2.883   1.250  19.475  0.00  0.00    +0.000 HD
ATOM     21  H   UNL     1       2.098   1.067  17.933  0.00  0.00    +0.000 HD
ENDBRANCH  16  17
BRANCH  16  22
ATOM     22  C   UNL     1       2.274   2.863  21.218  0.00  0.00    +0.000 C 
ATOM     23  N   UNL     1       1.098   2.690  21.893  0.00  0.00    +0.000 N 
ATOM     24  O   UNL     1       3.298   2.318  21.620  0.00  0.00    +0.000 OA
ATOM     25  H   UNL     1       0.321   3.327  21.772  0.00  0.00    +0.000 HD
ATOM     26  H   UNL     1       1.149   2.178  22.770  0.00  0.00    +0.000 HD
ENDBRANCH  16  22
ENDBRANCH  15  16
ENDBRANCH   5  15
TORSDOF 8
ENDMDL
MODEL 6
REMARK VINA RESULT:      -7.1      1.401      2.076
REMARK  Name = 
REMARK  11 active torsions:
REMARK  status: ('A' for Active; 'I' for Inactive)
REMARK    1  A    between atoms: C_1  and  C_2
REMARK    2  A    between atoms: C_2  and  C_4
REMARK    3  A    between atoms: C_7  and  O_8
REMARK    4  A    between atoms: O_8  and  C_9
REMARK    5  A    between atoms: C_9  and  C_10
REMARK    6  A    between atoms: C_10  and  C_11
REMARK    7  A    between atoms: C_10  and  C_12
REMARK    8  A    between atoms: C_13  and  C_14
REMARK    9  A    between atoms: C_14  and  C_15
REMARK   10  A    between atoms: C_15  and  C_16
REMARK   11  A    between atoms: C_15  and  C_19
REMARK                            x       y       z     vdW  Elec       q    Type
REMARK                         _______ _______ _______ _____ _____    ______ ____
ROOT
ATOM      1  C   UNL     1       2.214   7.228  19.471  0.00  0.00    +0.000 A 
ATOM      2  C   UNL     1       1.639   6.540  20.529  0.00  0.00    +0.000 A 
ATOM      3  C   UNL     1       2.080   5.255  20.838  0.00  0.00    +0.000 A 
ATOM      4  C   UNL     1       3.093   4.615  20.097  0.00  0.00    +0.000 A 
ATOM      5  C   UNL     1       3.743   5.329  19.077  0.00  0.00    +0.000 A 
ATOM      6  C   UNL     1       3.256   6.625  18.758  0.00  0.00    +0.000 A 
ENDROOT
BRANCH   1   8
ATOM      7  C   UNL     1       2.045   9.103  17.709  0.00  0.00    +0.000 C 
ATOM      8  C   UNL     1       1.779   8.609  19.109  0.00  0.00    +0.000 C 
ATOM      9  O   UNL     1       1.205   9.312  19.937  0.00  0.00    +0.000 OA
ENDBRANCH   1   8
BRANCH   4  10
ATOM     10  O   UNL     1       3.453   3.308  20.349  0.00  0.00    +0.000 OA
BRANCH  10  11
ATOM     11  C   UNL     1       2.343   2.416  20.551  0.00  0.00    +0.000 C 
BRANCH  11  12
ATOM     12  C   UNL     1       1.833   1.803  19.242  0.00  0.00    +0.000 C 
ATOM     13  C   UNL     1       0.650   2.580  18.672  0.00  0.00    +0.000 C 
ATOM     14  C   UNL     1       2.980   1.763  18.227  0.00  0.00    +0.000 C 
ENDBRANCH  11  12
ENDBRANCH  10  11
ENDBRANCH   4  10
BRANCH   5  15
ATOM     15  C   UNL     1       5.014   4.930  18.338  0.00  0.00    +0.000 C 
BRANCH  15  16
ATOM     16  C   UNL     1       6.094   5.952  17.977  0.00  0.00    +0.000 C 
BRANCH  16  17
ATOM     17  C   UNL     1       7.194   5.984  19.014  0.00  0.00    +0.000 C 
ATOM     18  N   UNL     1       8.218   6.848  18.756  0.00  0.00    +0.000 N 
ATOM     19  O   UNL     1       7.238   5.238  19.988  0.00  0.00    +0.000 OA
ATOM     20  H   UNL     1       8.157   7.550  18.031  0.00  0.00    +0.000 HD
ATOM     21  H   UNL     1       8.952   6.927  19.447  0.00  0.00    +0.000 HD
ENDBRANCH  16  17
BRANCH  16  22
ATOM     22  C   UNL     1       6.676   5.620  16.611  0.00  0.00    +0.000 C 
ATOM     23  N   UNL     1       6.073   6.172  15.515  0.00  0.00    +0.000 N 
ATOM     24  O   UNL     1       7.657   4.895  16.470  0.00  0.00    +0.000 OA
ATOM     25  H   UNL     1       5.126   6.527  15.557  0.00  0.00    +0.000 HD
ATOM     26  H   UNL     1       6.418   5.874  14.607  0.00  0.00    +0.000 HD
ENDBRANCH  16  22
ENDBRANCH  15  16
ENDBRANCH   5  15
TORSDOF 8
ENDMDL
MODEL 7
REMARK VINA RESULT:      -7.1      1.511      2.204
REMARK  Name = 
REMARK  11 active torsions:
REMARK  status: ('A' for Active; 'I' for Inactive)
REMARK    1  A    between atoms: C_1  and  C_2
REMARK    2  A    between atoms: C_2  and  C_4
REMARK    3  A    between atoms: C_7  and  O_8
REMARK    4  A    between atoms: O_8  and  C_9
REMARK    5  A    between atoms: C_9  and  C_10
REMARK    6  A    between atoms: C_10  and  C_11
REMARK    7  A    between atoms: C_10  and  C_12
REMARK    8  A    between atoms: C_13  and  C_14
REMARK    9  A    between atoms: C_14  and  C_15
REMARK   10  A    between atoms: C_15  and  C_16
REMARK   11  A    between atoms: C_15  and  C_19
REMARK                            x       y       z     vdW  Elec       q    Type
REMARK                         _______ _______ _______ _____ _____    ______ ____
ROOT
ATOM      1  C   UNL     1       2.458   7.533  18.644  0.00  0.00    +0.000 A 
ATOM      2  C   UNL     1       2.189   7.020  19.905  0.00  0.00    +0.000 A 
ATOM      3  C   UNL     1       2.681   5.766  20.259  0.00  0.00    +0.000 A 
ATOM      4  C   UNL     1       3.440   4.983  19.368  0.00  0.00    +0.000 A 
ATOM      5  C   UNL     1       3.793   5.523  18.119  0.00  0.00    +0.000 A 
ATOM      6  C   UNL     1       3.254   6.789  17.766  0.00  0.00    +0.000 A 
ENDROOT
BRANCH   1   8
ATOM      7  C   UNL     1       1.032   9.620  19.152  0.00  0.00    +0.000 C 
ATOM      8  C   UNL     1       1.959   8.875  18.224  0.00  0.00    +0.000 C 
ATOM      9  O   UNL     1       2.314   9.357  17.152  0.00  0.00    +0.000 OA
ENDBRANCH   1   8
BRANCH   4  10
ATOM     10  O   UNL     1       3.839   3.704  19.693  0.00  0.00    +0.000 OA
BRANCH  10  11
ATOM     11  C   UNL     1       3.101   2.666  19.026  0.00  0.00    +0.000 C 
BRANCH  11  12
ATOM     12  C   UNL     1       1.896   2.179  19.841  0.00  0.00    +0.000 C 
ATOM     13  C   UNL     1       2.032   2.528  21.320  0.00  0.00    +0.000 C 
ATOM     14  C   UNL     1       0.619   2.799  19.265  0.00  0.00    +0.000 C 
ENDBRANCH  11  12
ENDBRANCH  10  11
ENDBRANCH   4  10
BRANCH   5  15
ATOM     15  C   UNL     1       4.804   4.965  17.125  0.00  0.00    +0.000 C 
BRANCH  15  16
ATOM     16  C   UNL     1       5.717   5.877  16.303  0.00  0.00    +0.000 C 
BRANCH  16  17
ATOM     17  C   UNL     1       6.941   6.289  17.089  0.00  0.00    +0.000 C 
ATOM     18  N   UNL     1       7.164   7.632  17.163  0.00  0.00    +0.000 N 
ATOM     19  O   UNL     1       7.746   5.495  17.567  0.00  0.00    +0.000 OA
ATOM     20  H   UNL     1       6.467   8.308  16.881  0.00  0.00    +0.000 HD
ATOM     21  H   UNL     1       7.951   7.948  17.715  0.00  0.00    +0.000 HD
ENDBRANCH  16  17
BRANCH  16  22
ATOM     22  C   UNL     1       6.134   5.164  15.025  0.00  0.00    +0.000 C 
ATOM     23  N   UNL     1       7.430   5.310  14.614  0.00  0.00    +0.000 N 
ATOM     24  O   UNL     1       5.359   4.471  14.373  0.00  0.00    +0.000 OA
ATOM     25  H   UNL     1       8.005   6.074  14.944  0.00  0.00    +0.000 HD
ATOM     26  H   UNL     1       7.671   4.900  13.716  0.00  0.00    +0.000 HD
ENDBRANCH  16  22
ENDBRANCH  15  16
ENDBRANCH   5  15
TORSDOF 8
ENDMDL
MODEL 8
REMARK VINA RESULT:      -7.1      2.507      6.057
REMARK  Name = 
REMARK  11 active torsions:
REMARK  status: ('A' for Active; 'I' for Inactive)
REMARK    1  A    between atoms: C_1  and  C_2
REMARK    2  A    between atoms: C_2  and  C_4
REMARK    3  A    between atoms: C_7  and  O_8
REMARK    4  A    between atoms: O_8  and  C_9
REMARK    5  A    between atoms: C_9  and  C_10
REMARK    6  A    between atoms: C_10  and  C_11
REMARK    7  A    between atoms: C_10  and  C_12
REMARK    8  A    between atoms: C_13  and  C_14
REMARK    9  A    between atoms: C_14  and  C_15
REMARK   10  A    between atoms: C_15  and  C_16
REMARK   11  A    between atoms: C_15  and  C_19
REMARK                            x       y       z     vdW  Elec       q    Type
REMARK                         _______ _______ _______ _____ _____    ______ ____
ROOT
ATOM      1  C   UNL     1       5.668   5.379  15.882  0.00  0.00    +0.000 A 
ATOM      2  C   UNL     1       5.835   6.622  16.474  0.00  0.00    +0.000 A 
ATOM      3  C   UNL     1       4.908   7.069  17.414  0.00  0.00    +0.000 A 
ATOM      4  C   UNL     1       3.787   6.299  17.781  0.00  0.00    +0.000 A 
ATOM      5  C   UNL     1       3.649   5.004  17.254  0.00  0.00    +0.000 A 
ATOM      6  C   UNL     1       4.587   4.582  16.274  0.00  0.00    +0.000 A 
ENDROOT
BRANCH   1   8
ATOM      7  C   UNL     1       6.170   3.805  13.903  0.00  0.00    +0.000 C 
ATOM      8  C   UNL     1       6.639   4.857  14.877  0.00  0.00    +0.000 C 
ATOM      9  O   UNL     1       7.787   5.293  14.843  0.00  0.00    +0.000 OA
ENDBRANCH   1   8
BRANCH   4  10
ATOM     10  O   UNL     1       2.825   6.791  18.638  0.00  0.00    +0.000 OA
BRANCH  10  11
ATOM     11  C   UNL     1       2.399   8.132  18.344  0.00  0.00    +0.000 C 
BRANCH  11  12
ATOM     12  C   UNL     1       1.260   8.604  19.255  0.00  0.00    +0.000 C 
ATOM     13  C   UNL     1       1.514   8.247  20.716  0.00  0.00    +0.000 C 
ATOM     14  C   UNL     1       1.090  10.118  19.100  0.00  0.00    +0.000 C 
ENDBRANCH  11  12
ENDBRANCH  10  11
ENDBRANCH   4  10
BRANCH   5  15
ATOM     15  C   UNL     1       2.673   3.924  17.704  0.00  0.00    +0.000 C 
BRANCH  15  16
ATOM     16  C   UNL     1       2.699   3.352  19.123  0.00  0.00    +0.000 C 
BRANCH  16  17
ATOM     17  C   UNL     1       1.359   2.767  19.508  0.00  0.00    +0.000 C 
ATOM     18  N   UNL     1       1.011   2.911  20.819  0.00  0.00    +0.000 N 
ATOM     19  O   UNL     1       0.646   2.126  18.741  0.00  0.00    +0.000 OA
ATOM     20  H   UNL     1       1.517   3.525  21.444  0.00  0.00    +0.000 HD
ATOM     21  H   UNL     1       0.104   2.568  21.106  0.00  0.00    +0.000 HD
ENDBRANCH  16  17
BRANCH  16  22
ATOM     22  C   UNL     1       3.780   2.287  19.226  0.00  0.00    +0.000 C 
ATOM     23  N   UNL     1       3.680   1.202  18.400  0.00  0.00    +0.000 N 
ATOM     24  O   UNL     1       4.725   2.378  20.005  0.00  0.00    +0.000 OA
ATOM     25  H   UNL     1       2.802   0.950  17.965  0.00  0.00    +0.000 HD
ATOM     26  H   UNL     1       4.360   0.460  18.540  0.00  0.00    +0.000 HD
ENDBRANCH  16  22
ENDBRANCH  15  16
ENDBRANCH   5  15
TORSDOF 8
ENDMDL
MODEL 9
REMARK VINA RESULT:      -7.1      2.482      5.995
REMARK  Name = 
REMARK  11 active torsions:
REMARK  status: ('A' for Active; 'I' for Inactive)
REMARK    1  A    between atoms: C_1  and  C_2
REMARK    2  A    between atoms: C_2  and  C_4
REMARK    3  A    between atoms: C_7  and  O_8
REMARK    4  A    between atoms: O_8  and  C_9
REMARK    5  A    between atoms: C_9  and  C_10
REMARK    6  A    between atoms: C_10  and  C_11
REMARK    7  A    between atoms: C_10  and  C_12
REMARK    8  A    between atoms: C_13  and  C_14
REMARK    9  A    between atoms: C_14  and  C_15
REMARK   10  A    between atoms: C_15  and  C_16
REMARK   11  A    between atoms: C_15  and  C_19
REMARK                            x       y       z     vdW  Elec       q    Type
REMARK                         _______ _______ _______ _____ _____    ______ ____
ROOT
ATOM      1  C   UNL     1       5.646   5.283  16.608  0.00  0.00    +0.000 A 
ATOM      2  C   UNL     1       5.250   6.571  16.279  0.00  0.00    +0.000 A 
ATOM      3  C   UNL     1       4.235   7.189  17.007  0.00  0.00    +0.000 A 
ATOM      4  C   UNL     1       3.580   6.540  18.072  0.00  0.00    +0.000 A 
ATOM      5  C   UNL     1       4.026   5.270  18.472  0.00  0.00    +0.000 A 
ATOM      6  C   UNL     1       5.039   4.646  17.696  0.00  0.00    +0.000 A 
ENDROOT
BRANCH   1   8
ATOM      7  C   UNL     1       6.432   4.054  14.483  0.00  0.00    +0.000 C 
ATOM      8  C   UNL     1       6.733   4.586  15.862  0.00  0.00    +0.000 C 
ATOM      9  O   UNL     1       7.848   4.468  16.364  0.00  0.00    +0.000 OA
ENDBRANCH   1   8
BRANCH   4  10
ATOM     10  O   UNL     1       2.512   7.123  18.722  0.00  0.00    +0.000 OA
BRANCH  10  11
ATOM     11  C   UNL     1       1.905   8.212  18.006  0.00  0.00    +0.000 C 
BRANCH  11  12
ATOM     12  C   UNL     1       1.441   9.342  18.933  0.00  0.00    +0.000 C 
ATOM     13  C   UNL     1       0.188  10.033  18.405  0.00  0.00    +0.000 C 
ATOM     14  C   UNL     1       1.181   8.768  20.330  0.00  0.00    +0.000 C 
ENDBRANCH  11  12
ENDBRANCH  10  11
ENDBRANCH   4  10
BRANCH   5  15
ATOM     15  C   UNL     1       3.640   4.513  19.737  0.00  0.00    +0.000 C 
BRANCH  15  16
ATOM     16  C   UNL     1       2.968   3.139  19.683  0.00  0.00    +0.000 C 
BRANCH  16  17
ATOM     17  C   UNL     1       3.987   2.029  19.559  0.00  0.00    +0.000 C 
ATOM     18  N   UNL     1       3.745   1.118  18.574  0.00  0.00    +0.000 N 
ATOM     19  O   UNL     1       4.933   1.879  20.328  0.00  0.00    +0.000 OA
ATOM     20  H   UNL     1       3.046   1.274  17.859  0.00  0.00    +0.000 HD
ATOM     21  H   UNL     1       4.426   0.384  18.434  0.00  0.00    +0.000 HD
ENDBRANCH  16  17
BRANCH  16  22
ATOM     22  C   UNL     1       2.124   2.933  20.933  0.00  0.00    +0.000 C 
ATOM     23  N   UNL     1       0.767   3.031  20.802  0.00  0.00    +0.000 N 
ATOM     24  O   UNL     1       2.617   2.677  22.027  0.00  0.00    +0.000 OA
ATOM     25  H   UNL     1       0.346   3.508  20.015  0.00  0.00    +0.000 HD
ATOM     26  H   UNL     1       0.223   2.977  21.659  0.00  0.00    +0.000 HD
ENDBRANCH  16  22
ENDBRANCH  15  16
ENDBRANCH   5  15
TORSDOF 8
ENDMDL
