MODEL 1
REMARK VINA RESULT:      -8.3      0.000      0.000
REMARK  Name = 
REMARK  5 active torsions:
REMARK  status: ('A' for Active; 'I' for Inactive)
REMARK    1  A    between atoms: C_1  and  C_2
REMARK    2  A    between atoms: C_2  and  C_3
REMARK    3  A    between atoms: C_8  and  O_9
REMARK    4  A    between atoms: C_16  and  O_17
REMARK    5  A    between atoms: C_19  and  O_20
REMARK                            x       y       z     vdW  Elec       q    Type
REMARK                         _______ _______ _______ _____ _____    ______ ____
ROOT
ATOM      1  C   UNL     1      -0.183  11.785  21.200  0.00  0.00    +0.000 C 
ATOM      2  C   UNL     1      -0.009  10.402  20.560  0.00  0.00    +0.000 C 
ATOM      3  C   UNL     1      -1.292  10.022  19.805  0.00  0.00    +0.000 C 
ATOM      4  C   UNL     1       0.305   9.407  21.643  0.00  0.00    +0.000 C 
ATOM      5  C   UNL     1       1.132   8.381  21.424  0.00  0.00    +0.000 C 
ATOM      6  C   UNL     1       1.669   8.195  20.073  0.00  0.00    +0.000 A 
ATOM      7  C   UNL     1       1.654   9.327  19.239  0.00  0.00    +0.000 A 
ATOM      8  C   UNL     1       2.230   9.281  17.973  0.00  0.00    +0.000 A 
ATOM      9  C   UNL     1       2.774   8.105  17.484  0.00  0.00    +0.000 A 
ATOM     10  C   UNL     1       2.747   6.937  18.267  0.00  0.00    +0.000 A 
ATOM     11  C   UNL     1       2.195   6.982  19.565  0.00  0.00    +0.000 A 
ATOM     12  C   UNL     1       2.125   5.712  20.344  0.00  0.00    +0.000 C 
ATOM     13  O   UNL     1       1.577   5.640  21.440  0.00  0.00    +0.000 OA
ATOM     14  C   UNL     1       2.690   4.461  19.801  0.00  0.00    +0.000 A 
ATOM     15  C   UNL     1       2.653   3.280  20.567  0.00  0.00    +0.000 A 
ATOM     16  C   UNL     1       3.166   2.087  20.071  0.00  0.00    +0.000 A 
ATOM     17  C   UNL     1       3.713   2.074  18.796  0.00  0.00    +0.000 A 
ATOM     18  C   UNL     1       3.758   3.232  18.023  0.00  0.00    +0.000 A 
ATOM     19  C   UNL     1       3.248   4.444  18.520  0.00  0.00    +0.000 A 
ATOM     20  C   UNL     1       3.304   5.673  17.659  0.00  0.00    +0.000 C 
ATOM     21  O   UNL     1       1.075  10.524  19.606  0.00  0.00    +0.000 OA
ENDROOT
BRANCH   8  22
ATOM     22  O   UNL     1       2.248  10.391  17.176  0.00  0.00    +0.000 OA
ATOM     23  H   UNL     1       1.512  10.269  16.545  0.00  0.00    +0.000 HD
ENDBRANCH   8  22
BRANCH  15  24
ATOM     24  O   UNL     1       2.118   3.221  21.828  0.00  0.00    +0.000 OA
ATOM     25  H   UNL     1       1.151   3.392  21.745  0.00  0.00    +0.000 HD
ENDBRANCH  15  24
BRANCH  17  26
ATOM     26  O   UNL     1       4.217   0.928  18.258  0.00  0.00    +0.000 OA
ATOM     27  H   UNL     1       5.183   1.024  18.182  0.00  0.00    +0.000 HD
ENDBRANCH  17  26
TORSDOF 3
ENDMDL
MODEL 2
REMARK VINA RESULT:      -7.7      2.171      7.112
REMARK  Name = 
REMARK  5 active torsions:
REMARK  status: ('A' for Active; 'I' for Inactive)
REMARK    1  A    between atoms: C_1  and  C_2
REMARK    2  A    between atoms: C_2  and  C_3
REMARK    3  A    between atoms: C_8  and  O_9
REMARK    4  A    between atoms: C_16  and  O_17
REMARK    5  A    between atoms: C_19  and  O_20
REMARK                            x       y       z     vdW  Elec       q    Type
REMARK                         _______ _______ _______ _____ _____    ______ ____
ROOT
ATOM      1  C   UNL     1       6.940   4.299  14.706  0.00  0.00    +0.000 C 
ATOM      2  C   UNL     1       5.656   4.676  15.454  0.00  0.00    +0.000 C 
ATOM      3  C   UNL     1       4.478   3.869  14.888  0.00  0.00    +0.000 C 
ATOM      4  C   UNL     1       5.429   6.156  15.304  0.00  0.00    +0.000 C 
ATOM      5  C   UNL     1       4.889   6.878  16.291  0.00  0.00    +0.000 C 
ATOM      6  C   UNL     1       4.445   6.182  17.501  0.00  0.00    +0.000 A 
ATOM      7  C   UNL     1       5.014   4.918  17.734  0.00  0.00    +0.000 A 
ATOM      8  C   UNL     1       4.732   4.219  18.903  0.00  0.00    +0.000 A 
ATOM      9  C   UNL     1       3.838   4.724  19.833  0.00  0.00    +0.000 A 
ATOM     10  C   UNL     1       3.201   5.956  19.601  0.00  0.00    +0.000 A 
ATOM     11  C   UNL     1       3.506   6.688  18.433  0.00  0.00    +0.000 A 
ATOM     12  C   UNL     1       2.765   7.959  18.187  0.00  0.00    +0.000 C 
ATOM     13  O   UNL     1       2.898   8.610  17.154  0.00  0.00    +0.000 OA
ATOM     14  C   UNL     1       1.800   8.475  19.177  0.00  0.00    +0.000 A 
ATOM     15  C   UNL     1       1.142   9.698  18.948  0.00  0.00    +0.000 A 
ATOM     16  C   UNL     1       0.217  10.197  19.860  0.00  0.00    +0.000 A 
ATOM     17  C   UNL     1      -0.055   9.462  21.004  0.00  0.00    +0.000 A 
ATOM     18  C   UNL     1       0.587   8.249  21.248  0.00  0.00    +0.000 A 
ATOM     19  C   UNL     1       1.527   7.742  20.335  0.00  0.00    +0.000 A 
ATOM     20  C   UNL     1       2.196   6.428  20.623  0.00  0.00    +0.000 C 
ATOM     21  O   UNL     1       5.860   4.298  16.838  0.00  0.00    +0.000 OA
ENDROOT
BRANCH   8  22
ATOM     22  O   UNL     1       5.313   3.006  19.146  0.00  0.00    +0.000 OA
ATOM     23  H   UNL     1       5.823   2.796  18.339  0.00  0.00    +0.000 HD
ENDBRANCH   8  22
BRANCH  15  24
ATOM     24  O   UNL     1       1.355  10.468  17.833  0.00  0.00    +0.000 OA
ATOM     25  H   UNL     1       1.906  11.237  18.109  0.00  0.00    +0.000 HD
ENDBRANCH  15  24
BRANCH  17  26
ATOM     26  O   UNL     1      -0.961   9.900  21.923  0.00  0.00    +0.000 OA
ATOM     27  H   UNL     1      -1.717   9.286  21.925  0.00  0.00    +0.000 HD
ENDBRANCH  17  26
TORSDOF 3
ENDMDL
MODEL 3
REMARK VINA RESULT:      -7.3      1.850      3.372
REMARK  Name = 
REMARK  5 active torsions:
REMARK  status: ('A' for Active; 'I' for Inactive)
REMARK    1  A    between atoms: C_1  and  C_2
REMARK    2  A    between atoms: C_2  and  C_3
REMARK    3  A    between atoms: C_8  and  O_9
REMARK    4  A    between atoms: C_16  and  O_17
REMARK    5  A    between atoms: C_19  and  O_20
REMARK                            x       y       z     vdW  Elec       q    Type
REMARK                         _______ _______ _______ _____ _____    ______ ____
ROOT
ATOM      1  C   UNL     1      -0.016  13.231  19.106  0.00  0.00    +0.000 C 
ATOM      2  C   UNL     1       0.858  12.025  19.469  0.00  0.00    +0.000 C 
ATOM      3  C   UNL     1       1.994  12.477  20.401  0.00  0.00    +0.000 C 
ATOM      4  C   UNL     1       1.398  11.423  18.201  0.00  0.00    +0.000 C 
ATOM      5  C   UNL     1       1.577  10.104  18.080  0.00  0.00    +0.000 C 
ATOM      6  C   UNL     1       1.312   9.256  19.246  0.00  0.00    +0.000 A 
ATOM      7  C   UNL     1       0.476   9.803  20.234  0.00  0.00    +0.000 A 
ATOM      8  C   UNL     1       0.084   9.043  21.332  0.00  0.00    +0.000 A 
ATOM      9  C   UNL     1       0.559   7.754  21.507  0.00  0.00    +0.000 A 
ATOM     10  C   UNL     1       1.450   7.198  20.570  0.00  0.00    +0.000 A 
ATOM     11  C   UNL     1       1.826   7.949  19.436  0.00  0.00    +0.000 A 
ATOM     12  C   UNL     1       2.821   7.355  18.497  0.00  0.00    +0.000 C 
ATOM     13  O   UNL     1       3.275   7.975  17.539  0.00  0.00    +0.000 OA
ATOM     14  C   UNL     1       3.335   5.988  18.707  0.00  0.00    +0.000 A 
ATOM     15  C   UNL     1       4.241   5.426  17.787  0.00  0.00    +0.000 A 
ATOM     16  C   UNL     1       4.749   4.145  17.973  0.00  0.00    +0.000 A 
ATOM     17  C   UNL     1       4.354   3.425  19.090  0.00  0.00    +0.000 A 
ATOM     18  C   UNL     1       3.459   3.964  20.012  0.00  0.00    +0.000 A 
ATOM     19  C   UNL     1       2.934   5.256  19.828  0.00  0.00    +0.000 A 
ATOM     20  C   UNL     1       1.977   5.811  20.843  0.00  0.00    +0.000 C 
ATOM     21  O   UNL     1       0.006  11.100  20.188  0.00  0.00    +0.000 OA
ENDROOT
BRANCH   8  22
ATOM     22  O   UNL     1      -0.758   9.563  22.274  0.00  0.00    +0.000 OA
ATOM     23  H   UNL     1      -0.285   9.469  23.124  0.00  0.00    +0.000 HD
ENDBRANCH   8  22
BRANCH  15  24
ATOM     24  O   UNL     1       4.681   6.087  16.669  0.00  0.00    +0.000 OA
ATOM     25  H   UNL     1       5.253   5.463  16.165  0.00  0.00    +0.000 HD
ENDBRANCH  15  24
BRANCH  17  26
ATOM     26  O   UNL     1       4.833   2.171  19.325  0.00  0.00    +0.000 OA
ATOM     27  H   UNL     1       4.977   1.732  18.468  0.00  0.00    +0.000 HD
ENDBRANCH  17  26
TORSDOF 3
ENDMDL
MODEL 4
REMARK VINA RESULT:      -7.2      1.569      7.219
REMARK  Name = 
REMARK  5 active torsions:
REMARK  status: ('A' for Active; 'I' for Inactive)
REMARK    1  A    between atoms: C_1  and  C_2
REMARK    2  A    between atoms: C_2  and  C_3
REMARK    3  A    between atoms: C_8  and  O_9
REMARK    4  A    between atoms: C_16  and  O_17
REMARK    5  A    between atoms: C_19  and  O_20
REMARK                            x       y       z     vdW  Elec       q    Type
REMARK                         _______ _______ _______ _____ _____    ______ ____
ROOT
ATOM      1  C   UNL     1       5.574   3.412  16.625  0.00  0.00    +0.000 C 
ATOM      2  C   UNL     1       4.347   4.216  17.071  0.00  0.00    +0.000 C 
ATOM      3  C   UNL     1       3.087   3.635  16.411  0.00  0.00    +0.000 C 
ATOM      4  C   UNL     1       4.551   5.657  16.688  0.00  0.00    +0.000 C 
ATOM      5  C   UNL     1       4.092   6.649  17.456  0.00  0.00    +0.000 C 
ATOM      6  C   UNL     1       3.310   6.305  18.646  0.00  0.00    +0.000 A 
ATOM      7  C   UNL     1       3.478   5.001  19.143  0.00  0.00    +0.000 A 
ATOM      8  C   UNL     1       2.856   4.607  20.324  0.00  0.00    +0.000 A 
ATOM      9  C   UNL     1       2.009   5.469  21.001  0.00  0.00    +0.000 A 
ATOM     10  C   UNL     1       1.767   6.760  20.496  0.00  0.00    +0.000 A 
ATOM     11  C   UNL     1       2.420   7.180  19.317  0.00  0.00    +0.000 A 
ATOM     12  C   UNL     1       2.093   8.530  18.775  0.00  0.00    +0.000 C 
ATOM     13  O   UNL     1       2.540   8.938  17.707  0.00  0.00    +0.000 OA
ATOM     14  C   UNL     1       1.172   9.431  19.495  0.00  0.00    +0.000 A 
ATOM     15  C   UNL     1       0.907  10.719  18.992  0.00  0.00    +0.000 A 
ATOM     16  C   UNL     1       0.032  11.579  19.646  0.00  0.00    +0.000 A 
ATOM     17  C   UNL     1      -0.587  11.145  20.808  0.00  0.00    +0.000 A 
ATOM     18  C   UNL     1      -0.337   9.873  21.323  0.00  0.00    +0.000 A 
ATOM     19  C   UNL     1       0.551   9.000  20.671  0.00  0.00    +0.000 A 
ATOM     20  C   UNL     1       0.793   7.635  21.246  0.00  0.00    +0.000 C 
ATOM     21  O   UNL     1       4.243   4.047  18.506  0.00  0.00    +0.000 OA
ENDROOT
BRANCH   8  22
ATOM     22  O   UNL     1       3.047   3.351  20.826  0.00  0.00    +0.000 OA
ATOM     23  H   UNL     1       3.257   2.791  20.052  0.00  0.00    +0.000 HD
ENDBRANCH   8  22
BRANCH  15  24
ATOM     24  O   UNL     1       1.476  11.206  17.843  0.00  0.00    +0.000 OA
ATOM     25  H   UNL     1       0.827  11.069  17.114  0.00  0.00    +0.000 HD
ENDBRANCH  15  24
BRANCH  17  26
ATOM     26  O   UNL     1      -1.462  11.944  21.481  0.00  0.00    +0.000 OA
ATOM     27  H   UNL     1      -1.703  11.502  22.315  0.00  0.00    +0.000 HD
ENDBRANCH  17  26
TORSDOF 3
ENDMDL
MODEL 5
REMARK VINA RESULT:      -7.0      1.362      2.086
REMARK  Name = 
REMARK  5 active torsions:
REMARK  status: ('A' for Active; 'I' for Inactive)
REMARK    1  A    between atoms: C_1  and  C_2
REMARK    2  A    between atoms: C_2  and  C_3
REMARK    3  A    between atoms: C_8  and  O_9
REMARK    4  A    between atoms: C_16  and  O_17
REMARK    5  A    between atoms: C_19  and  O_20
REMARK                            x       y       z     vdW  Elec       q    Type
REMARK                         _______ _______ _______ _____ _____    ______ ____
ROOT
ATOM      1  C   UNL     1      -1.113  13.099  22.183  0.00  0.00    +0.000 C 
ATOM      2  C   UNL     1      -0.833  11.872  21.308  0.00  0.00    +0.000 C 
ATOM      3  C   UNL     1      -2.087  11.529  20.489  0.00  0.00    +0.000 C 
ATOM      4  C   UNL     1      -0.430  10.728  22.198  0.00  0.00    +0.000 C 
ATOM      5  C   UNL     1       0.477   9.828  21.804  0.00  0.00    +0.000 C 
ATOM      6  C   UNL     1       1.015   9.932  20.445  0.00  0.00    +0.000 A 
ATOM      7  C   UNL     1       0.901  11.189  19.826  0.00  0.00    +0.000 A 
ATOM      8  C   UNL     1       1.467  11.417  18.576  0.00  0.00    +0.000 A 
ATOM      9  C   UNL     1       2.101  10.396  17.887  0.00  0.00    +0.000 A 
ATOM     10  C   UNL     1       2.176   9.108  18.449  0.00  0.00    +0.000 A 
ATOM     11  C   UNL     1       1.634   8.876  19.731  0.00  0.00    +0.000 A 
ATOM     12  C   UNL     1       1.674   7.485  20.270  0.00  0.00    +0.000 C 
ATOM     13  O   UNL     1       1.143   7.174  21.332  0.00  0.00    +0.000 OA
ATOM     14  C   UNL     1       2.333   6.402  19.516  0.00  0.00    +0.000 A 
ATOM     15  C   UNL     1       2.400   5.105  20.058  0.00  0.00    +0.000 A 
ATOM     16  C   UNL     1       3.004   4.065  19.360  0.00  0.00    +0.000 A 
ATOM     17  C   UNL     1       3.539   4.324  18.107  0.00  0.00    +0.000 A 
ATOM     18  C   UNL     1       3.482   5.602  17.553  0.00  0.00    +0.000 A 
ATOM     19  C   UNL     1       2.880   6.660  18.256  0.00  0.00    +0.000 A 
ATOM     20  C   UNL     1       2.829   8.023  17.628  0.00  0.00    +0.000 C 
ATOM     21  O   UNL     1       0.229  12.250  20.398  0.00  0.00    +0.000 OA
ENDROOT
BRANCH   8  22
ATOM     22  O   UNL     1       1.387  12.649  17.990  0.00  0.00    +0.000 OA
ATOM     23  H   UNL     1       1.615  12.505  17.051  0.00  0.00    +0.000 HD
ENDBRANCH   8  22
BRANCH  15  24
ATOM     24  O   UNL     1       1.882   4.777  21.285  0.00  0.00    +0.000 OA
ATOM     25  H   UNL     1       1.042   4.286  21.128  0.00  0.00    +0.000 HD
ENDBRANCH  15  24
BRANCH  17  26
ATOM     26  O   UNL     1       4.130   3.338  17.375  0.00  0.00    +0.000 OA
ATOM     27  H   UNL     1       3.524   2.577  17.339  0.00  0.00    +0.000 HD
ENDBRANCH  17  26
TORSDOF 3
ENDMDL
MODEL 6
REMARK VINA RESULT:      -6.9      1.887      4.207
REMARK  Name = 
REMARK  5 active torsions:
REMARK  status: ('A' for Active; 'I' for Inactive)
REMARK    1  A    between atoms: C_1  and  C_2
REMARK    2  A    between atoms: C_2  and  C_3
REMARK    3  A    between atoms: C_8  and  O_9
REMARK    4  A    between atoms: C_16  and  O_17
REMARK    5  A    between atoms: C_19  and  O_20
REMARK                            x       y       z     vdW  Elec       q    Type
REMARK                         _______ _______ _______ _____ _____    ______ ____
ROOT
ATOM      1  C   UNL     1      -0.923  14.640  20.205  0.00  0.00    +0.000 C 
ATOM      2  C   UNL     1       0.003  13.429  20.365  0.00  0.00    +0.000 C 
ATOM      3  C   UNL     1       1.248  13.838  21.167  0.00  0.00    +0.000 C 
ATOM      4  C   UNL     1       0.375  12.923  18.997  0.00  0.00    +0.000 C 
ATOM      5  C   UNL     1       0.548  11.619  18.763  0.00  0.00    +0.000 C 
ATOM      6  C   UNL     1       0.449  10.690  19.892  0.00  0.00    +0.000 A 
ATOM      7  C   UNL     1      -0.253  11.154  21.018  0.00  0.00    +0.000 A 
ATOM      8  C   UNL     1      -0.488  10.314  22.102  0.00  0.00    +0.000 A 
ATOM      9  C   UNL     1       0.018   9.025  22.123  0.00  0.00    +0.000 A 
ATOM     10  C   UNL     1       0.782   8.550  21.041  0.00  0.00    +0.000 A 
ATOM     11  C   UNL     1       0.996   9.383  19.922  0.00  0.00    +0.000 A 
ATOM     12  C   UNL     1       1.863   8.872  18.821  0.00  0.00    +0.000 C 
ATOM     13  O   UNL     1       2.179   9.563  17.856  0.00  0.00    +0.000 OA
ATOM     14  C   UNL     1       2.413   7.504  18.866  0.00  0.00    +0.000 A 
ATOM     15  C   UNL     1       3.193   7.022  17.798  0.00  0.00    +0.000 A 
ATOM     16  C   UNL     1       3.734   5.741  17.825  0.00  0.00    +0.000 A 
ATOM     17  C   UNL     1       3.498   4.940  18.932  0.00  0.00    +0.000 A 
ATOM     18  C   UNL     1       2.728   5.399  19.999  0.00  0.00    +0.000 A 
ATOM     19  C   UNL     1       2.172   6.690  19.976  0.00  0.00    +0.000 A 
ATOM     20  C   UNL     1       1.354   7.158  21.145  0.00  0.00    +0.000 C 
ATOM     21  O   UNL     1      -0.737  12.441  21.124  0.00  0.00    +0.000 OA
ENDROOT
BRANCH   8  22
ATOM     22  O   UNL     1      -1.202  10.754  23.181  0.00  0.00    +0.000 OA
ATOM     23  H   UNL     1      -2.050  10.270  23.145  0.00  0.00    +0.000 HD
ENDBRANCH   8  22
BRANCH  15  24
ATOM     24  O   UNL     1       3.475   7.765  16.680  0.00  0.00    +0.000 OA
ATOM     25  H   UNL     1       4.112   8.468  16.947  0.00  0.00    +0.000 HD
ENDBRANCH  15  24
BRANCH  17  26
ATOM     26  O   UNL     1       4.016   3.682  19.014  0.00  0.00    +0.000 OA
ATOM     27  H   UNL     1       4.888   3.680  18.581  0.00  0.00    +0.000 HD
ENDBRANCH  17  26
TORSDOF 3
ENDMDL
MODEL 7
REMARK VINA RESULT:      -6.9      2.533      4.404
REMARK  Name = 
REMARK  5 active torsions:
REMARK  status: ('A' for Active; 'I' for Inactive)
REMARK    1  A    between atoms: C_1  and  C_2
REMARK    2  A    between atoms: C_2  and  C_3
REMARK    3  A    between atoms: C_8  and  O_9
REMARK    4  A    between atoms: C_16  and  O_17
REMARK    5  A    between atoms: C_19  and  O_20
REMARK                            x       y       z     vdW  Elec       q    Type
REMARK                         _______ _______ _______ _____ _____    ______ ____
ROOT
ATOM      1  C   UNL     1      -2.944  14.036  23.317  0.00  0.00    +0.000 C 
ATOM      2  C   UNL     1      -2.485  12.981  22.305  0.00  0.00    +0.000 C 
ATOM      3  C   UNL     1      -3.700  12.450  21.530  0.00  0.00    +0.000 C 
ATOM      4  C   UNL     1      -1.783  11.876  23.048  0.00  0.00    +0.000 C 
ATOM      5  C   UNL     1      -0.743  11.231  22.511  0.00  0.00    +0.000 C 
ATOM      6  C   UNL     1      -0.347  11.567  21.141  0.00  0.00    +0.000 A 
ATOM      7  C   UNL     1      -0.769  12.820  20.663  0.00  0.00    +0.000 A 
ATOM      8  C   UNL     1      -0.363  13.274  19.412  0.00  0.00    +0.000 A 
ATOM      9  C   UNL     1       0.413  12.478  18.586  0.00  0.00    +0.000 A 
ATOM     10  C   UNL     1       0.798  11.192  19.006  0.00  0.00    +0.000 A 
ATOM     11  C   UNL     1       0.420  10.736  20.287  0.00  0.00    +0.000 A 
ATOM     12  C   UNL     1       0.791   9.345  20.676  0.00  0.00    +0.000 C 
ATOM     13  O   UNL     1       0.422   8.834  21.730  0.00  0.00    +0.000 OA
ATOM     14  C   UNL     1       1.600   8.499  19.777  0.00  0.00    +0.000 A 
ATOM     15  C   UNL     1       1.978   7.204  20.178  0.00  0.00    +0.000 A 
ATOM     16  C   UNL     1       2.728   6.384  19.342  0.00  0.00    +0.000 A 
ATOM     17  C   UNL     1       3.097   6.862  18.094  0.00  0.00    +0.000 A 
ATOM     18  C   UNL     1       2.732   8.142  17.679  0.00  0.00    +0.000 A 
ATOM     19  C   UNL     1       1.980   8.979  18.521  0.00  0.00    +0.000 A 
ATOM     20  C   UNL     1       1.596  10.349  18.042  0.00  0.00    +0.000 C 
ATOM     21  O   UNL     1      -1.600  13.657  21.379  0.00  0.00    +0.000 OA
ENDROOT
BRANCH   8  22
ATOM     22  O   UNL     1      -0.744  14.507  18.962  0.00  0.00    +0.000 OA
ATOM     23  H   UNL     1      -1.709  14.550  19.108  0.00  0.00    +0.000 HD
ENDBRANCH   8  22
BRANCH  15  24
ATOM     24  O   UNL     1       1.638   6.666  21.393  0.00  0.00    +0.000 OA
ATOM     25  H   UNL     1       1.028   5.911  21.220  0.00  0.00    +0.000 HD
ENDBRANCH  15  24
BRANCH  17  26
ATOM     26  O   UNL     1       3.821   6.094  17.231  0.00  0.00    +0.000 OA
ATOM     27  H   UNL     1       3.348   6.059  16.381  0.00  0.00    +0.000 HD
ENDBRANCH  17  26
TORSDOF 3
ENDMDL
MODEL 8
REMARK VINA RESULT:      -6.9      2.025      3.825
REMARK  Name = 
REMARK  5 active torsions:
REMARK  status: ('A' for Active; 'I' for Inactive)
REMARK    1  A    between atoms: C_1  and  C_2
REMARK    2  A    between atoms: C_2  and  C_3
REMARK    3  A    between atoms: C_8  and  O_9
REMARK    4  A    between atoms: C_16  and  O_17
REMARK    5  A    between atoms: C_19  and  O_20
REMARK                            x       y       z     vdW  Elec       q    Type
REMARK                         _______ _______ _______ _____ _____    ______ ____
ROOT
ATOM      1  C   UNL     1       0.791  14.504  19.052  0.00  0.00    +0.000 C 
ATOM      2  C   UNL     1       1.368  13.164  19.520  0.00  0.00    +0.000 C 
ATOM      3  C   UNL     1       2.556  13.417  20.461  0.00  0.00    +0.000 C 
ATOM      4  C   UNL     1       1.787  12.372  18.311  0.00  0.00    +0.000 C 
ATOM      5  C   UNL     1       1.671  11.041  18.279  0.00  0.00    +0.000 C 
ATOM      6  C   UNL     1       1.201  10.354  19.485  0.00  0.00    +0.000 A 
ATOM      7  C   UNL     1       0.486  11.138  20.407  0.00  0.00    +0.000 A 
ATOM      8  C   UNL     1      -0.086  10.559  21.535  0.00  0.00    +0.000 A 
ATOM      9  C   UNL     1       0.087   9.212  21.807  0.00  0.00    +0.000 A 
ATOM     10  C   UNL     1       0.852   8.411  20.938  0.00  0.00    +0.000 A 
ATOM     11  C   UNL     1       1.408   8.982  19.774  0.00  0.00    +0.000 A 
ATOM     12  C   UNL     1       2.266   8.121  18.909  0.00  0.00    +0.000 C 
ATOM     13  O   UNL     1       2.865   8.559  17.931  0.00  0.00    +0.000 OA
ATOM     14  C   UNL     1       2.460   6.692  19.222  0.00  0.00    +0.000 A 
ATOM     15  C   UNL     1       3.237   5.883  18.371  0.00  0.00    +0.000 A 
ATOM     16  C   UNL     1       3.445   4.538  18.653  0.00  0.00    +0.000 A 
ATOM     17  C   UNL     1       2.877   4.000  19.798  0.00  0.00    +0.000 A 
ATOM     18  C   UNL     1       2.104   4.784  20.652  0.00  0.00    +0.000 A 
ATOM     19  C   UNL     1       1.884   6.144  20.370  0.00  0.00    +0.000 A 
ATOM     20  C   UNL     1       1.053   6.964  21.315  0.00  0.00    +0.000 C 
ATOM     21  O   UNL     1       0.317  12.499  20.264  0.00  0.00    +0.000 OA
ENDROOT
BRANCH   8  22
ATOM     22  O   UNL     1      -0.811  11.314  22.413  0.00  0.00    +0.000 OA
ATOM     23  H   UNL     1      -1.357  10.677  22.914  0.00  0.00    +0.000 HD
ENDBRANCH   8  22
BRANCH  15  24
ATOM     24  O   UNL     1       3.836   6.354  17.230  0.00  0.00    +0.000 OA
ATOM     25  H   UNL     1       3.312   7.129  16.922  0.00  0.00    +0.000 HD
ENDBRANCH  15  24
BRANCH  17  26
ATOM     26  O   UNL     1       3.061   2.690  20.127  0.00  0.00    +0.000 OA
ATOM     27  H   UNL     1       3.945   2.594  20.523  0.00  0.00    +0.000 HD
ENDBRANCH  17  26
TORSDOF 3
ENDMDL
MODEL 9
REMARK VINA RESULT:      -6.8      9.177     10.772
REMARK  Name = 
REMARK  5 active torsions:
REMARK  status: ('A' for Active; 'I' for Inactive)
REMARK    1  A    between atoms: C_1  and  C_2
REMARK    2  A    between atoms: C_2  and  C_3
REMARK    3  A    between atoms: C_8  and  O_9
REMARK    4  A    between atoms: C_16  and  O_17
REMARK    5  A    between atoms: C_19  and  O_20
REMARK                            x       y       z     vdW  Elec       q    Type
REMARK                         _______ _______ _______ _____ _____    ______ ____
ROOT
ATOM      1  C   UNL     1       6.517  12.641  27.030  0.00  0.00    +0.000 C 
ATOM      2  C   UNL     1       6.812  12.953  25.559  0.00  0.00    +0.000 C 
ATOM      3  C   UNL     1       5.562  13.560  24.903  0.00  0.00    +0.000 C 
ATOM      4  C   UNL     1       7.228  11.682  24.871  0.00  0.00    +0.000 C 
ATOM      5  C   UNL     1       8.145  11.687  23.899  0.00  0.00    +0.000 C 
ATOM      6  C   UNL     1       8.682  12.976  23.456  0.00  0.00    +0.000 A 
ATOM      7  C   UNL     1       8.553  14.046  24.358  0.00  0.00    +0.000 A 
ATOM      8  C   UNL     1       9.117  15.285  24.074  0.00  0.00    +0.000 A 
ATOM      9  C   UNL     1       9.763  15.510  22.869  0.00  0.00    +0.000 A 
ATOM     10  C   UNL     1       9.853  14.480  21.915  0.00  0.00    +0.000 A 
ATOM     11  C   UNL     1       9.314  13.210  22.209  0.00  0.00    +0.000 A 
ATOM     12  C   UNL     1       9.370  12.160  21.151  0.00  0.00    +0.000 C 
ATOM     13  O   UNL     1       8.843  11.059  21.286  0.00  0.00    +0.000 OA
ATOM     14  C   UNL     1      10.043  12.420  19.863  0.00  0.00    +0.000 A 
ATOM     15  C   UNL     1      10.125  11.404  18.893  0.00  0.00    +0.000 A 
ATOM     16  C   UNL     1      10.741  11.631  17.667  0.00  0.00    +0.000 A 
ATOM     17  C   UNL     1      11.272  12.885  17.409  0.00  0.00    +0.000 A 
ATOM     18  C   UNL     1      11.201  13.904  18.357  0.00  0.00    +0.000 A 
ATOM     19  C   UNL     1      10.586  13.681  19.601  0.00  0.00    +0.000 A 
ATOM     20  C   UNL     1      10.519  14.801  20.599  0.00  0.00    +0.000 C 
ATOM     21  O   UNL     1       7.869  13.943  25.552  0.00  0.00    +0.000 OA
ENDROOT
BRANCH   8  22
ATOM     22  O   UNL     1       9.023  16.315  24.967  0.00  0.00    +0.000 OA
ATOM     23  H   UNL     1       9.942  16.510  25.236  0.00  0.00    +0.000 HD
ENDBRANCH   8  22
BRANCH  15  24
ATOM     24  O   UNL     1       9.610  10.146  19.078  0.00  0.00    +0.000 OA
ATOM     25  H   UNL     1      10.079   9.542  18.456  0.00  0.00    +0.000 HD
ENDBRANCH  15  24
BRANCH  17  26
ATOM     26  O   UNL     1      11.876  13.163  16.218  0.00  0.00    +0.000 OA
ATOM     27  H   UNL     1      11.185  13.385  15.569  0.00  0.00    +0.000 HD
ENDBRANCH  17  26
TORSDOF 3
ENDMDL
