MODEL 1
REMARK VINA RESULT:      -8.3      0.000      0.000
REMARK  Name = 
REMARK  8 active torsions:
REMARK  status: ('A' for Active; 'I' for Inactive)
REMARK    1  A    between atoms: C_1  and  C_2
REMARK    2  A    between atoms: C_2  and  S_3
REMARK    3  A    between atoms: S_3  and  C_6
REMARK    4  A    between atoms: N_9  and  C_10
REMARK    5  A    between atoms: C_10  and  C_11
REMARK    6  A    between atoms: C_10  and  C_18
REMARK    7  A    between atoms: C_11  and  C_12
REMARK    8  A    between atoms: C_24  and  C_25
REMARK                            x       y       z     vdW  Elec       q    Type
REMARK                         _______ _______ _______ _____ _____    ______ ____
ROOT
ATOM      1  C   UNL     1       2.029   6.887  19.372  0.00  0.00    +0.000 C 
ENDROOT
BRANCH   1   2
ATOM      2  C   UNL     1       1.605   8.399  19.563  0.00  0.00    +0.000 C 
ATOM      3  O   UNL     1       1.784   8.979  20.638  0.00  0.00    +0.000 OA
ATOM      4  N   UNL     1       1.013   9.082  18.502  0.00  0.00    +0.000 N 
ATOM      5  C   UNL     1       0.423  10.340  18.783  0.00  0.00    +0.000 A 
ATOM      6  C   UNL     1       1.124  11.299  19.507  0.00  0.00    +0.000 A 
ATOM      7  C   UNL     1       0.444  12.391  20.031  0.00  0.00    +0.000 A 
ATOM      8  C   UNL     1      -0.921  12.514  19.804  0.00  0.00    +0.000 A 
ATOM      9  C   UNL     1      -1.707  13.619  20.436  0.00  0.00    +0.000 C 
ATOM     10  C   UNL     1      -1.520  11.554  18.989  0.00  0.00    +0.000 A 
ATOM     11  N   UNL     1      -0.871  10.484  18.449  0.00  0.00    +0.000 NA
ATOM     12  H   UNL     1       0.465   8.557  17.835  0.00  0.00    +0.000 HD
ENDBRANCH   1   2
BRANCH   1  16
ATOM     13  C   UNL     1       5.709   5.741  17.395  0.00  0.00    +0.000 A 
ATOM     14  C   UNL     1       5.485   5.424  18.772  0.00  0.00    +0.000 A 
ATOM     15  C   UNL     1       4.352   5.827  19.370  0.00  0.00    +0.000 A 
ATOM     16  N   UNL     1       3.389   6.594  18.736  0.00  0.00    +0.000 N 
ATOM     17  C   UNL     1       3.701   7.171  17.495  0.00  0.00    +0.000 A 
ATOM     18  O   UNL     1       3.043   8.052  16.950  0.00  0.00    +0.000 OA
ATOM     19  C   UNL     1       4.889   6.612  16.773  0.00  0.00    +0.000 A 
BRANCH  13  20
ATOM     20  S   UNL     1       7.084   5.059  16.558  0.00  0.00    +0.000 S 
ATOM     21  O   UNL     1       7.950   4.419  17.534  0.00  0.00    +0.000 OA
ATOM     22  O   UNL     1       7.629   6.045  15.643  0.00  0.00    +0.000 OA
BRANCH  20  24
ATOM     23  C   UNL     1       6.285   4.155  14.096  0.00  0.00    +0.000 C 
ATOM     24  C   UNL     1       6.361   3.757  15.565  0.00  0.00    +0.000 C 
ENDBRANCH  20  24
ENDBRANCH  13  20
ENDBRANCH   1  16
BRANCH   1  25
ATOM     25  C   UNL     1       1.868   6.073  20.698  0.00  0.00    +0.000 C 
BRANCH  25  26
ATOM     26  C   UNL     1       1.374   4.620  20.525  0.00  0.00    +0.000 C 
ATOM     27  C   UNL     1       2.197   3.620  21.361  0.00  0.00    +0.000 C 
ATOM     28  C   UNL     1       1.650   2.205  21.169  0.00  0.00    +0.000 C 
ATOM     29  O   UNL     1       1.636   1.834  19.791  0.00  0.00    +0.000 OA
ATOM     30  C   UNL     1       0.832   2.708  19.005  0.00  0.00    +0.000 C 
ATOM     31  C   UNL     1       1.368   4.123  19.076  0.00  0.00    +0.000 C 
ENDBRANCH  25  26
ENDBRANCH   1  25
TORSDOF 6
ENDMDL
MODEL 2
REMARK VINA RESULT:      -8.2      2.763      7.557
REMARK  Name = 
REMARK  8 active torsions:
REMARK  status: ('A' for Active; 'I' for Inactive)
REMARK    1  A    between atoms: C_1  and  C_2
REMARK    2  A    between atoms: C_2  and  S_3
REMARK    3  A    between atoms: S_3  and  C_6
REMARK    4  A    between atoms: N_9  and  C_10
REMARK    5  A    between atoms: C_10  and  C_11
REMARK    6  A    between atoms: C_10  and  C_18
REMARK    7  A    between atoms: C_11  and  C_12
REMARK    8  A    between atoms: C_24  and  C_25
REMARK                            x       y       z     vdW  Elec       q    Type
REMARK                         _______ _______ _______ _____ _____    ______ ____
ROOT
ATOM      1  C   UNL     1       3.094   6.078  18.720  0.00  0.00    +0.000 C 
ENDROOT
BRANCH   1   2
ATOM      2  C   UNL     1       4.306   5.935  17.712  0.00  0.00    +0.000 C 
ATOM      3  O   UNL     1       4.923   6.928  17.314  0.00  0.00    +0.000 OA
ATOM      4  N   UNL     1       4.675   4.669  17.263  0.00  0.00    +0.000 N 
ATOM      5  C   UNL     1       5.587   4.601  16.180  0.00  0.00    +0.000 A 
ATOM      6  C   UNL     1       6.759   5.351  16.200  0.00  0.00    +0.000 A 
ATOM      7  C   UNL     1       7.486   5.512  15.027  0.00  0.00    +0.000 A 
ATOM      8  C   UNL     1       7.040   4.901  13.862  0.00  0.00    +0.000 A 
ATOM      9  C   UNL     1       7.738   5.134  12.559  0.00  0.00    +0.000 C 
ATOM     10  C   UNL     1       5.908   4.092  13.960  0.00  0.00    +0.000 A 
ATOM     11  N   UNL     1       5.188   3.905  15.101  0.00  0.00    +0.000 NA
ATOM     12  H   UNL     1       3.963   3.954  17.192  0.00  0.00    +0.000 HD
ENDBRANCH   1   2
BRANCH   1  16
ATOM     13  C   UNL     1       0.807   9.751  18.929  0.00  0.00    +0.000 A 
ATOM     14  C   UNL     1       1.637   9.466  17.799  0.00  0.00    +0.000 A 
ATOM     15  C   UNL     1       2.366   8.339  17.779  0.00  0.00    +0.000 A 
ATOM     16  N   UNL     1       2.407   7.440  18.832  0.00  0.00    +0.000 N 
ATOM     17  C   UNL     1       1.849   7.823  20.063  0.00  0.00    +0.000 A 
ATOM     18  O   UNL     1       2.028   7.234  21.124  0.00  0.00    +0.000 OA
ATOM     19  C   UNL     1       0.923   9.002  20.044  0.00  0.00    +0.000 A 
BRANCH  13  20
ATOM     20  S   UNL     1      -0.288  11.113  18.882  0.00  0.00    +0.000 S 
ATOM     21  O   UNL     1       0.467  12.303  18.526  0.00  0.00    +0.000 OA
ATOM     22  O   UNL     1      -1.114  11.109  20.075  0.00  0.00    +0.000 OA
BRANCH  20  24
ATOM     23  C   UNL     1      -2.583   9.948  17.938  0.00  0.00    +0.000 C 
ATOM     24  C   UNL     1      -1.357  10.737  17.496  0.00  0.00    +0.000 C 
ENDBRANCH  20  24
ENDBRANCH  13  20
ENDBRANCH   1  16
BRANCH   1  25
ATOM     25  C   UNL     1       2.029   4.954  18.501  0.00  0.00    +0.000 C 
BRANCH  25  26
ATOM     26  C   UNL     1       2.107   3.769  19.487  0.00  0.00    +0.000 C 
ATOM     27  C   UNL     1       1.152   3.941  20.685  0.00  0.00    +0.000 C 
ATOM     28  C   UNL     1       1.256   2.730  21.613  0.00  0.00    +0.000 C 
ATOM     29  O   UNL     1       2.598   2.522  22.051  0.00  0.00    +0.000 OA
ATOM     30  C   UNL     1       3.492   2.299  20.965  0.00  0.00    +0.000 C 
ATOM     31  C   UNL     1       3.510   3.501  20.043  0.00  0.00    +0.000 C 
ENDBRANCH  25  26
ENDBRANCH   1  25
TORSDOF 6
ENDMDL
MODEL 3
REMARK VINA RESULT:      -8.2      3.321      6.051
REMARK  Name = 
REMARK  8 active torsions:
REMARK  status: ('A' for Active; 'I' for Inactive)
REMARK    1  A    between atoms: C_1  and  C_2
REMARK    2  A    between atoms: C_2  and  S_3
REMARK    3  A    between atoms: S_3  and  C_6
REMARK    4  A    between atoms: N_9  and  C_10
REMARK    5  A    between atoms: C_10  and  C_11
REMARK    6  A    between atoms: C_10  and  C_18
REMARK    7  A    between atoms: C_11  and  C_12
REMARK    8  A    between atoms: C_24  and  C_25
REMARK                            x       y       z     vdW  Elec       q    Type
REMARK                         _______ _______ _______ _____ _____    ______ ____
ROOT
ATOM      1  C   UNL     1       0.727  10.418  18.843  0.00  0.00    +0.000 C 
ENDROOT
BRANCH   1   2
ATOM      2  C   UNL     1       1.588  11.737  18.986  0.00  0.00    +0.000 C 
ATOM      3  O   UNL     1       2.409  12.057  18.121  0.00  0.00    +0.000 OA
ATOM      4  N   UNL     1       1.422  12.544  20.110  0.00  0.00    +0.000 N 
ATOM      5  C   UNL     1       2.378  13.568  20.326  0.00  0.00    +0.000 A 
ATOM      6  C   UNL     1       2.731  14.429  19.291  0.00  0.00    +0.000 A 
ATOM      7  C   UNL     1       3.866  15.220  19.418  0.00  0.00    +0.000 A 
ATOM      8  C   UNL     1       4.615  15.151  20.586  0.00  0.00    +0.000 A 
ATOM      9  C   UNL     1       5.898  15.909  20.720  0.00  0.00    +0.000 C 
ATOM     10  C   UNL     1       4.131  14.329  21.605  0.00  0.00    +0.000 A 
ATOM     11  N   UNL     1       3.012  13.558  21.510  0.00  0.00    +0.000 NA
ATOM     12  H   UNL     1       1.143  12.110  20.979  0.00  0.00    +0.000 HD
ENDBRANCH   1   2
BRANCH   1  16
ATOM     13  C   UNL     1       2.260   6.460  19.710  0.00  0.00    +0.000 A 
ATOM     14  C   UNL     1       1.752   7.297  20.754  0.00  0.00    +0.000 A 
ATOM     15  C   UNL     1       1.321   8.534  20.462  0.00  0.00    +0.000 A 
ATOM     16  N   UNL     1       1.387   9.083  19.193  0.00  0.00    +0.000 N 
ATOM     17  C   UNL     1       2.141   8.418  18.212  0.00  0.00    +0.000 A 
ATOM     18  O   UNL     1       2.477   8.907  17.138  0.00  0.00    +0.000 OA
ATOM     19  C   UNL     1       2.495   6.989  18.492  0.00  0.00    +0.000 A 
BRANCH  13  20
ATOM     20  S   UNL     1       2.643   4.788  20.044  0.00  0.00    +0.000 S 
ATOM     21  O   UNL     1       2.273   4.493  21.419  0.00  0.00    +0.000 OA
ATOM     22  O   UNL     1       3.986   4.498  19.577  0.00  0.00    +0.000 OA
BRANCH  20  24
ATOM     23  C   UNL     1       2.238   3.220  17.832  0.00  0.00    +0.000 C 
ATOM     24  C   UNL     1       1.509   3.885  18.992  0.00  0.00    +0.000 C 
ENDBRANCH  20  24
ENDBRANCH  13  20
ENDBRANCH   1  16
BRANCH   1  25
ATOM     25  C   UNL     1      -0.648  10.547  19.579  0.00  0.00    +0.000 C 
BRANCH  25  26
ATOM     26  C   UNL     1      -1.894  10.441  18.673  0.00  0.00    +0.000 C 
ATOM     27  C   UNL     1      -1.535  10.042  17.229  0.00  0.00    +0.000 C 
ATOM     28  C   UNL     1      -2.807   9.930  16.386  0.00  0.00    +0.000 C 
ATOM     29  O   UNL     1      -3.557  11.143  16.412  0.00  0.00    +0.000 OA
ATOM     30  C   UNL     1      -3.955  11.504  17.731  0.00  0.00    +0.000 C 
ATOM     31  C   UNL     1      -2.738  11.719  18.608  0.00  0.00    +0.000 C 
ENDBRANCH  25  26
ENDBRANCH   1  25
TORSDOF 6
ENDMDL
MODEL 4
REMARK VINA RESULT:      -8.1      3.228      5.955
REMARK  Name = 
REMARK  8 active torsions:
REMARK  status: ('A' for Active; 'I' for Inactive)
REMARK    1  A    between atoms: C_1  and  C_2
REMARK    2  A    between atoms: C_2  and  S_3
REMARK    3  A    between atoms: S_3  and  C_6
REMARK    4  A    between atoms: N_9  and  C_10
REMARK    5  A    between atoms: C_10  and  C_11
REMARK    6  A    between atoms: C_10  and  C_18
REMARK    7  A    between atoms: C_11  and  C_12
REMARK    8  A    between atoms: C_24  and  C_25
REMARK                            x       y       z     vdW  Elec       q    Type
REMARK                         _______ _______ _______ _____ _____    ______ ____
ROOT
ATOM      1  C   UNL     1       0.409  10.566  19.049  0.00  0.00    +0.000 C 
ENDROOT
BRANCH   1   2
ATOM      2  C   UNL     1       1.011  11.923  19.595  0.00  0.00    +0.000 C 
ATOM      3  O   UNL     1       0.521  12.487  20.578  0.00  0.00    +0.000 OA
ATOM      4  N   UNL     1       2.107  12.494  18.950  0.00  0.00    +0.000 N 
ATOM      5  C   UNL     1       2.457  13.820  19.306  0.00  0.00    +0.000 A 
ATOM      6  C   UNL     1       2.577  14.180  20.645  0.00  0.00    +0.000 A 
ATOM      7  C   UNL     1       2.619  15.525  20.990  0.00  0.00    +0.000 A 
ATOM      8  C   UNL     1       2.563  16.485  19.987  0.00  0.00    +0.000 A 
ATOM      9  C   UNL     1       2.503  17.942  20.323  0.00  0.00    +0.000 C 
ATOM     10  C   UNL     1       2.538  16.029  18.669  0.00  0.00    +0.000 A 
ATOM     11  N   UNL     1       2.513  14.716  18.306  0.00  0.00    +0.000 NA
ATOM     12  H   UNL     1       2.220  12.335  17.958  0.00  0.00    +0.000 HD
ENDBRANCH   1   2
BRANCH   1  16
ATOM     13  C   UNL     1       2.457   6.760  19.337  0.00  0.00    +0.000 A 
ATOM     14  C   UNL     1       1.831   7.346  20.482  0.00  0.00    +0.000 A 
ATOM     15  C   UNL     1       1.239   8.546  20.373  0.00  0.00    +0.000 A 
ATOM     16  N   UNL     1       1.242   9.292  19.207  0.00  0.00    +0.000 N 
ATOM     17  C   UNL     1       2.087   8.895  18.158  0.00  0.00    +0.000 A 
ATOM     18  O   UNL     1       2.364   9.588  17.184  0.00  0.00    +0.000 OA
ATOM     19  C   UNL     1       2.629   7.500  18.223  0.00  0.00    +0.000 A 
BRANCH  13  20
ATOM     20  S   UNL     1       3.060   5.121  19.419  0.00  0.00    +0.000 S 
ATOM     21  O   UNL     1       4.495   5.165  19.643  0.00  0.00    +0.000 OA
ATOM     22  O   UNL     1       2.524   4.353  18.310  0.00  0.00    +0.000 OA
BRANCH  20  24
ATOM     23  C   UNL     1       1.067   3.663  20.610  0.00  0.00    +0.000 C 
ATOM     24  C   UNL     1       2.315   4.480  20.916  0.00  0.00    +0.000 C 
ENDBRANCH  20  24
ENDBRANCH  13  20
ENDBRANCH   1  16
BRANCH   1  25
ATOM     25  C   UNL     1      -1.044  10.328  19.577  0.00  0.00    +0.000 C 
BRANCH  25  26
ATOM     26  C   UNL     1      -2.144  10.301  18.494  0.00  0.00    +0.000 C 
ATOM     27  C   UNL     1      -1.583   9.957  17.100  0.00  0.00    +0.000 C 
ATOM     28  C   UNL     1      -2.718   9.922  16.075  0.00  0.00    +0.000 C 
ATOM     29  O   UNL     1      -3.436  11.155  16.050  0.00  0.00    +0.000 OA
ATOM     30  C   UNL     1      -4.017  11.467  17.312  0.00  0.00    +0.000 C 
ATOM     31  C   UNL     1      -2.939  11.606  18.368  0.00  0.00    +0.000 C 
ENDBRANCH  25  26
ENDBRANCH   1  25
TORSDOF 6
ENDMDL
MODEL 5
REMARK VINA RESULT:      -8.1      3.259      6.106
REMARK  Name = 
REMARK  8 active torsions:
REMARK  status: ('A' for Active; 'I' for Inactive)
REMARK    1  A    between atoms: C_1  and  C_2
REMARK    2  A    between atoms: C_2  and  S_3
REMARK    3  A    between atoms: S_3  and  C_6
REMARK    4  A    between atoms: N_9  and  C_10
REMARK    5  A    between atoms: C_10  and  C_11
REMARK    6  A    between atoms: C_10  and  C_18
REMARK    7  A    between atoms: C_11  and  C_12
REMARK    8  A    between atoms: C_24  and  C_25
REMARK                            x       y       z     vdW  Elec       q    Type
REMARK                         _______ _______ _______ _____ _____    ______ ____
ROOT
ATOM      1  C   UNL     1       0.694  10.398  18.801  0.00  0.00    +0.000 C 
ENDROOT
BRANCH   1   2
ATOM      2  C   UNL     1       1.491  11.752  18.984  0.00  0.00    +0.000 C 
ATOM      3  O   UNL     1       2.235  12.177  18.095  0.00  0.00    +0.000 OA
ATOM      4  N   UNL     1       1.356  12.469  20.171  0.00  0.00    +0.000 N 
ATOM      5  C   UNL     1       2.267  13.530  20.399  0.00  0.00    +0.000 A 
ATOM      6  C   UNL     1       2.505  14.479  19.409  0.00  0.00    +0.000 A 
ATOM      7  C   UNL     1       3.601  15.324  19.522  0.00  0.00    +0.000 A 
ATOM      8  C   UNL     1       4.428  15.219  20.633  0.00  0.00    +0.000 A 
ATOM      9  C   UNL     1       5.675  16.040  20.741  0.00  0.00    +0.000 C 
ATOM     10  C   UNL     1       4.058  14.304  21.618  0.00  0.00    +0.000 A 
ATOM     11  N   UNL     1       2.978  13.477  21.539  0.00  0.00    +0.000 NA
ATOM     12  H   UNL     1       1.159  11.962  21.023  0.00  0.00    +0.000 HD
ENDBRANCH   1   2
BRANCH   1  16
ATOM     13  C   UNL     1       2.459   6.490  19.418  0.00  0.00    +0.000 A 
ATOM     14  C   UNL     1       1.881   7.215  20.507  0.00  0.00    +0.000 A 
ATOM     15  C   UNL     1       1.378   8.442  20.294  0.00  0.00    +0.000 A 
ATOM     16  N   UNL     1       1.432   9.084  19.069  0.00  0.00    +0.000 N 
ATOM     17  C   UNL     1       2.244   8.539  18.061  0.00  0.00    +0.000 A 
ATOM     18  O   UNL     1       2.567   9.125  17.033  0.00  0.00    +0.000 OA
ATOM     19  C   UNL     1       2.683   7.119  18.246  0.00  0.00    +0.000 A 
BRANCH  13  20
ATOM     20  S   UNL     1       2.941   4.824  19.641  0.00  0.00    +0.000 S 
ATOM     21  O   UNL     1       4.388   4.774  19.772  0.00  0.00    +0.000 OA
ATOM     22  O   UNL     1       2.274   3.993  18.656  0.00  0.00    +0.000 OA
BRANCH  20  24
ATOM     23  C   UNL     1       1.290   3.231  21.141  0.00  0.00    +0.000 C 
ATOM     24  C   UNL     1       2.255   4.405  21.240  0.00  0.00    +0.000 C 
ENDBRANCH  20  24
ENDBRANCH  13  20
ENDBRANCH   1  16
BRANCH   1  25
ATOM     25  C   UNL     1      -0.664  10.420  19.577  0.00  0.00    +0.000 C 
BRANCH  25  26
ATOM     26  C   UNL     1      -1.930  10.384  18.694  0.00  0.00    +0.000 C 
ATOM     27  C   UNL     1      -1.614  10.001  17.235  0.00  0.00    +0.000 C 
ATOM     28  C   UNL     1      -2.905   9.959  16.416  0.00  0.00    +0.000 C 
ATOM     29  O   UNL     1      -3.605  11.201  16.481  0.00  0.00    +0.000 OA
ATOM     30  C   UNL     1      -3.963  11.550  17.815  0.00  0.00    +0.000 C 
ATOM     31  C   UNL     1      -2.721  11.697  18.671  0.00  0.00    +0.000 C 
ENDBRANCH  25  26
ENDBRANCH   1  25
TORSDOF 6
ENDMDL
MODEL 6
REMARK VINA RESULT:      -8.1      2.719      7.675
REMARK  Name = 
REMARK  8 active torsions:
REMARK  status: ('A' for Active; 'I' for Inactive)
REMARK    1  A    between atoms: C_1  and  C_2
REMARK    2  A    between atoms: C_2  and  S_3
REMARK    3  A    between atoms: S_3  and  C_6
REMARK    4  A    between atoms: N_9  and  C_10
REMARK    5  A    between atoms: C_10  and  C_11
REMARK    6  A    between atoms: C_10  and  C_18
REMARK    7  A    between atoms: C_11  and  C_12
REMARK    8  A    between atoms: C_24  and  C_25
REMARK                            x       y       z     vdW  Elec       q    Type
REMARK                         _______ _______ _______ _____ _____    ______ ____
ROOT
ATOM      1  C   UNL     1       3.134   6.094  18.719  0.00  0.00    +0.000 C 
ENDROOT
BRANCH   1   2
ATOM      2  C   UNL     1       4.342   5.923  17.711  0.00  0.00    +0.000 C 
ATOM      3  O   UNL     1       5.011   6.896  17.351  0.00  0.00    +0.000 OA
ATOM      4  N   UNL     1       4.646   4.656  17.217  0.00  0.00    +0.000 N 
ATOM      5  C   UNL     1       5.559   4.579  16.136  0.00  0.00    +0.000 A 
ATOM      6  C   UNL     1       6.768   5.266  16.186  0.00  0.00    +0.000 A 
ATOM      7  C   UNL     1       7.509   5.431  15.023  0.00  0.00    +0.000 A 
ATOM      8  C   UNL     1       7.038   4.886  13.835  0.00  0.00    +0.000 A 
ATOM      9  C   UNL     1       7.754   5.129  12.543  0.00  0.00    +0.000 C 
ATOM     10  C   UNL     1       5.865   4.135  13.900  0.00  0.00    +0.000 A 
ATOM     11  N   UNL     1       5.130   3.945  15.032  0.00  0.00    +0.000 NA
ATOM     12  H   UNL     1       3.899   3.983  17.119  0.00  0.00    +0.000 HD
ENDBRANCH   1   2
BRANCH   1  16
ATOM     13  C   UNL     1       0.916   9.811  18.888  0.00  0.00    +0.000 A 
ATOM     14  C   UNL     1       1.790   9.526  17.792  0.00  0.00    +0.000 A 
ATOM     15  C   UNL     1       2.496   8.384  17.786  0.00  0.00    +0.000 A 
ATOM     16  N   UNL     1       2.470   7.468  18.824  0.00  0.00    +0.000 N 
ATOM     17  C   UNL     1       1.865   7.842  20.034  0.00  0.00    +0.000 A 
ATOM     18  O   UNL     1       1.983   7.232  21.092  0.00  0.00    +0.000 OA
ATOM     19  C   UNL     1       0.965   9.040  19.994  0.00  0.00    +0.000 A 
BRANCH  13  20
ATOM     20  S   UNL     1      -0.148  11.196  18.815  0.00  0.00    +0.000 S 
ATOM     21  O   UNL     1      -1.238  10.896  17.902  0.00  0.00    +0.000 OA
ATOM     22  O   UNL     1       0.640  12.400  18.631  0.00  0.00    +0.000 OA
BRANCH  20  24
ATOM     23  C   UNL     1      -1.716  12.507  20.643  0.00  0.00    +0.000 C 
ATOM     24  C   UNL     1      -0.848  11.268  20.461  0.00  0.00    +0.000 C 
ENDBRANCH  20  24
ENDBRANCH  13  20
ENDBRANCH   1  16
BRANCH   1  25
ATOM     25  C   UNL     1       2.049   4.986  18.508  0.00  0.00    +0.000 C 
BRANCH  25  26
ATOM     26  C   UNL     1       2.100   3.812  19.510  0.00  0.00    +0.000 C 
ATOM     27  C   UNL     1       1.114   3.997  20.679  0.00  0.00    +0.000 C 
ATOM     28  C   UNL     1       1.192   2.797  21.623  0.00  0.00    +0.000 C 
ATOM     29  O   UNL     1       2.522   2.594  22.100  0.00  0.00    +0.000 OA
ATOM     30  C   UNL     1       3.445   2.360  21.041  0.00  0.00    +0.000 C 
ATOM     31  C   UNL     1       3.488   3.552  20.106  0.00  0.00    +0.000 C 
ENDBRANCH  25  26
ENDBRANCH   1  25
TORSDOF 6
ENDMDL
MODEL 7
REMARK VINA RESULT:      -8.0      3.326      6.131
REMARK  Name = 
REMARK  8 active torsions:
REMARK  status: ('A' for Active; 'I' for Inactive)
REMARK    1  A    between atoms: C_1  and  C_2
REMARK    2  A    between atoms: C_2  and  S_3
REMARK    3  A    between atoms: S_3  and  C_6
REMARK    4  A    between atoms: N_9  and  C_10
REMARK    5  A    between atoms: C_10  and  C_11
REMARK    6  A    between atoms: C_10  and  C_18
REMARK    7  A    between atoms: C_11  and  C_12
REMARK    8  A    between atoms: C_24  and  C_25
REMARK                            x       y       z     vdW  Elec       q    Type
REMARK                         _______ _______ _______ _____ _____    ______ ____
ROOT
ATOM      1  C   UNL     1       0.885  10.375  18.491  0.00  0.00    +0.000 C 
ENDROOT
BRANCH   1   2
ATOM      2  C   UNL     1       1.695  11.711  18.735  0.00  0.00    +0.000 C 
ATOM      3  O   UNL     1       2.579  12.071  17.952  0.00  0.00    +0.000 OA
ATOM      4  N   UNL     1       1.410  12.488  19.856  0.00  0.00    +0.000 N 
ATOM      5  C   UNL     1       2.316  13.531  20.175  0.00  0.00    +0.000 A 
ATOM      6  C   UNL     1       2.734  14.424  19.193  0.00  0.00    +0.000 A 
ATOM      7  C   UNL     1       3.833  15.239  19.434  0.00  0.00    +0.000 A 
ATOM      8  C   UNL     1       4.479  15.163  20.662  0.00  0.00    +0.000 A 
ATOM      9  C   UNL     1       5.724  15.949  20.923  0.00  0.00    +0.000 C 
ATOM     10  C   UNL     1       3.930  14.307  21.617  0.00  0.00    +0.000 A 
ATOM     11  N   UNL     1       2.845  13.510  21.410  0.00  0.00    +0.000 NA
ATOM     12  H   UNL     1       1.068  12.028  20.689  0.00  0.00    +0.000 HD
ENDBRANCH   1   2
BRANCH   1  16
ATOM     13  C   UNL     1       2.338   6.458  19.638  0.00  0.00    +0.000 A 
ATOM     14  C   UNL     1       1.755   7.337  20.604  0.00  0.00    +0.000 A 
ATOM     15  C   UNL     1       1.350   8.561  20.228  0.00  0.00    +0.000 A 
ATOM     16  N   UNL     1       1.514   9.056  18.946  0.00  0.00    +0.000 N 
ATOM     17  C   UNL     1       2.338   8.350  18.054  0.00  0.00    +0.000 A 
ATOM     18  O   UNL     1       2.756   8.794  16.990  0.00  0.00    +0.000 OA
ATOM     19  C   UNL     1       2.667   6.935  18.420  0.00  0.00    +0.000 A 
BRANCH  13  20
ATOM     20  S   UNL     1       2.690   4.801  20.070  0.00  0.00    +0.000 S 
ATOM     21  O   UNL     1       2.218   4.565  21.424  0.00  0.00    +0.000 OA
ATOM     22  O   UNL     1       4.064   4.493  19.719  0.00  0.00    +0.000 OA
BRANCH  20  24
ATOM     23  C   UNL     1       0.815   2.828  19.743  0.00  0.00    +0.000 C 
ATOM     24  C   UNL     1       1.638   3.854  18.974  0.00  0.00    +0.000 C 
ENDBRANCH  20  24
ENDBRANCH  13  20
ENDBRANCH   1  16
BRANCH   1  25
ATOM     25  C   UNL     1      -0.581  10.485  19.028  0.00  0.00    +0.000 C 
BRANCH  25  26
ATOM     26  C   UNL     1      -1.638  10.899  17.981  0.00  0.00    +0.000 C 
ATOM     27  C   UNL     1      -2.988  11.265  18.628  0.00  0.00    +0.000 C 
ATOM     28  C   UNL     1      -3.986  11.688  17.548  0.00  0.00    +0.000 C 
ATOM     29  O   UNL     1      -4.148  10.671  16.560  0.00  0.00    +0.000 OA
ATOM     30  C   UNL     1      -2.924  10.356  15.904  0.00  0.00    +0.000 C 
ATOM     31  C   UNL     1      -1.907   9.843  16.904  0.00  0.00    +0.000 C 
ENDBRANCH  25  26
ENDBRANCH   1  25
TORSDOF 6
ENDMDL
MODEL 8
REMARK VINA RESULT:      -8.0      3.345      5.994
REMARK  Name = 
REMARK  8 active torsions:
REMARK  status: ('A' for Active; 'I' for Inactive)
REMARK    1  A    between atoms: C_1  and  C_2
REMARK    2  A    between atoms: C_2  and  S_3
REMARK    3  A    between atoms: S_3  and  C_6
REMARK    4  A    between atoms: N_9  and  C_10
REMARK    5  A    between atoms: C_10  and  C_11
REMARK    6  A    between atoms: C_10  and  C_18
REMARK    7  A    between atoms: C_11  and  C_12
REMARK    8  A    between atoms: C_24  and  C_25
REMARK                            x       y       z     vdW  Elec       q    Type
REMARK                         _______ _______ _______ _____ _____    ______ ____
ROOT
ATOM      1  C   UNL     1       0.510  10.630  18.842  0.00  0.00    +0.000 C 
ENDROOT
BRANCH   1   2
ATOM      2  C   UNL     1       1.076  11.971  19.461  0.00  0.00    +0.000 C 
ATOM      3  O   UNL     1       0.570  12.469  20.471  0.00  0.00    +0.000 OA
ATOM      4  N   UNL     1       2.158  12.603  18.850  0.00  0.00    +0.000 N 
ATOM      5  C   UNL     1       2.473  13.917  19.277  0.00  0.00    +0.000 A 
ATOM      6  C   UNL     1       2.582  14.209  20.634  0.00  0.00    +0.000 A 
ATOM      7  C   UNL     1       2.589  15.534  21.049  0.00  0.00    +0.000 A 
ATOM      8  C   UNL     1       2.510  16.544  20.098  0.00  0.00    +0.000 A 
ATOM      9  C   UNL     1       2.412  17.979  20.511  0.00  0.00    +0.000 C 
ATOM     10  C   UNL     1       2.498  16.158  18.758  0.00  0.00    +0.000 A 
ATOM     11  N   UNL     1       2.507  14.865  18.326  0.00  0.00    +0.000 NA
ATOM     12  H   UNL     1       2.277  12.500  17.852  0.00  0.00    +0.000 HD
ENDBRANCH   1   2
BRANCH   1  16
ATOM     13  C   UNL     1       2.187   6.727  19.692  0.00  0.00    +0.000 A 
ATOM     14  C   UNL     1       1.592   7.512  20.729  0.00  0.00    +0.000 A 
ATOM     15  C   UNL     1       1.116   8.736  20.445  0.00  0.00    +0.000 A 
ATOM     16  N   UNL     1       1.217   9.319  19.193  0.00  0.00    +0.000 N 
ATOM     17  C   UNL     1       2.047   8.714  18.236  0.00  0.00    +0.000 A 
ATOM     18  O   UNL     1       2.410   9.245  17.191  0.00  0.00    +0.000 OA
ATOM     19  C   UNL     1       2.455   7.296  18.500  0.00  0.00    +0.000 A 
BRANCH  13  20
ATOM     20  S   UNL     1       2.633   5.066  20.007  0.00  0.00    +0.000 S 
ATOM     21  O   UNL     1       2.192   4.713  21.346  0.00  0.00    +0.000 OA
ATOM     22  O   UNL     1       4.017   4.857  19.621  0.00  0.00    +0.000 OA
BRANCH  20  24
ATOM     23  C   UNL     1       2.417   3.701  17.638  0.00  0.00    +0.000 C 
ATOM     24  C   UNL     1       1.618   4.140  18.859  0.00  0.00    +0.000 C 
ENDBRANCH  20  24
ENDBRANCH  13  20
ENDBRANCH   1  16
BRANCH   1  25
ATOM     25  C   UNL     1      -1.030  10.492  19.081  0.00  0.00    +0.000 C 
BRANCH  25  26
ATOM     26  C   UNL     1      -1.922  10.895  17.886  0.00  0.00    +0.000 C 
ATOM     27  C   UNL     1      -3.376  11.177  18.312  0.00  0.00    +0.000 C 
ATOM     28  C   UNL     1      -4.204  11.593  17.095  0.00  0.00    +0.000 C 
ATOM     29  O   UNL     1      -4.152  10.605  16.067  0.00  0.00    +0.000 OA
ATOM     30  C   UNL     1      -2.823  10.368  15.612  0.00  0.00    +0.000 C 
ATOM     31  C   UNL     1      -1.959   9.866  16.751  0.00  0.00    +0.000 C 
ENDBRANCH  25  26
ENDBRANCH   1  25
TORSDOF 6
ENDMDL
MODEL 9
REMARK VINA RESULT:      -7.9      2.860      7.630
REMARK  Name = 
REMARK  8 active torsions:
REMARK  status: ('A' for Active; 'I' for Inactive)
REMARK    1  A    between atoms: C_1  and  C_2
REMARK    2  A    between atoms: C_2  and  S_3
REMARK    3  A    between atoms: S_3  and  C_6
REMARK    4  A    between atoms: N_9  and  C_10
REMARK    5  A    between atoms: C_10  and  C_11
REMARK    6  A    between atoms: C_10  and  C_18
REMARK    7  A    between atoms: C_11  and  C_12
REMARK    8  A    between atoms: C_24  and  C_25
REMARK                            x       y       z     vdW  Elec       q    Type
REMARK                         _______ _______ _______ _____ _____    ______ ____
ROOT
ATOM      1  C   UNL     1       2.303   7.280  19.750  0.00  0.00    +0.000 C 
ENDROOT
BRANCH   1   2
ATOM      2  C   UNL     1       3.190   6.907  18.494  0.00  0.00    +0.000 C 
ATOM      3  O   UNL     1       2.870   7.271  17.359  0.00  0.00    +0.000 OA
ATOM      4  N   UNL     1       4.344   6.148  18.674  0.00  0.00    +0.000 N 
ATOM      5  C   UNL     1       4.968   5.624  17.514  0.00  0.00    +0.000 A 
ATOM      6  C   UNL     1       5.223   6.445  16.420  0.00  0.00    +0.000 A 
ATOM      7  C   UNL     1       5.550   5.873  15.198  0.00  0.00    +0.000 A 
ATOM      8  C   UNL     1       5.637   4.490  15.097  0.00  0.00    +0.000 A 
ATOM      9  C   UNL     1       5.886   3.832  13.776  0.00  0.00    +0.000 C 
ATOM     10  C   UNL     1       5.458   3.754  16.267  0.00  0.00    +0.000 A 
ATOM     11  N   UNL     1       5.153   4.293  17.481  0.00  0.00    +0.000 NA
ATOM     12  H   UNL     1       4.375   5.489  19.440  0.00  0.00    +0.000 HD
ENDBRANCH   1   2
BRANCH   1  16
ATOM     13  C   UNL     1      -0.290  10.742  19.516  0.00  0.00    +0.000 A 
ATOM     14  C   UNL     1       0.615  10.429  18.453  0.00  0.00    +0.000 A 
ATOM     15  C   UNL     1       1.436   9.373  18.571  0.00  0.00    +0.000 A 
ATOM     16  N   UNL     1       1.499   8.581  19.704  0.00  0.00    +0.000 N 
ATOM     17  C   UNL     1       0.852   9.024  20.869  0.00  0.00    +0.000 A 
ATOM     18  O   UNL     1       1.027   8.551  21.987  0.00  0.00    +0.000 OA
ATOM     19  C   UNL     1      -0.167  10.110  20.700  0.00  0.00    +0.000 A 
BRANCH  13  20
ATOM     20  S   UNL     1      -1.492  11.993  19.295  0.00  0.00    +0.000 S 
ATOM     21  O   UNL     1      -0.941  13.017  18.423  0.00  0.00    +0.000 OA
ATOM     22  O   UNL     1      -2.047  12.362  20.584  0.00  0.00    +0.000 OA
BRANCH  20  24
ATOM     23  C   UNL     1      -2.517  11.199  16.879  0.00  0.00    +0.000 C 
ATOM     24  C   UNL     1      -2.788  11.165  18.377  0.00  0.00    +0.000 C 
ENDBRANCH  20  24
ENDBRANCH  13  20
ENDBRANCH   1  16
BRANCH   1  25
ATOM     25  C   UNL     1       1.379   6.092  20.175  0.00  0.00    +0.000 C 
BRANCH  25  26
ATOM     26  C   UNL     1       1.978   4.683  19.970  0.00  0.00    +0.000 C 
ATOM     27  C   UNL     1       1.408   3.981  18.722  0.00  0.00    +0.000 C 
ATOM     28  C   UNL     1       2.053   2.604  18.557  0.00  0.00    +0.000 C 
ATOM     29  O   UNL     1       1.875   1.803  19.724  0.00  0.00    +0.000 OA
ATOM     30  C   UNL     1       2.448   2.401  20.883  0.00  0.00    +0.000 C 
ATOM     31  C   UNL     1       1.793   3.739  21.162  0.00  0.00    +0.000 C 
ENDBRANCH  25  26
ENDBRANCH   1  25
TORSDOF 6
ENDMDL
