MODEL 1
REMARK VINA RESULT:      -7.9      0.000      0.000
REMARK  Name = 
REMARK  6 active torsions:
REMARK  status: ('A' for Active; 'I' for Inactive)
REMARK    1  A    between atoms: C_1  and  N_2
REMARK    2  A    between atoms: N_2  and  C_3
REMARK    3  A    between atoms: C_3  and  C_4
REMARK    4  A    between atoms: C_4  and  C_5
REMARK    5  A    between atoms: C_5  and  C_6
REMARK    6  A    between atoms: N_14  and  C_15
REMARK                            x       y       z     vdW  Elec       q    Type
REMARK                         _______ _______ _______ _____ _____    ______ ____
ROOT
ATOM      1  C   UNL     1       4.894   4.865  17.590  0.00  0.00    +0.000 C 
ATOM      2  C   UNL     1       4.941   4.025  18.860  0.00  0.00    +0.000 C 
ATOM      3  C   UNL     1       3.574   3.893  19.457  0.00  0.00    +0.000 A 
ATOM      4  C   UNL     1       3.214   2.709  20.120  0.00  0.00    +0.000 A 
ATOM      5  C   UNL     1       1.961   2.586  20.711  0.00  0.00    +0.000 A 
ATOM      6  C   UNL     1       1.067   3.648  20.651  0.00  0.00    +0.000 A 
ATOM      7  C   UNL     1       1.425   4.831  20.001  0.00  0.00    +0.000 A 
ATOM      8  C   UNL     1       2.690   4.977  19.404  0.00  0.00    +0.000 A 
ATOM      9  N   UNL     1       3.086   6.162  18.704  0.00  0.00    +0.000 N 
ATOM     10  C   UNL     1       4.206   6.206  17.866  0.00  0.00    +0.000 C 
ATOM     11  O   UNL     1       4.604   7.235  17.308  0.00  0.00    +0.000 OA
ENDROOT
BRANCH   9  12
ATOM     12  C   UNL     1       2.339   7.354  18.922  0.00  0.00    +0.000 A 
ATOM     13  C   UNL     1       1.992   8.173  17.841  0.00  0.00    +0.000 A 
ATOM     14  C   UNL     1       1.238   9.329  18.049  0.00  0.00    +0.000 A 
ATOM     15  C   UNL     1       0.856   9.692  19.340  0.00  0.00    +0.000 A 
ATOM     16  C   UNL     1       1.222   8.897  20.426  0.00  0.00    +0.000 A 
ATOM     17  C   UNL     1       1.955   7.729  20.219  0.00  0.00    +0.000 A 
ENDBRANCH   9  12
BRANCH   1  18
ATOM     18  C   UNL     1       6.311   5.086  17.019  0.00  0.00    +0.000 C 
BRANCH  18  19
ATOM     19  C   UNL     1       7.408   5.084  18.089  0.00  0.00    +0.000 C 
BRANCH  19  20
ATOM     20  C   UNL     1       7.820   6.509  18.464  0.00  0.00    +0.000 C 
BRANCH  20  22
ATOM     21  C   UNL     1       7.882   8.776  17.676  0.00  0.00    +0.000 C 
ATOM     22  N   UNL     1       7.598   7.393  17.321  0.00  0.00    +0.000 NA
ATOM     23  H   UNL     1       8.203   7.114  16.549  0.00  0.00    +0.000 HD
ENDBRANCH  20  22
ENDBRANCH  19  20
ENDBRANCH  18  19
ENDBRANCH   1  18
TORSDOF 5
ENDMDL
MODEL 2
REMARK VINA RESULT:      -7.9      2.213      2.983
REMARK  Name = 
REMARK  6 active torsions:
REMARK  status: ('A' for Active; 'I' for Inactive)
REMARK    1  A    between atoms: C_1  and  N_2
REMARK    2  A    between atoms: N_2  and  C_3
REMARK    3  A    between atoms: C_3  and  C_4
REMARK    4  A    between atoms: C_4  and  C_5
REMARK    5  A    between atoms: C_5  and  C_6
REMARK    6  A    between atoms: N_14  and  C_15
REMARK                            x       y       z     vdW  Elec       q    Type
REMARK                         _______ _______ _______ _____ _____    ______ ____
ROOT
ATOM      1  C   UNL     1       5.138   4.871  16.642  0.00  0.00    +0.000 C 
ATOM      2  C   UNL     1       4.994   3.650  17.542  0.00  0.00    +0.000 C 
ATOM      3  C   UNL     1       3.563   3.444  17.927  0.00  0.00    +0.000 A 
ATOM      4  C   UNL     1       3.069   2.142  18.104  0.00  0.00    +0.000 A 
ATOM      5  C   UNL     1       1.752   1.935  18.498  0.00  0.00    +0.000 A 
ATOM      6  C   UNL     1       0.924   3.028  18.726  0.00  0.00    +0.000 A 
ATOM      7  C   UNL     1       1.415   4.325  18.560  0.00  0.00    +0.000 A 
ATOM      8  C   UNL     1       2.745   4.555  18.170  0.00  0.00    +0.000 A 
ATOM      9  N   UNL     1       3.279   5.866  17.963  0.00  0.00    +0.000 N 
ATOM     10  C   UNL     1       4.490   6.094  17.299  0.00  0.00    +0.000 C 
ATOM     11  O   UNL     1       5.001   7.213  17.170  0.00  0.00    +0.000 OA
ENDROOT
BRANCH   9  12
ATOM     12  C   UNL     1       2.571   6.975  18.509  0.00  0.00    +0.000 A 
ATOM     13  C   UNL     1       2.315   7.037  19.884  0.00  0.00    +0.000 A 
ATOM     14  C   UNL     1       1.644   8.135  20.424  0.00  0.00    +0.000 A 
ATOM     15  C   UNL     1       1.196   9.160  19.591  0.00  0.00    +0.000 A 
ATOM     16  C   UNL     1       1.422   9.093  18.218  0.00  0.00    +0.000 A 
ATOM     17  C   UNL     1       2.112   8.008  17.677  0.00  0.00    +0.000 A 
ENDBRANCH   9  12
BRANCH   1  18
ATOM     18  C   UNL     1       6.621   5.149  16.315  0.00  0.00    +0.000 C 
BRANCH  18  19
ATOM     19  C   UNL     1       7.010   4.778  14.880  0.00  0.00    +0.000 C 
BRANCH  19  20
ATOM     20  C   UNL     1       5.841   4.129  14.138  0.00  0.00    +0.000 C 
BRANCH  20  22
ATOM     21  C   UNL     1       5.368   3.172  11.986  0.00  0.00    +0.000 C 
ATOM     22  N   UNL     1       6.361   3.309  13.043  0.00  0.00    +0.000 NA
ATOM     23  H   UNL     1       7.201   3.740  12.660  0.00  0.00    +0.000 HD
ENDBRANCH  20  22
ENDBRANCH  19  20
ENDBRANCH  18  19
ENDBRANCH   1  18
TORSDOF 5
ENDMDL
MODEL 3
REMARK VINA RESULT:      -7.8      0.589      1.183
REMARK  Name = 
REMARK  6 active torsions:
REMARK  status: ('A' for Active; 'I' for Inactive)
REMARK    1  A    between atoms: C_1  and  N_2
REMARK    2  A    between atoms: N_2  and  C_3
REMARK    3  A    between atoms: C_3  and  C_4
REMARK    4  A    between atoms: C_4  and  C_5
REMARK    5  A    between atoms: C_5  and  C_6
REMARK    6  A    between atoms: N_14  and  C_15
REMARK                            x       y       z     vdW  Elec       q    Type
REMARK                         _______ _______ _______ _____ _____    ______ ____
ROOT
ATOM      1  C   UNL     1       4.993   4.896  17.125  0.00  0.00    +0.000 C 
ATOM      2  C   UNL     1       4.927   3.824  18.206  0.00  0.00    +0.000 C 
ATOM      3  C   UNL     1       3.518   3.631  18.671  0.00  0.00    +0.000 A 
ATOM      4  C   UNL     1       3.082   2.355  19.064  0.00  0.00    +0.000 A 
ATOM      5  C   UNL     1       1.787   2.166  19.534  0.00  0.00    +0.000 A 
ATOM      6  C   UNL     1       0.924   3.252  19.622  0.00  0.00    +0.000 A 
ATOM      7  C   UNL     1       1.357   4.524  19.242  0.00  0.00    +0.000 A 
ATOM      8  C   UNL     1       2.665   4.737  18.772  0.00  0.00    +0.000 A 
ATOM      9  N   UNL     1       3.138   6.018  18.347  0.00  0.00    +0.000 N 
ATOM     10  C   UNL     1       4.318   6.182  17.610  0.00  0.00    +0.000 C 
ATOM     11  O   UNL     1       4.779   7.285  17.293  0.00  0.00    +0.000 OA
ENDROOT
BRANCH   9  12
ATOM     12  C   UNL     1       2.405   7.173  18.742  0.00  0.00    +0.000 A 
ATOM     13  C   UNL     1       2.109   7.388  20.093  0.00  0.00    +0.000 A 
ATOM     14  C   UNL     1       1.412   8.532  20.486  0.00  0.00    +0.000 A 
ATOM     15  C   UNL     1       0.978   9.449  19.529  0.00  0.00    +0.000 A 
ATOM     16  C   UNL     1       1.243   9.228  18.178  0.00  0.00    +0.000 A 
ATOM     17  C   UNL     1       1.959   8.098  17.785  0.00  0.00    +0.000 A 
ENDBRANCH   9  12
BRANCH   1  18
ATOM     18  C   UNL     1       6.453   5.171  16.704  0.00  0.00    +0.000 C 
BRANCH  18  19
ATOM     19  C   UNL     1       7.451   5.072  17.863  0.00  0.00    +0.000 C 
BRANCH  19  20
ATOM     20  C   UNL     1       7.856   6.457  18.369  0.00  0.00    +0.000 C 
BRANCH  20  22
ATOM     21  C   UNL     1       7.942   8.783  17.774  0.00  0.00    +0.000 C 
ATOM     22  N   UNL     1       7.687   7.432  17.291  0.00  0.00    +0.000 NA
ATOM     23  H   UNL     1       8.334   7.220  16.532  0.00  0.00    +0.000 HD
ENDBRANCH  20  22
ENDBRANCH  19  20
ENDBRANCH  18  19
ENDBRANCH   1  18
TORSDOF 5
ENDMDL
MODEL 4
REMARK VINA RESULT:      -7.8      1.565      4.447
REMARK  Name = 
REMARK  6 active torsions:
REMARK  status: ('A' for Active; 'I' for Inactive)
REMARK    1  A    between atoms: C_1  and  N_2
REMARK    2  A    between atoms: N_2  and  C_3
REMARK    3  A    between atoms: C_3  and  C_4
REMARK    4  A    between atoms: C_4  and  C_5
REMARK    5  A    between atoms: C_5  and  C_6
REMARK    6  A    between atoms: N_14  and  C_15
REMARK                            x       y       z     vdW  Elec       q    Type
REMARK                         _______ _______ _______ _____ _____    ______ ____
ROOT
ATOM      1  C   UNL     1       4.178   6.944  17.546  0.00  0.00    +0.000 C 
ATOM      2  C   UNL     1       3.046   7.935  17.309  0.00  0.00    +0.000 C 
ATOM      3  C   UNL     1       2.287   8.183  18.575  0.00  0.00    +0.000 A 
ATOM      4  C   UNL     1       1.738   9.452  18.822  0.00  0.00    +0.000 A 
ATOM      5  C   UNL     1       1.000   9.687  19.976  0.00  0.00    +0.000 A 
ATOM      6  C   UNL     1       0.798   8.655  20.885  0.00  0.00    +0.000 A 
ATOM      7  C   UNL     1       1.334   7.389  20.638  0.00  0.00    +0.000 A 
ATOM      8  C   UNL     1       2.077   7.129  19.473  0.00  0.00    +0.000 A 
ATOM      9  N   UNL     1       2.667   5.855  19.196  0.00  0.00    +0.000 N 
ATOM     10  C   UNL     1       3.640   5.671  18.206  0.00  0.00    +0.000 C 
ATOM     11  O   UNL     1       4.111   4.568  17.905  0.00  0.00    +0.000 OA
ENDROOT
BRANCH   9  12
ATOM     12  C   UNL     1       2.196   4.723  19.921  0.00  0.00    +0.000 A 
ATOM     13  C   UNL     1       2.753   4.405  21.165  0.00  0.00    +0.000 A 
ATOM     14  C   UNL     1       2.276   3.310  21.888  0.00  0.00    +0.000 A 
ATOM     15  C   UNL     1       1.264   2.509  21.358  0.00  0.00    +0.000 A 
ATOM     16  C   UNL     1       0.724   2.802  20.107  0.00  0.00    +0.000 A 
ATOM     17  C   UNL     1       1.183   3.909  19.392  0.00  0.00    +0.000 A 
ENDBRANCH   9  12
BRANCH   1  18
ATOM     18  C   UNL     1       4.908   6.609  16.228  0.00  0.00    +0.000 C 
BRANCH  18  19
ATOM     19  C   UNL     1       6.427   6.479  16.386  0.00  0.00    +0.000 C 
BRANCH  19  20
ATOM     20  C   UNL     1       6.920   5.111  15.912  0.00  0.00    +0.000 C 
BRANCH  20  22
ATOM     21  C   UNL     1       7.614   4.912  18.203  0.00  0.00    +0.000 C 
ATOM     22  N   UNL     1       7.036   4.215  17.062  0.00  0.00    +0.000 NA
ATOM     23  H   UNL     1       6.114   3.862  17.317  0.00  0.00    +0.000 HD
ENDBRANCH  20  22
ENDBRANCH  19  20
ENDBRANCH  18  19
ENDBRANCH   1  18
TORSDOF 5
ENDMDL
MODEL 5
REMARK VINA RESULT:      -7.8      2.157      2.670
REMARK  Name = 
REMARK  6 active torsions:
REMARK  status: ('A' for Active; 'I' for Inactive)
REMARK    1  A    between atoms: C_1  and  N_2
REMARK    2  A    between atoms: N_2  and  C_3
REMARK    3  A    between atoms: C_3  and  C_4
REMARK    4  A    between atoms: C_4  and  C_5
REMARK    5  A    between atoms: C_5  and  C_6
REMARK    6  A    between atoms: N_14  and  C_15
REMARK                            x       y       z     vdW  Elec       q    Type
REMARK                         _______ _______ _______ _____ _____    ______ ____
ROOT
ATOM      1  C   UNL     1       5.136   4.868  16.697  0.00  0.00    +0.000 C 
ATOM      2  C   UNL     1       4.973   3.650  17.598  0.00  0.00    +0.000 C 
ATOM      3  C   UNL     1       3.536   3.457  17.971  0.00  0.00    +0.000 A 
ATOM      4  C   UNL     1       3.029   2.160  18.146  0.00  0.00    +0.000 A 
ATOM      5  C   UNL     1       1.707   1.966  18.528  0.00  0.00    +0.000 A 
ATOM      6  C   UNL     1       0.887   3.067  18.746  0.00  0.00    +0.000 A 
ATOM      7  C   UNL     1       1.391   4.359  18.583  0.00  0.00    +0.000 A 
ATOM      8  C   UNL     1       2.727   4.576  18.205  0.00  0.00    +0.000 A 
ATOM      9  N   UNL     1       3.274   5.882  18.000  0.00  0.00    +0.000 N 
ATOM     10  C   UNL     1       4.493   6.098  17.346  0.00  0.00    +0.000 C 
ATOM     11  O   UNL     1       5.015   7.211  17.220  0.00  0.00    +0.000 OA
ENDROOT
BRANCH   9  12
ATOM     12  C   UNL     1       2.572   6.999  18.537  0.00  0.00    +0.000 A 
ATOM     13  C   UNL     1       2.138   8.028  17.694  0.00  0.00    +0.000 A 
ATOM     14  C   UNL     1       1.427   9.110  18.215  0.00  0.00    +0.000 A 
ATOM     15  C   UNL     1       1.176   9.188  19.585  0.00  0.00    +0.000 A 
ATOM     16  C   UNL     1       1.630   8.181  20.436  0.00  0.00    +0.000 A 
ATOM     17  C   UNL     1       2.320   7.086  19.915  0.00  0.00    +0.000 A 
ENDBRANCH   9  12
BRANCH   1  18
ATOM     18  C   UNL     1       6.624   5.131  16.384  0.00  0.00    +0.000 C 
BRANCH  18  19
ATOM     19  C   UNL     1       7.034   4.712  14.968  0.00  0.00    +0.000 C 
BRANCH  19  20
ATOM     20  C   UNL     1       5.824   4.249  14.154  0.00  0.00    +0.000 C 
BRANCH  20  22
ATOM     21  C   UNL     1       6.923   3.845  12.057  0.00  0.00    +0.000 C 
ATOM     22  N   UNL     1       6.250   3.232  13.193  0.00  0.00    +0.000 NA
ATOM     23  H   UNL     1       6.886   2.576  13.646  0.00  0.00    +0.000 HD
ENDBRANCH  20  22
ENDBRANCH  19  20
ENDBRANCH  18  19
ENDBRANCH   1  18
TORSDOF 5
ENDMDL
MODEL 6
REMARK VINA RESULT:      -7.7      1.785      5.782
REMARK  Name = 
REMARK  6 active torsions:
REMARK  status: ('A' for Active; 'I' for Inactive)
REMARK    1  A    between atoms: C_1  and  N_2
REMARK    2  A    between atoms: N_2  and  C_3
REMARK    3  A    between atoms: C_3  and  C_4
REMARK    4  A    between atoms: C_4  and  C_5
REMARK    5  A    between atoms: C_5  and  C_6
REMARK    6  A    between atoms: N_14  and  C_15
REMARK                            x       y       z     vdW  Elec       q    Type
REMARK                         _______ _______ _______ _____ _____    ______ ____
ROOT
ATOM      1  C   UNL     1       2.210   4.925  20.374  0.00  0.00    +0.000 C 
ATOM      2  C   UNL     1       2.021   6.346  20.889  0.00  0.00    +0.000 C 
ATOM      3  C   UNL     1       2.074   7.328  19.761  0.00  0.00    +0.000 A 
ATOM      4  C   UNL     1       1.283   8.487  19.807  0.00  0.00    +0.000 A 
ATOM      5  C   UNL     1       1.349   9.426  18.784  0.00  0.00    +0.000 A 
ATOM      6  C   UNL     1       2.213   9.218  17.715  0.00  0.00    +0.000 A 
ATOM      7  C   UNL     1       3.009   8.071  17.671  0.00  0.00    +0.000 A 
ATOM      8  C   UNL     1       2.962   7.114  18.699  0.00  0.00    +0.000 A 
ATOM      9  N   UNL     1       3.739   5.912  18.678  0.00  0.00    +0.000 N 
ATOM     10  C   UNL     1       3.484   4.831  19.530  0.00  0.00    +0.000 C 
ATOM     11  O   UNL     1       4.186   3.814  19.575  0.00  0.00    +0.000 OA
ENDROOT
BRANCH   9  12
ATOM     12  C   UNL     1       4.852   5.846  17.791  0.00  0.00    +0.000 A 
ATOM     13  C   UNL     1       4.701   5.294  16.514  0.00  0.00    +0.000 A 
ATOM     14  C   UNL     1       5.784   5.252  15.635  0.00  0.00    +0.000 A 
ATOM     15  C   UNL     1       7.032   5.727  16.039  0.00  0.00    +0.000 A 
ATOM     16  C   UNL     1       7.198   6.252  17.319  0.00  0.00    +0.000 A 
ATOM     17  C   UNL     1       6.112   6.318  18.192  0.00  0.00    +0.000 A 
ENDBRANCH   9  12
BRANCH   1  18
ATOM     18  C   UNL     1       2.251   3.913  21.539  0.00  0.00    +0.000 C 
BRANCH  18  19
ATOM     19  C   UNL     1       1.404   2.660  21.290  0.00  0.00    +0.000 C 
BRANCH  19  20
ATOM     20  C   UNL     1       0.940   2.583  19.835  0.00  0.00    +0.000 C 
BRANCH  20  22
ATOM     21  C   UNL     1       2.114   2.160  17.783  0.00  0.00    +0.000 C 
ATOM     22  N   UNL     1       1.791   1.644  19.106  0.00  0.00    +0.000 NA
ATOM     23  H   UNL     1       2.654   1.488  19.625  0.00  0.00    +0.000 HD
ENDBRANCH  20  22
ENDBRANCH  19  20
ENDBRANCH  18  19
ENDBRANCH   1  18
TORSDOF 5
ENDMDL
MODEL 7
REMARK VINA RESULT:      -7.7      1.791      5.837
REMARK  Name = 
REMARK  6 active torsions:
REMARK  status: ('A' for Active; 'I' for Inactive)
REMARK    1  A    between atoms: C_1  and  N_2
REMARK    2  A    between atoms: N_2  and  C_3
REMARK    3  A    between atoms: C_3  and  C_4
REMARK    4  A    between atoms: C_4  and  C_5
REMARK    5  A    between atoms: C_5  and  C_6
REMARK    6  A    between atoms: N_14  and  C_15
REMARK                            x       y       z     vdW  Elec       q    Type
REMARK                         _______ _______ _______ _____ _____    ______ ____
ROOT
ATOM      1  C   UNL     1       2.216   4.908  20.373  0.00  0.00    +0.000 C 
ATOM      2  C   UNL     1       2.032   6.331  20.885  0.00  0.00    +0.000 C 
ATOM      3  C   UNL     1       2.087   7.310  19.755  0.00  0.00    +0.000 A 
ATOM      4  C   UNL     1       1.300   8.471  19.799  0.00  0.00    +0.000 A 
ATOM      5  C   UNL     1       1.368   9.408  18.773  0.00  0.00    +0.000 A 
ATOM      6  C   UNL     1       2.230   9.194  17.704  0.00  0.00    +0.000 A 
ATOM      7  C   UNL     1       3.023   8.045  17.662  0.00  0.00    +0.000 A 
ATOM      8  C   UNL     1       2.973   7.090  18.693  0.00  0.00    +0.000 A 
ATOM      9  N   UNL     1       3.748   5.887  18.674  0.00  0.00    +0.000 N 
ATOM     10  C   UNL     1       3.490   4.808  19.528  0.00  0.00    +0.000 C 
ATOM     11  O   UNL     1       4.189   3.789  19.575  0.00  0.00    +0.000 OA
ENDROOT
BRANCH   9  12
ATOM     12  C   UNL     1       4.860   5.815  17.787  0.00  0.00    +0.000 A 
ATOM     13  C   UNL     1       6.109   6.305  18.186  0.00  0.00    +0.000 A 
ATOM     14  C   UNL     1       7.206   6.212  17.328  0.00  0.00    +0.000 A 
ATOM     15  C   UNL     1       7.054   5.663  16.055  0.00  0.00    +0.000 A 
ATOM     16  C   UNL     1       5.807   5.199  15.639  0.00  0.00    +0.000 A 
ATOM     17  C   UNL     1       4.714   5.268  16.503  0.00  0.00    +0.000 A 
ENDBRANCH   9  12
BRANCH   1  18
ATOM     18  C   UNL     1       2.256   3.898  21.541  0.00  0.00    +0.000 C 
BRANCH  18  19
ATOM     19  C   UNL     1       1.459   2.618  21.268  0.00  0.00    +0.000 C 
BRANCH  19  20
ATOM     20  C   UNL     1       0.965   2.568  19.821  0.00  0.00    +0.000 C 
BRANCH  20  22
ATOM     21  C   UNL     1       2.109   2.171  17.747  0.00  0.00    +0.000 C 
ATOM     22  N   UNL     1       1.790   1.630  19.061  0.00  0.00    +0.000 NA
ATOM     23  H   UNL     1       2.656   1.446  19.568  0.00  0.00    +0.000 HD
ENDBRANCH  20  22
ENDBRANCH  19  20
ENDBRANCH  18  19
ENDBRANCH   1  18
TORSDOF 5
ENDMDL
MODEL 8
REMARK VINA RESULT:      -7.6      2.124      4.753
REMARK  Name = 
REMARK  6 active torsions:
REMARK  status: ('A' for Active; 'I' for Inactive)
REMARK    1  A    between atoms: C_1  and  N_2
REMARK    2  A    between atoms: N_2  and  C_3
REMARK    3  A    between atoms: C_3  and  C_4
REMARK    4  A    between atoms: C_4  and  C_5
REMARK    5  A    between atoms: C_5  and  C_6
REMARK    6  A    between atoms: N_14  and  C_15
REMARK                            x       y       z     vdW  Elec       q    Type
REMARK                         _______ _______ _______ _____ _____    ______ ____
ROOT
ATOM      1  C   UNL     1       5.250   6.238  17.551  0.00  0.00    +0.000 C 
ATOM      2  C   UNL     1       4.287   7.187  16.848  0.00  0.00    +0.000 C 
ATOM      3  C   UNL     1       3.248   7.687  17.801  0.00  0.00    +0.000 A 
ATOM      4  C   UNL     1       2.743   8.990  17.661  0.00  0.00    +0.000 A 
ATOM      5  C   UNL     1       1.751   9.456  18.517  0.00  0.00    +0.000 A 
ATOM      6  C   UNL     1       1.252   8.621  19.509  0.00  0.00    +0.000 A 
ATOM      7  C   UNL     1       1.745   7.322  19.645  0.00  0.00    +0.000 A 
ATOM      8  C   UNL     1       2.742   6.829  18.786  0.00  0.00    +0.000 A 
ATOM      9  N   UNL     1       3.294   5.515  18.909  0.00  0.00    +0.000 N 
ATOM     10  C   UNL     1       4.474   5.126  18.263  0.00  0.00    +0.000 C 
ATOM     11  O   UNL     1       4.929   3.977  18.301  0.00  0.00    +0.000 OA
ENDROOT
BRANCH   9  12
ATOM     12  C   UNL     1       2.576   4.552  19.675  0.00  0.00    +0.000 A 
ATOM     13  C   UNL     1       2.912   4.329  21.015  0.00  0.00    +0.000 A 
ATOM     14  C   UNL     1       2.193   3.404  21.775  0.00  0.00    +0.000 A 
ATOM     15  C   UNL     1       1.159   2.673  21.191  0.00  0.00    +0.000 A 
ATOM     16  C   UNL     1       0.837   2.868  19.848  0.00  0.00    +0.000 A 
ATOM     17  C   UNL     1       1.538   3.808  19.093  0.00  0.00    +0.000 A 
ENDBRANCH   9  12
BRANCH   1  18
ATOM     18  C   UNL     1       6.269   5.642  16.556  0.00  0.00    +0.000 C 
BRANCH  18  19
ATOM     19  C   UNL     1       5.658   5.290  15.195  0.00  0.00    +0.000 C 
BRANCH  19  20
ATOM     20  C   UNL     1       6.711   4.716  14.246  0.00  0.00    +0.000 C 
BRANCH  20  22
ATOM     21  C   UNL     1       6.363   3.436  12.244  0.00  0.00    +0.000 C 
ATOM     22  N   UNL     1       6.226   3.451  13.693  0.00  0.00    +0.000 NA
ATOM     23  H   UNL     1       6.758   2.677  14.089  0.00  0.00    +0.000 HD
ENDBRANCH  20  22
ENDBRANCH  19  20
ENDBRANCH  18  19
ENDBRANCH   1  18
TORSDOF 5
ENDMDL
MODEL 9
REMARK VINA RESULT:      -7.6      1.219      4.175
REMARK  Name = 
REMARK  6 active torsions:
REMARK  status: ('A' for Active; 'I' for Inactive)
REMARK    1  A    between atoms: C_1  and  N_2
REMARK    2  A    between atoms: N_2  and  C_3
REMARK    3  A    between atoms: C_3  and  C_4
REMARK    4  A    between atoms: C_4  and  C_5
REMARK    5  A    between atoms: C_5  and  C_6
REMARK    6  A    between atoms: N_14  and  C_15
REMARK                            x       y       z     vdW  Elec       q    Type
REMARK                         _______ _______ _______ _____ _____    ______ ____
ROOT
ATOM      1  C   UNL     1       4.758   6.618  17.439  0.00  0.00    +0.000 C 
ATOM      2  C   UNL     1       3.710   7.606  16.942  0.00  0.00    +0.000 C 
ATOM      3  C   UNL     1       2.793   8.006  18.054  0.00  0.00    +0.000 A 
ATOM      4  C   UNL     1       2.265   9.307  18.089  0.00  0.00    +0.000 A 
ATOM      5  C   UNL     1       1.382   9.683  19.095  0.00  0.00    +0.000 A 
ATOM      6  C   UNL     1       1.015   8.759  20.066  0.00  0.00    +0.000 A 
ATOM      7  C   UNL     1       1.529   7.461  20.029  0.00  0.00    +0.000 A 
ATOM      8  C   UNL     1       2.417   7.060  19.016  0.00  0.00    +0.000 A 
ATOM      9  N   UNL     1       2.988   5.749  18.958  0.00  0.00    +0.000 N 
ATOM     10  C   UNL     1       4.082   5.436  18.142  0.00  0.00    +0.000 C 
ATOM     11  O   UNL     1       4.546   4.296  18.026  0.00  0.00    +0.000 OA
ENDROOT
BRANCH   9  12
ATOM     12  C   UNL     1       2.376   4.713  19.719  0.00  0.00    +0.000 A 
ATOM     13  C   UNL     1       2.798   4.462  21.030  0.00  0.00    +0.000 A 
ATOM     14  C   UNL     1       2.182   3.464  21.787  0.00  0.00    +0.000 A 
ATOM     15  C   UNL     1       1.165   2.689  21.228  0.00  0.00    +0.000 A 
ATOM     16  C   UNL     1       0.759   2.914  19.914  0.00  0.00    +0.000 A 
ATOM     17  C   UNL     1       1.356   3.926  19.162  0.00  0.00    +0.000 A 
ENDBRANCH   9  12
BRANCH   1  18
ATOM     18  C   UNL     1       5.651   6.125  16.280  0.00  0.00    +0.000 C 
BRANCH  18  19
ATOM     19  C   UNL     1       7.104   5.869  16.695  0.00  0.00    +0.000 C 
BRANCH  19  20
ATOM     20  C   UNL     1       7.558   6.860  17.768  0.00  0.00    +0.000 C 
BRANCH  20  22
ATOM     21  C   UNL     1       8.298   9.117  18.127  0.00  0.00    +0.000 C 
ATOM     22  N   UNL     1       7.746   8.177  17.160  0.00  0.00    +0.000 NA
ATOM     23  H   UNL     1       8.380   8.102  16.366  0.00  0.00    +0.000 HD
ENDBRANCH  20  22
ENDBRANCH  19  20
ENDBRANCH  18  19
ENDBRANCH   1  18
TORSDOF 5
ENDMDL
