MODEL 1
REMARK VINA RESULT:      -8.6      0.000      0.000
REMARK  Name = 
REMARK  5 active torsions:
REMARK  status: ('A' for Active; 'I' for Inactive)
REMARK    1  A    between atoms: C_1  and  O_2
REMARK    2  A    between atoms: O_2  and  C_3
REMARK    3  A    between atoms: C_6  and  C_7
REMARK    4  A    between atoms: C_11  and  C_12
REMARK    5  A    between atoms: C_16  and  N_17
REMARK                            x       y       z     vdW  Elec       q    Type
REMARK                         _______ _______ _______ _____ _____    ______ ____
ROOT
ATOM      1  C   UNL     1      -1.007  11.566  21.600  0.00  0.00    +0.000 A 
ATOM      2  N   UNL     1      -0.227  10.540  21.892  0.00  0.00    +0.000 NA
ATOM      3  C   UNL     1       0.208  10.038  20.702  0.00  0.00    +0.000 A 
ATOM      4  C   UNL     1       1.110   8.988  20.479  0.00  0.00    +0.000 A 
ATOM      5  C   UNL     1       1.467   8.668  19.164  0.00  0.00    +0.000 A 
ATOM      6  C   UNL     1       0.867   9.380  18.106  0.00  0.00    +0.000 A 
ATOM      7  C   UNL     1      -0.063  10.413  18.310  0.00  0.00    +0.000 A 
ATOM      8  C   UNL     1      -0.351  10.727  19.638  0.00  0.00    +0.000 A 
ATOM      9  N   UNL     1      -1.150  11.678  20.234  0.00  0.00    +0.000 N 
ATOM     10  H   UNL     1      -1.738  12.342  19.752  0.00  0.00    +0.000 HD
ENDROOT
BRANCH   5  11
ATOM     11  C   UNL     1       2.463   7.632  18.857  0.00  0.00    +0.000 A 
ATOM     12  N   UNL     1       3.192   7.584  17.756  0.00  0.00    +0.000 NA
ATOM     13  C   UNL     1       3.997   6.483  17.870  0.00  0.00    +0.000 A 
ATOM     14  C   UNL     1       4.961   6.006  16.975  0.00  0.00    +0.000 A 
ATOM     15  C   UNL     1       5.653   4.839  17.324  0.00  0.00    +0.000 A 
ATOM     16  C   UNL     1       5.387   4.159  18.526  0.00  0.00    +0.000 A 
ATOM     17  C   UNL     1       4.429   4.642  19.430  0.00  0.00    +0.000 A 
ATOM     18  C   UNL     1       3.759   5.815  19.063  0.00  0.00    +0.000 A 
ATOM     19  N   UNL     1       2.798   6.575  19.682  0.00  0.00    +0.000 N 
ATOM     20  H   UNL     1       2.409   6.395  20.594  0.00  0.00    +0.000 HD
BRANCH  15  21
ATOM     21  N   UNL     1       6.681   4.327  16.412  0.00  0.00    +0.000 N 
ATOM     22  O   UNL     1       7.868   4.442  16.753  0.00  0.00    +0.000 OA
ATOM     23  O   UNL     1       6.306   3.804  15.353  0.00  0.00    +0.000 OA
ENDBRANCH  15  21
ENDBRANCH   5  11
BRANCH   1  27
ATOM     24  C   UNL     1      -2.735  14.258  24.441  0.00  0.00    +0.000 A 
ATOM     25  C   UNL     1      -3.445  13.114  24.062  0.00  0.00    +0.000 A 
ATOM     26  C   UNL     1      -2.894  12.189  23.162  0.00  0.00    +0.000 A 
ATOM     27  C   UNL     1      -1.628  12.418  22.613  0.00  0.00    +0.000 A 
ATOM     28  C   UNL     1      -0.941  13.584  22.981  0.00  0.00    +0.000 A 
ATOM     29  C   UNL     1      -1.484  14.497  23.884  0.00  0.00    +0.000 A 
BRANCH  24  31
ATOM     30  C   UNL     1      -3.099  16.479  25.144  0.00  0.00    +0.000 C 
ATOM     31  O   UNL     1      -3.363  15.090  25.328  0.00  0.00    +0.000 OA
ENDBRANCH  24  31
ENDBRANCH   1  27
TORSDOF 4
ENDMDL
MODEL 2
REMARK VINA RESULT:      -8.3      0.955      1.068
REMARK  Name = 
REMARK  5 active torsions:
REMARK  status: ('A' for Active; 'I' for Inactive)
REMARK    1  A    between atoms: C_1  and  O_2
REMARK    2  A    between atoms: O_2  and  C_3
REMARK    3  A    between atoms: C_6  and  C_7
REMARK    4  A    between atoms: C_11  and  C_12
REMARK    5  A    between atoms: C_16  and  N_17
REMARK                            x       y       z     vdW  Elec       q    Type
REMARK                         _______ _______ _______ _____ _____    ______ ____
ROOT
ATOM      1  C   UNL     1      -0.700  11.510  21.231  0.00  0.00    +0.000 A 
ATOM      2  N   UNL     1       0.194  10.560  21.446  0.00  0.00    +0.000 NA
ATOM      3  C   UNL     1       0.426   9.971  20.239  0.00  0.00    +0.000 A 
ATOM      4  C   UNL     1       1.340   8.955  19.929  0.00  0.00    +0.000 A 
ATOM      5  C   UNL     1       1.457   8.532  18.600  0.00  0.00    +0.000 A 
ATOM      6  C   UNL     1       0.614   9.106  17.627  0.00  0.00    +0.000 A 
ATOM      7  C   UNL     1      -0.330  10.102  17.926  0.00  0.00    +0.000 A 
ATOM      8  C   UNL     1      -0.377  10.525  19.254  0.00  0.00    +0.000 A 
ATOM      9  N   UNL     1      -1.112  11.483  19.916  0.00  0.00    +0.000 N 
ATOM     10  H   UNL     1      -1.829  12.066  19.509  0.00  0.00    +0.000 HD
ENDROOT
BRANCH   5  11
ATOM     11  C   UNL     1       2.447   7.526  18.187  0.00  0.00    +0.000 A 
ATOM     12  N   UNL     1       3.670   7.794  17.766  0.00  0.00    +0.000 NA
ATOM     13  C   UNL     1       4.264   6.590  17.501  0.00  0.00    +0.000 A 
ATOM     14  C   UNL     1       5.562   6.335  17.046  0.00  0.00    +0.000 A 
ATOM     15  C   UNL     1       5.928   4.998  16.841  0.00  0.00    +0.000 A 
ATOM     16  C   UNL     1       5.026   3.944  17.073  0.00  0.00    +0.000 A 
ATOM     17  C   UNL     1       3.727   4.199  17.538  0.00  0.00    +0.000 A 
ATOM     18  C   UNL     1       3.389   5.541  17.746  0.00  0.00    +0.000 A 
ATOM     19  N   UNL     1       2.251   6.159  18.201  0.00  0.00    +0.000 N 
ATOM     20  H   UNL     1       1.413   5.688  18.506  0.00  0.00    +0.000 HD
BRANCH  15  21
ATOM     21  N   UNL     1       7.289   4.700  16.382  0.00  0.00    +0.000 N 
ATOM     22  O   UNL     1       7.566   4.936  15.196  0.00  0.00    +0.000 OA
ATOM     23  O   UNL     1       8.087   4.232  17.206  0.00  0.00    +0.000 OA
ENDBRANCH  15  21
ENDBRANCH   5  11
BRANCH   1  27
ATOM     24  C   UNL     1      -2.021  14.363  24.133  0.00  0.00    +0.000 A 
ATOM     25  C   UNL     1      -2.749  13.182  23.953  0.00  0.00    +0.000 A 
ATOM     26  C   UNL     1      -2.324  12.206  23.038  0.00  0.00    +0.000 A 
ATOM     27  C   UNL     1      -1.173  12.420  22.274  0.00  0.00    +0.000 A 
ATOM     28  C   UNL     1      -0.470  13.622  22.445  0.00  0.00    +0.000 A 
ATOM     29  C   UNL     1      -0.886  14.586  23.362  0.00  0.00    +0.000 A 
BRANCH  24  31
ATOM     30  C   UNL     1      -1.597  15.656  26.059  0.00  0.00    +0.000 C 
ATOM     31  O   UNL     1      -2.521  15.244  25.054  0.00  0.00    +0.000 OA
ENDBRANCH  24  31
ENDBRANCH   1  27
TORSDOF 4
ENDMDL
MODEL 3
REMARK VINA RESULT:      -8.2      1.749      2.140
REMARK  Name = 
REMARK  5 active torsions:
REMARK  status: ('A' for Active; 'I' for Inactive)
REMARK    1  A    between atoms: C_1  and  O_2
REMARK    2  A    between atoms: O_2  and  C_3
REMARK    3  A    between atoms: C_6  and  C_7
REMARK    4  A    between atoms: C_11  and  C_12
REMARK    5  A    between atoms: C_16  and  N_17
REMARK                            x       y       z     vdW  Elec       q    Type
REMARK                         _______ _______ _______ _____ _____    ______ ____
ROOT
ATOM      1  C   UNL     1      -0.838  11.990  21.800  0.00  0.00    +0.000 A 
ATOM      2  N   UNL     1      -0.501  10.736  22.047  0.00  0.00    +0.000 NA
ATOM      3  C   UNL     1       0.150  10.288  20.936  0.00  0.00    +0.000 A 
ATOM      4  C   UNL     1       0.760   9.044  20.729  0.00  0.00    +0.000 A 
ATOM      5  C   UNL     1       1.430   8.809  19.523  0.00  0.00    +0.000 A 
ATOM      6  C   UNL     1       1.424   9.816  18.536  0.00  0.00    +0.000 A 
ATOM      7  C   UNL     1       0.790  11.057  18.715  0.00  0.00    +0.000 A 
ATOM      8  C   UNL     1       0.177  11.261  19.950  0.00  0.00    +0.000 A 
ATOM      9  N   UNL     1      -0.489  12.329  20.510  0.00  0.00    +0.000 N 
ATOM     10  H   UNL     1      -0.687  13.208  20.055  0.00  0.00    +0.000 HD
ENDROOT
BRANCH   5  11
ATOM     11  C   UNL     1       2.157   7.558  19.265  0.00  0.00    +0.000 A 
ATOM     12  N   UNL     1       2.100   6.478  20.023  0.00  0.00    +0.000 NA
ATOM     13  C   UNL     1       2.902   5.542  19.429  0.00  0.00    +0.000 A 
ATOM     14  C   UNL     1       3.164   4.229  19.834  0.00  0.00    +0.000 A 
ATOM     15  C   UNL     1       4.039   3.467  19.048  0.00  0.00    +0.000 A 
ATOM     16  C   UNL     1       4.645   4.000  17.896  0.00  0.00    +0.000 A 
ATOM     17  C   UNL     1       4.375   5.314  17.483  0.00  0.00    +0.000 A 
ATOM     18  C   UNL     1       3.489   6.049  18.279  0.00  0.00    +0.000 A 
ATOM     19  N   UNL     1       2.984   7.322  18.183  0.00  0.00    +0.000 N 
ATOM     20  H   UNL     1       3.178   7.973  17.439  0.00  0.00    +0.000 HD
BRANCH  15  21
ATOM     21  N   UNL     1       4.318   2.081  19.440  0.00  0.00    +0.000 N 
ATOM     22  O   UNL     1       3.830   1.174  18.748  0.00  0.00    +0.000 OA
ATOM     23  O   UNL     1       5.028   1.895  20.438  0.00  0.00    +0.000 OA
ENDBRANCH  15  21
ENDBRANCH   5  11
BRANCH   1  27
ATOM     24  C   UNL     1      -2.701  14.704  24.533  0.00  0.00    +0.000 A 
ATOM     25  C   UNL     1      -3.385  13.547  24.144  0.00  0.00    +0.000 A 
ATOM     26  C   UNL     1      -2.790  12.615  23.280  0.00  0.00    +0.000 A 
ATOM     27  C   UNL     1      -1.507  12.850  22.776  0.00  0.00    +0.000 A 
ATOM     28  C   UNL     1      -0.846  14.029  23.152  0.00  0.00    +0.000 A 
ATOM     29  C   UNL     1      -1.433  14.949  24.019  0.00  0.00    +0.000 A 
BRANCH  24  31
ATOM     30  C   UNL     1      -4.406  16.315  24.777  0.00  0.00    +0.000 C 
ATOM     31  O   UNL     1      -3.372  15.542  25.383  0.00  0.00    +0.000 OA
ENDBRANCH  24  31
ENDBRANCH   1  27
TORSDOF 4
ENDMDL
MODEL 4
REMARK VINA RESULT:      -8.1      2.308      3.405
REMARK  Name = 
REMARK  5 active torsions:
REMARK  status: ('A' for Active; 'I' for Inactive)
REMARK    1  A    between atoms: C_1  and  O_2
REMARK    2  A    between atoms: O_2  and  C_3
REMARK    3  A    between atoms: C_6  and  C_7
REMARK    4  A    between atoms: C_11  and  C_12
REMARK    5  A    between atoms: C_16  and  N_17
REMARK                            x       y       z     vdW  Elec       q    Type
REMARK                         _______ _______ _______ _____ _____    ______ ____
ROOT
ATOM      1  C   UNL     1       0.360   9.359  20.935  0.00  0.00    +0.000 A 
ATOM      2  N   UNL     1       1.147   9.444  19.878  0.00  0.00    +0.000 NA
ATOM      3  C   UNL     1       1.722   8.217  19.727  0.00  0.00    +0.000 A 
ATOM      4  C   UNL     1       2.584   7.780  18.713  0.00  0.00    +0.000 A 
ATOM      5  C   UNL     1       3.016   6.448  18.718  0.00  0.00    +0.000 A 
ATOM      6  C   UNL     1       2.610   5.607  19.773  0.00  0.00    +0.000 A 
ATOM      7  C   UNL     1       1.772   6.038  20.815  0.00  0.00    +0.000 A 
ATOM      8  C   UNL     1       1.330   7.358  20.741  0.00  0.00    +0.000 A 
ATOM      9  N   UNL     1       0.486   8.118  21.521  0.00  0.00    +0.000 N 
ATOM     10  H   UNL     1       0.036   7.817  22.373  0.00  0.00    +0.000 HD
ENDROOT
BRANCH   5  11
ATOM     11  C   UNL     1       3.859   5.898  17.646  0.00  0.00    +0.000 A 
ATOM     12  N   UNL     1       4.593   6.615  16.815  0.00  0.00    +0.000 NA
ATOM     13  C   UNL     1       5.230   5.728  15.992  0.00  0.00    +0.000 A 
ATOM     14  C   UNL     1       6.131   5.987  14.954  0.00  0.00    +0.000 A 
ATOM     15  C   UNL     1       6.643   4.890  14.247  0.00  0.00    +0.000 A 
ATOM     16  C   UNL     1       6.261   3.572  14.557  0.00  0.00    +0.000 A 
ATOM     17  C   UNL     1       5.365   3.311  15.605  0.00  0.00    +0.000 A 
ATOM     18  C   UNL     1       4.877   4.422  16.302  0.00  0.00    +0.000 A 
ATOM     19  N   UNL     1       4.024   4.555  17.369  0.00  0.00    +0.000 N 
ATOM     20  H   UNL     1       3.597   3.794  17.873  0.00  0.00    +0.000 HD
BRANCH  15  21
ATOM     21  N   UNL     1       7.603   5.132  13.165  0.00  0.00    +0.000 N 
ATOM     22  O   UNL     1       7.399   4.578  12.073  0.00  0.00    +0.000 OA
ATOM     23  O   UNL     1       8.564   5.879  13.401  0.00  0.00    +0.000 OA
ENDBRANCH  15  21
ENDBRANCH   5  11
BRANCH   1  27
ATOM     24  C   UNL     1      -2.256  12.546  22.080  0.00  0.00    +0.000 A 
ATOM     25  C   UNL     1      -1.778  11.667  23.058  0.00  0.00    +0.000 A 
ATOM     26  C   UNL     1      -0.888  10.634  22.726  0.00  0.00    +0.000 A 
ATOM     27  C   UNL     1      -0.488  10.458  21.398  0.00  0.00    +0.000 A 
ATOM     28  C   UNL     1      -0.998  11.329  20.424  0.00  0.00    +0.000 A 
ATOM     29  C   UNL     1      -1.873  12.362  20.756  0.00  0.00    +0.000 A 
BRANCH  24  31
ATOM     30  C   UNL     1      -4.091  13.933  21.560  0.00  0.00    +0.000 C 
ATOM     31  O   UNL     1      -3.114  13.520  22.514  0.00  0.00    +0.000 OA
ENDBRANCH  24  31
ENDBRANCH   1  27
TORSDOF 4
ENDMDL
MODEL 5
REMARK VINA RESULT:      -8.0      0.917      1.030
REMARK  Name = 
REMARK  5 active torsions:
REMARK  status: ('A' for Active; 'I' for Inactive)
REMARK    1  A    between atoms: C_1  and  O_2
REMARK    2  A    between atoms: O_2  and  C_3
REMARK    3  A    between atoms: C_6  and  C_7
REMARK    4  A    between atoms: C_11  and  C_12
REMARK    5  A    between atoms: C_16  and  N_17
REMARK                            x       y       z     vdW  Elec       q    Type
REMARK                         _______ _______ _______ _____ _____    ______ ____
ROOT
ATOM      1  C   UNL     1      -1.328  11.727  20.912  0.00  0.00    +0.000 A 
ATOM      2  N   UNL     1      -0.402  10.868  21.302  0.00  0.00    +0.000 NA
ATOM      3  C   UNL     1       0.020  10.222  20.178  0.00  0.00    +0.000 A 
ATOM      4  C   UNL     1       1.036   9.265  20.055  0.00  0.00    +0.000 A 
ATOM      5  C   UNL     1       1.348   8.766  18.785  0.00  0.00    +0.000 A 
ATOM      6  C   UNL     1       0.593   9.206  17.679  0.00  0.00    +0.000 A 
ATOM      7  C   UNL     1      -0.450  10.140  17.789  0.00  0.00    +0.000 A 
ATOM      8  C   UNL     1      -0.692  10.643  19.066  0.00  0.00    +0.000 A 
ATOM      9  N   UNL     1      -1.571  11.581  19.563  0.00  0.00    +0.000 N 
ATOM     10  H   UNL     1      -2.271  12.077  19.031  0.00  0.00    +0.000 HD
ENDROOT
BRANCH   5  11
ATOM     11  C   UNL     1       2.451   7.819  18.568  0.00  0.00    +0.000 A 
ATOM     12  N   UNL     1       3.341   7.901  17.597  0.00  0.00    +0.000 NA
ATOM     13  C   UNL     1       4.196   6.845  17.760  0.00  0.00    +0.000 A 
ATOM     14  C   UNL     1       5.317   6.499  16.998  0.00  0.00    +0.000 A 
ATOM     15  C   UNL     1       6.029   5.352  17.372  0.00  0.00    +0.000 A 
ATOM     16  C   UNL     1       5.632   4.564  18.467  0.00  0.00    +0.000 A 
ATOM     17  C   UNL     1       4.513   4.916  19.239  0.00  0.00    +0.000 A 
ATOM     18  C   UNL     1       3.827   6.072  18.851  0.00  0.00    +0.000 A 
ATOM     19  N   UNL     1       2.730   6.722  19.361  0.00  0.00    +0.000 N 
ATOM     20  H   UNL     1       2.220   6.448  20.186  0.00  0.00    +0.000 HD
BRANCH  15  21
ATOM     21  N   UNL     1       7.219   4.975  16.601  0.00  0.00    +0.000 N 
ATOM     22  O   UNL     1       7.338   5.435  15.455  0.00  0.00    +0.000 OA
ATOM     23  O   UNL     1       8.041   4.221  17.141  0.00  0.00    +0.000 OA
ENDBRANCH  15  21
ENDBRANCH   5  11
BRANCH   1  27
ATOM     24  C   UNL     1      -3.390  14.555  23.372  0.00  0.00    +0.000 A 
ATOM     25  C   UNL     1      -3.152  13.267  23.862  0.00  0.00    +0.000 A 
ATOM     26  C   UNL     1      -2.445  12.324  23.099  0.00  0.00    +0.000 A 
ATOM     27  C   UNL     1      -1.991  12.662  21.820  0.00  0.00    +0.000 A 
ATOM     28  C   UNL     1      -2.263  13.948  21.331  0.00  0.00    +0.000 A 
ATOM     29  C   UNL     1      -2.955  14.887  22.094  0.00  0.00    +0.000 A 
BRANCH  24  31
ATOM     30  C   UNL     1      -3.308  16.007  25.228  0.00  0.00    +0.000 C 
ATOM     31  O   UNL     1      -4.084  15.395  24.201  0.00  0.00    +0.000 OA
ENDBRANCH  24  31
ENDBRANCH   1  27
TORSDOF 4
ENDMDL
MODEL 6
REMARK VINA RESULT:      -8.0      1.998      3.144
REMARK  Name = 
REMARK  5 active torsions:
REMARK  status: ('A' for Active; 'I' for Inactive)
REMARK    1  A    between atoms: C_1  and  O_2
REMARK    2  A    between atoms: O_2  and  C_3
REMARK    3  A    between atoms: C_6  and  C_7
REMARK    4  A    between atoms: C_11  and  C_12
REMARK    5  A    between atoms: C_16  and  N_17
REMARK                            x       y       z     vdW  Elec       q    Type
REMARK                         _______ _______ _______ _____ _____    ______ ____
ROOT
ATOM      1  C   UNL     1       0.224   9.632  20.882  0.00  0.00    +0.000 A 
ATOM      2  N   UNL     1       1.021   9.674  19.829  0.00  0.00    +0.000 NA
ATOM      3  C   UNL     1       1.600   8.443  19.737  0.00  0.00    +0.000 A 
ATOM      4  C   UNL     1       2.473   7.964  18.751  0.00  0.00    +0.000 A 
ATOM      5  C   UNL     1       2.909   6.635  18.818  0.00  0.00    +0.000 A 
ATOM      6  C   UNL     1       2.494   5.839  19.905  0.00  0.00    +0.000 A 
ATOM      7  C   UNL     1       1.644   6.313  20.919  0.00  0.00    +0.000 A 
ATOM      8  C   UNL     1       1.200   7.627  20.784  0.00  0.00    +0.000 A 
ATOM      9  N   UNL     1       0.347   8.418  21.522  0.00  0.00    +0.000 N 
ATOM     10  H   UNL     1      -0.111   8.153  22.382  0.00  0.00    +0.000 HD
ENDROOT
BRANCH   5  11
ATOM     11  C   UNL     1       3.763   6.042  17.780  0.00  0.00    +0.000 A 
ATOM     12  N   UNL     1       4.462   6.725  16.891  0.00  0.00    +0.000 NA
ATOM     13  C   UNL     1       5.126   5.804  16.127  0.00  0.00    +0.000 A 
ATOM     14  C   UNL     1       6.008   6.022  15.063  0.00  0.00    +0.000 A 
ATOM     15  C   UNL     1       6.556   4.897  14.431  0.00  0.00    +0.000 A 
ATOM     16  C   UNL     1       6.228   3.592  14.840  0.00  0.00    +0.000 A 
ATOM     17  C   UNL     1       5.352   3.373  15.914  0.00  0.00    +0.000 A 
ATOM     18  C   UNL     1       4.827   4.512  16.535  0.00  0.00    +0.000 A 
ATOM     19  N   UNL     1       3.978   4.689  17.599  0.00  0.00    +0.000 N 
ATOM     20  H   UNL     1       3.585   3.951  18.162  0.00  0.00    +0.000 HD
BRANCH  15  21
ATOM     21  N   UNL     1       7.497   5.096  13.324  0.00  0.00    +0.000 N 
ATOM     22  O   UNL     1       7.272   4.504  12.258  0.00  0.00    +0.000 OA
ATOM     23  O   UNL     1       8.464   5.848  13.516  0.00  0.00    +0.000 OA
ENDBRANCH  15  21
ENDBRANCH   5  11
BRANCH   1  27
ATOM     24  C   UNL     1      -2.150  12.905  22.283  0.00  0.00    +0.000 A 
ATOM     25  C   UNL     1      -1.788  12.851  20.933  0.00  0.00    +0.000 A 
ATOM     26  C   UNL     1      -1.042  11.773  20.430  0.00  0.00    +0.000 A 
ATOM     27  C   UNL     1      -0.631  10.748  21.288  0.00  0.00    +0.000 A 
ATOM     28  C   UNL     1      -0.977  10.831  22.644  0.00  0.00    +0.000 A 
ATOM     29  C   UNL     1      -1.727  11.896  23.142  0.00  0.00    +0.000 A 
BRANCH  24  31
ATOM     30  C   UNL     1      -2.548  14.527  23.947  0.00  0.00    +0.000 C 
ATOM     31  O   UNL     1      -2.881  13.997  22.666  0.00  0.00    +0.000 OA
ENDBRANCH  24  31
ENDBRANCH   1  27
TORSDOF 4
ENDMDL
MODEL 7
REMARK VINA RESULT:      -8.0      2.134      2.670
REMARK  Name = 
REMARK  5 active torsions:
REMARK  status: ('A' for Active; 'I' for Inactive)
REMARK    1  A    between atoms: C_1  and  O_2
REMARK    2  A    between atoms: O_2  and  C_3
REMARK    3  A    between atoms: C_6  and  C_7
REMARK    4  A    between atoms: C_11  and  C_12
REMARK    5  A    between atoms: C_16  and  N_17
REMARK                            x       y       z     vdW  Elec       q    Type
REMARK                         _______ _______ _______ _____ _____    ______ ____
ROOT
ATOM      1  C   UNL     1      -0.755  11.638  20.482  0.00  0.00    +0.000 A 
ATOM      2  N   UNL     1      -0.042  11.314  19.418  0.00  0.00    +0.000 NA
ATOM      3  C   UNL     1       0.578  10.137  19.715  0.00  0.00    +0.000 A 
ATOM      4  C   UNL     1       1.394   9.352  18.889  0.00  0.00    +0.000 A 
ATOM      5  C   UNL     1       1.888   8.138  19.381  0.00  0.00    +0.000 A 
ATOM      6  C   UNL     1       1.589   7.772  20.708  0.00  0.00    +0.000 A 
ATOM      7  C   UNL     1       0.800   8.562  21.560  0.00  0.00    +0.000 A 
ATOM      8  C   UNL     1       0.293   9.739  21.011  0.00  0.00    +0.000 A 
ATOM      9  N   UNL     1      -0.535  10.729  21.495  0.00  0.00    +0.000 N 
ATOM     10  H   UNL     1      -0.915  10.779  22.429  0.00  0.00    +0.000 HD
ENDROOT
BRANCH   5  11
ATOM     11  C   UNL     1       2.686   7.227  18.548  0.00  0.00    +0.000 A 
ATOM     12  N   UNL     1       3.600   7.604  17.673  0.00  0.00    +0.000 NA
ATOM     13  C   UNL     1       4.115   6.459  17.128  0.00  0.00    +0.000 A 
ATOM     14  C   UNL     1       5.121   6.321  16.166  0.00  0.00    +0.000 A 
ATOM     15  C   UNL     1       5.464   5.024  15.764  0.00  0.00    +0.000 A 
ATOM     16  C   UNL     1       4.818   3.894  16.297  0.00  0.00    +0.000 A 
ATOM     17  C   UNL     1       3.816   4.030  17.269  0.00  0.00    +0.000 A 
ATOM     18  C   UNL     1       3.499   5.336  17.662  0.00  0.00    +0.000 A 
ATOM     19  N   UNL     1       2.612   5.847  18.576  0.00  0.00    +0.000 N 
ATOM     20  H   UNL     1       2.013   5.303  19.176  0.00  0.00    +0.000 HD
BRANCH  15  21
ATOM     21  N   UNL     1       6.529   4.850  14.770  0.00  0.00    +0.000 N 
ATOM     22  O   UNL     1       6.325   4.061  13.834  0.00  0.00    +0.000 OA
ATOM     23  O   UNL     1       7.571   5.503  14.919  0.00  0.00    +0.000 OA
ENDBRANCH  15  21
ENDBRANCH   5  11
BRANCH   1  27
ATOM     24  C   UNL     1      -3.438  14.954  20.819  0.00  0.00    +0.000 A 
ATOM     25  C   UNL     1      -2.063  15.193  20.725  0.00  0.00    +0.000 A 
ATOM     26  C   UNL     1      -1.155  14.132  20.575  0.00  0.00    +0.000 A 
ATOM     27  C   UNL     1      -1.623  12.814  20.543  0.00  0.00    +0.000 A 
ATOM     28  C   UNL     1      -3.002  12.590  20.667  0.00  0.00    +0.000 A 
ATOM     29  C   UNL     1      -3.903  13.644  20.805  0.00  0.00    +0.000 A 
BRANCH  24  31
ATOM     30  C   UNL     1      -5.538  15.940  20.398  0.00  0.00    +0.000 C 
ATOM     31  O   UNL     1      -4.232  16.061  20.957  0.00  0.00    +0.000 OA
ENDBRANCH  24  31
ENDBRANCH   1  27
TORSDOF 4
ENDMDL
MODEL 8
REMARK VINA RESULT:      -7.9      2.089      2.445
REMARK  Name = 
REMARK  5 active torsions:
REMARK  status: ('A' for Active; 'I' for Inactive)
REMARK    1  A    between atoms: C_1  and  O_2
REMARK    2  A    between atoms: O_2  and  C_3
REMARK    3  A    between atoms: C_6  and  C_7
REMARK    4  A    between atoms: C_11  and  C_12
REMARK    5  A    between atoms: C_16  and  N_17
REMARK                            x       y       z     vdW  Elec       q    Type
REMARK                         _______ _______ _______ _____ _____    ______ ____
ROOT
ATOM      1  C   UNL     1      -0.426  11.294  20.536  0.00  0.00    +0.000 A 
ATOM      2  N   UNL     1       0.354  11.048  19.498  0.00  0.00    +0.000 NA
ATOM      3  C   UNL     1       0.894   9.815  19.708  0.00  0.00    +0.000 A 
ATOM      4  C   UNL     1       1.736   9.079  18.862  0.00  0.00    +0.000 A 
ATOM      5  C   UNL     1       2.133   7.794  19.251  0.00  0.00    +0.000 A 
ATOM      6  C   UNL     1       1.714   7.305  20.505  0.00  0.00    +0.000 A 
ATOM      7  C   UNL     1       0.897   8.041  21.378  0.00  0.00    +0.000 A 
ATOM      8  C   UNL     1       0.489   9.296  20.927  0.00  0.00    +0.000 A 
ATOM      9  N   UNL     1      -0.328  10.272  21.455  0.00  0.00    +0.000 N 
ATOM     10  H   UNL     1      -0.778  10.243  22.358  0.00  0.00    +0.000 HD
ENDROOT
BRANCH   5  11
ATOM     11  C   UNL     1       2.952   6.935  18.384  0.00  0.00    +0.000 A 
ATOM     12  N   UNL     1       3.815   7.369  17.483  0.00  0.00    +0.000 NA
ATOM     13  C   UNL     1       4.373   6.259  16.911  0.00  0.00    +0.000 A 
ATOM     14  C   UNL     1       5.352   6.185  15.915  0.00  0.00    +0.000 A 
ATOM     15  C   UNL     1       5.753   4.912  15.489  0.00  0.00    +0.000 A 
ATOM     16  C   UNL     1       5.188   3.744  16.032  0.00  0.00    +0.000 A 
ATOM     17  C   UNL     1       4.213   3.816  17.038  0.00  0.00    +0.000 A 
ATOM     18  C   UNL     1       3.838   5.099  17.453  0.00  0.00    +0.000 A 
ATOM     19  N   UNL     1       2.955   5.554  18.401  0.00  0.00    +0.000 N 
ATOM     20  H   UNL     1       2.408   4.972  19.015  0.00  0.00    +0.000 HD
BRANCH  15  21
ATOM     21  N   UNL     1       6.792   4.805  14.458  0.00  0.00    +0.000 N 
ATOM     22  O   UNL     1       7.823   5.479  14.602  0.00  0.00    +0.000 OA
ATOM     23  O   UNL     1       6.581   4.042  13.504  0.00  0.00    +0.000 OA
ENDBRANCH  15  21
ENDBRANCH   5  11
BRANCH   1  27
ATOM     24  C   UNL     1      -2.680  14.926  20.714  0.00  0.00    +0.000 A 
ATOM     25  C   UNL     1      -3.329  13.707  20.931  0.00  0.00    +0.000 A 
ATOM     26  C   UNL     1      -2.615  12.498  20.919  0.00  0.00    +0.000 A 
ATOM     27  C   UNL     1      -1.240  12.503  20.661  0.00  0.00    +0.000 A 
ATOM     28  C   UNL     1      -0.610  13.731  20.416  0.00  0.00    +0.000 A 
ATOM     29  C   UNL     1      -1.317  14.932  20.440  0.00  0.00    +0.000 A 
BRANCH  24  31
ATOM     30  C   UNL     1      -4.093  16.299  22.011  0.00  0.00    +0.000 C 
ATOM     31  O   UNL     1      -3.471  16.044  20.753  0.00  0.00    +0.000 OA
ENDBRANCH  24  31
ENDBRANCH   1  27
TORSDOF 4
ENDMDL
MODEL 9
REMARK VINA RESULT:      -7.9      3.366      4.058
REMARK  Name = 
REMARK  5 active torsions:
REMARK  status: ('A' for Active; 'I' for Inactive)
REMARK    1  A    between atoms: C_1  and  O_2
REMARK    2  A    between atoms: O_2  and  C_3
REMARK    3  A    between atoms: C_6  and  C_7
REMARK    4  A    between atoms: C_11  and  C_12
REMARK    5  A    between atoms: C_16  and  N_17
REMARK                            x       y       z     vdW  Elec       q    Type
REMARK                         _______ _______ _______ _____ _____    ______ ____
ROOT
ATOM      1  C   UNL     1      -2.593  11.185  18.522  0.00  0.00    +0.000 A 
ATOM      2  N   UNL     1      -2.032  10.308  17.709  0.00  0.00    +0.000 NA
ATOM      3  C   UNL     1      -0.809  10.020  18.238  0.00  0.00    +0.000 A 
ATOM      4  C   UNL     1       0.140   9.097  17.781  0.00  0.00    +0.000 A 
ATOM      5  C   UNL     1       1.318   8.916  18.515  0.00  0.00    +0.000 A 
ATOM      6  C   UNL     1       1.532   9.707  19.662  0.00  0.00    +0.000 A 
ATOM      7  C   UNL     1       0.605  10.660  20.116  0.00  0.00    +0.000 A 
ATOM      8  C   UNL     1      -0.573  10.771  19.379  0.00  0.00    +0.000 A 
ATOM      9  N   UNL     1      -1.712  11.533  19.524  0.00  0.00    +0.000 N 
ATOM     10  H   UNL     1      -1.874  12.226  20.240  0.00  0.00    +0.000 HD
ENDROOT
BRANCH   5  11
ATOM     11  C   UNL     1       2.325   7.912  18.140  0.00  0.00    +0.000 A 
ATOM     12  N   UNL     1       3.482   8.178  17.562  0.00  0.00    +0.000 NA
ATOM     13  C   UNL     1       4.122   6.979  17.400  0.00  0.00    +0.000 A 
ATOM     14  C   UNL     1       5.383   6.727  16.850  0.00  0.00    +0.000 A 
ATOM     15  C   UNL     1       5.812   5.394  16.790  0.00  0.00    +0.000 A 
ATOM     16  C   UNL     1       5.004   4.340  17.255  0.00  0.00    +0.000 A 
ATOM     17  C   UNL     1       3.743   4.594  17.816  0.00  0.00    +0.000 A 
ATOM     18  C   UNL     1       3.343   5.933  17.875  0.00  0.00    +0.000 A 
ATOM     19  N   UNL     1       2.218   6.552  18.360  0.00  0.00    +0.000 N 
ATOM     20  H   UNL     1       1.445   6.089  18.811  0.00  0.00    +0.000 HD
BRANCH  15  21
ATOM     21  N   UNL     1       7.137   5.101  16.235  0.00  0.00    +0.000 N 
ATOM     22  O   UNL     1       7.415   5.568  15.120  0.00  0.00    +0.000 OA
ATOM     23  O   UNL     1       7.907   4.407  16.914  0.00  0.00    +0.000 OA
ENDBRANCH  15  21
ENDBRANCH   5  11
BRANCH   1  27
ATOM     24  C   UNL     1      -6.495  12.894  18.126  0.00  0.00    +0.000 A 
ATOM     25  C   UNL     1      -5.893  12.298  17.013  0.00  0.00    +0.000 A 
ATOM     26  C   UNL     1      -4.630  11.694  17.114  0.00  0.00    +0.000 A 
ATOM     27  C   UNL     1      -3.947  11.704  18.335  0.00  0.00    +0.000 A 
ATOM     28  C   UNL     1      -4.553  12.331  19.434  0.00  0.00    +0.000 A 
ATOM     29  C   UNL     1      -5.811  12.922  19.335  0.00  0.00    +0.000 A 
BRANCH  24  31
ATOM     30  C   UNL     1      -7.750  14.874  17.868  0.00  0.00    +0.000 C 
ATOM     31  O   UNL     1      -7.729  13.449  17.916  0.00  0.00    +0.000 OA
ENDBRANCH  24  31
ENDBRANCH   1  27
TORSDOF 4
ENDMDL
