MODEL 1
REMARK VINA RESULT:      -7.6      0.000      0.000
REMARK  Name = 
REMARK  7 active torsions:
REMARK  status: ('A' for Active; 'I' for Inactive)
REMARK    1  A    between atoms: C_1  and  C_2
REMARK    2  A    between atoms: C_2  and  N_3
REMARK    3  A    between atoms: N_3  and  C_4
REMARK    4  A    between atoms: C_4  and  C_5
REMARK    5  A    between atoms: C_8  and  C_9
REMARK    6  A    between atoms: C_12  and  N_13
REMARK    7  A    between atoms: C_14  and  C_16
REMARK                            x       y       z     vdW  Elec       q    Type
REMARK                         _______ _______ _______ _____ _____    ______ ____
ROOT
ATOM      1  N   UNL     1       5.522   5.187  17.345  0.00  0.00    +0.000 N 
ATOM      2  C   UNL     1       4.430   5.853  17.881  0.00  0.00    +0.000 A 
ATOM      3  C   UNL     1       3.776   5.291  18.973  0.00  0.00    +0.000 A 
ATOM      4  C   UNL     1       2.736   5.969  19.594  0.00  0.00    +0.000 A 
ATOM      5  C   UNL     1       2.073   5.349  20.793  0.00  0.00    +0.000 C 
ATOM      6  C   UNL     1       2.371   7.227  19.089  0.00  0.00    +0.000 A 
ATOM      7  C   UNL     1       1.357   7.990  19.686  0.00  0.00    +0.000 A 
ATOM      8  C   UNL     1       0.994   9.258  19.240  0.00  0.00    +0.000 A 
ATOM      9  C   UNL     1       1.669   9.762  18.131  0.00  0.00    +0.000 A 
ATOM     10  C   UNL     1       2.677   8.995  17.507  0.00  0.00    +0.000 A 
ATOM     11  C   UNL     1       3.049   7.733  17.966  0.00  0.00    +0.000 A 
ATOM     12  N   UNL     1       4.039   7.043  17.362  0.00  0.00    +0.000 NA
ENDROOT
BRANCH   8  13
ATOM     13  N   UNL     1      -0.007  10.032  19.882  0.00  0.00    +0.000 N 
ATOM     14  C   UNL     1       0.156  10.721  21.084  0.00  0.00    +0.000 C 
ATOM     15  O   UNL     1       1.179  10.766  21.761  0.00  0.00    +0.000 OA
ATOM     16  H   UNL     1      -0.883  10.128  19.386  0.00  0.00    +0.000 HD
BRANCH  14  17
ATOM     17  C   UNL     1      -0.994  11.493  21.616  0.00  0.00    +0.000 A 
ATOM     18  C   UNL     1      -1.782  12.344  20.831  0.00  0.00    +0.000 A 
ATOM     19  C   UNL     1      -2.910  12.952  21.392  0.00  0.00    +0.000 A 
ATOM     20  C   UNL     1      -3.253  12.704  22.719  0.00  0.00    +0.000 A 
ATOM     21  F   UNL     1      -4.350  13.271  23.236  0.00  0.00    +0.000 F 
ATOM     22  C   UNL     1      -2.484  11.863  23.511  0.00  0.00    +0.000 A 
ATOM     23  C   UNL     1      -1.356  11.260  22.958  0.00  0.00    +0.000 A 
ENDBRANCH  14  17
ENDBRANCH   8  13
BRANCH   1  25
ATOM     24  C   UNL     1       6.645   4.194  15.338  0.00  0.00    +0.000 C 
ATOM     25  C   UNL     1       5.749   5.278  15.906  0.00  0.00    +0.000 C 
ENDBRANCH   1  25
BRANCH   1  26
ATOM     26  C   UNL     1       6.612   4.818  18.253  0.00  0.00    +0.000 C 
ATOM     27  C   UNL     1       7.502   6.002  18.624  0.00  0.00    +0.000 C 
ENDBRANCH   1  26
TORSDOF 4
ENDMDL
MODEL 2
REMARK VINA RESULT:      -7.6      0.372      1.020
REMARK  Name = 
REMARK  7 active torsions:
REMARK  status: ('A' for Active; 'I' for Inactive)
REMARK    1  A    between atoms: C_1  and  C_2
REMARK    2  A    between atoms: C_2  and  N_3
REMARK    3  A    between atoms: N_3  and  C_4
REMARK    4  A    between atoms: C_4  and  C_5
REMARK    5  A    between atoms: C_8  and  C_9
REMARK    6  A    between atoms: C_12  and  N_13
REMARK    7  A    between atoms: C_14  and  C_16
REMARK                            x       y       z     vdW  Elec       q    Type
REMARK                         _______ _______ _______ _____ _____    ______ ____
ROOT
ATOM      1  N   UNL     1       5.813   5.283  17.283  0.00  0.00    +0.000 N 
ATOM      2  C   UNL     1       4.688   5.862  17.852  0.00  0.00    +0.000 A 
ATOM      3  C   UNL     1       4.089   5.231  18.937  0.00  0.00    +0.000 A 
ATOM      4  C   UNL     1       3.016   5.824  19.590  0.00  0.00    +0.000 A 
ATOM      5  C   UNL     1       2.413   5.130  20.780  0.00  0.00    +0.000 C 
ATOM      6  C   UNL     1       2.565   7.069  19.125  0.00  0.00    +0.000 A 
ATOM      7  C   UNL     1       1.513   7.748  19.757  0.00  0.00    +0.000 A 
ATOM      8  C   UNL     1       1.063   9.002  19.351  0.00  0.00    +0.000 A 
ATOM      9  C   UNL     1       1.687   9.578  18.247  0.00  0.00    +0.000 A 
ATOM     10  C   UNL     1       2.733   8.894  17.589  0.00  0.00    +0.000 A 
ATOM     11  C   UNL     1       3.192   7.647  18.008  0.00  0.00    +0.000 A 
ATOM     12  N   UNL     1       4.214   7.038  17.372  0.00  0.00    +0.000 NA
ENDROOT
BRANCH   8  13
ATOM     13  N   UNL     1       0.024   9.693  20.028  0.00  0.00    +0.000 N 
ATOM     14  C   UNL     1       0.210  10.736  20.935  0.00  0.00    +0.000 C 
ATOM     15  O   UNL     1       1.287  11.213  21.281  0.00  0.00    +0.000 OA
ATOM     16  H   UNL     1      -0.921   9.434  19.776  0.00  0.00    +0.000 HD
BRANCH  14  17
ATOM     17  C   UNL     1      -0.989  11.357  21.549  0.00  0.00    +0.000 A 
ATOM     18  C   UNL     1      -1.315  11.234  22.906  0.00  0.00    +0.000 A 
ATOM     19  C   UNL     1      -2.408  11.940  23.420  0.00  0.00    +0.000 A 
ATOM     20  C   UNL     1      -3.161  12.766  22.590  0.00  0.00    +0.000 A 
ATOM     21  F   UNL     1      -4.188  13.457  23.101  0.00  0.00    +0.000 F 
ATOM     22  C   UNL     1      -2.853  12.901  21.244  0.00  0.00    +0.000 A 
ATOM     23  C   UNL     1      -1.768  12.196  20.726  0.00  0.00    +0.000 A 
ENDBRANCH  14  17
ENDBRANCH   8  13
BRANCH   1  25
ATOM     24  C   UNL     1       5.435   4.298  15.011  0.00  0.00    +0.000 C 
ATOM     25  C   UNL     1       6.011   5.427  15.845  0.00  0.00    +0.000 C 
ENDBRANCH   1  25
BRANCH   1  26
ATOM     26  C   UNL     1       6.937   4.961  18.165  0.00  0.00    +0.000 C 
ATOM     27  C   UNL     1       7.652   6.202  18.694  0.00  0.00    +0.000 C 
ENDBRANCH   1  26
TORSDOF 4
ENDMDL
MODEL 3
REMARK VINA RESULT:      -7.5      5.790      8.495
REMARK  Name = 
REMARK  7 active torsions:
REMARK  status: ('A' for Active; 'I' for Inactive)
REMARK    1  A    between atoms: C_1  and  C_2
REMARK    2  A    between atoms: C_2  and  N_3
REMARK    3  A    between atoms: N_3  and  C_4
REMARK    4  A    between atoms: C_4  and  C_5
REMARK    5  A    between atoms: C_8  and  C_9
REMARK    6  A    between atoms: C_12  and  N_13
REMARK    7  A    between atoms: C_14  and  C_16
REMARK                            x       y       z     vdW  Elec       q    Type
REMARK                         _______ _______ _______ _____ _____    ______ ____
ROOT
ATOM      1  N   UNL     1       2.968   3.184  18.413  0.00  0.00    +0.000 N 
ATOM      2  C   UNL     1       3.652   4.353  18.117  0.00  0.00    +0.000 A 
ATOM      3  C   UNL     1       2.929   5.535  17.989  0.00  0.00    +0.000 A 
ATOM      4  C   UNL     1       3.585   6.741  17.782  0.00  0.00    +0.000 A 
ATOM      5  C   UNL     1       2.777   8.005  17.682  0.00  0.00    +0.000 C 
ATOM      6  C   UNL     1       4.987   6.727  17.708  0.00  0.00    +0.000 A 
ATOM      7  C   UNL     1       5.723   7.909  17.540  0.00  0.00    +0.000 A 
ATOM      8  C   UNL     1       7.115   7.942  17.502  0.00  0.00    +0.000 A 
ATOM      9  C   UNL     1       7.785   6.727  17.615  0.00  0.00    +0.000 A 
ATOM     10  C   UNL     1       7.055   5.527  17.762  0.00  0.00    +0.000 A 
ATOM     11  C   UNL     1       5.663   5.500  17.817  0.00  0.00    +0.000 A 
ATOM     12  N   UNL     1       5.001   4.337  17.990  0.00  0.00    +0.000 NA
ENDROOT
BRANCH   8  13
ATOM     13  N   UNL     1       7.843   9.153  17.371  0.00  0.00    +0.000 N 
ATOM     14  C   UNL     1       8.680   9.697  18.346  0.00  0.00    +0.000 C 
ATOM     15  O   UNL     1       8.914   9.216  19.451  0.00  0.00    +0.000 OA
ATOM     16  H   UNL     1       7.785   9.614  16.473  0.00  0.00    +0.000 HD
BRANCH  14  17
ATOM     17  C   UNL     1       9.378  10.971  18.044  0.00  0.00    +0.000 A 
ATOM     18  C   UNL     1       8.710  12.166  17.748  0.00  0.00    +0.000 A 
ATOM     19  C   UNL     1       9.447  13.344  17.579  0.00  0.00    +0.000 A 
ATOM     20  C   UNL     1      10.833  13.329  17.712  0.00  0.00    +0.000 A 
ATOM     21  F   UNL     1      11.523  14.467  17.574  0.00  0.00    +0.000 F 
ATOM     22  C   UNL     1      11.510  12.154  18.005  0.00  0.00    +0.000 A 
ATOM     23  C   UNL     1      10.782  10.977  18.170  0.00  0.00    +0.000 A 
ENDBRANCH  14  17
ENDBRANCH   8  13
BRANCH   1  25
ATOM     24  C   UNL     1       3.910   0.912  18.888  0.00  0.00    +0.000 C 
ATOM     25  C   UNL     1       3.467   1.931  17.856  0.00  0.00    +0.000 C 
ENDBRANCH   1  25
BRANCH   1  26
ATOM     26  C   UNL     1       2.088   3.184  19.586  0.00  0.00    +0.000 C 
ATOM     27  C   UNL     1       0.662   2.750  19.259  0.00  0.00    +0.000 C 
ENDBRANCH   1  26
TORSDOF 4
ENDMDL
MODEL 4
REMARK VINA RESULT:      -7.1      3.682      9.489
REMARK  Name = 
REMARK  7 active torsions:
REMARK  status: ('A' for Active; 'I' for Inactive)
REMARK    1  A    between atoms: C_1  and  C_2
REMARK    2  A    between atoms: C_2  and  N_3
REMARK    3  A    between atoms: N_3  and  C_4
REMARK    4  A    between atoms: C_4  and  C_5
REMARK    5  A    between atoms: C_8  and  C_9
REMARK    6  A    between atoms: C_12  and  N_13
REMARK    7  A    between atoms: C_14  and  C_16
REMARK                            x       y       z     vdW  Elec       q    Type
REMARK                         _______ _______ _______ _____ _____    ______ ____
ROOT
ATOM      1  N   UNL     1      -2.748  12.957  22.504  0.00  0.00    +0.000 N 
ATOM      2  C   UNL     1      -1.777  12.125  21.964  0.00  0.00    +0.000 A 
ATOM      3  C   UNL     1      -1.138  11.216  22.801  0.00  0.00    +0.000 A 
ATOM      4  C   UNL     1      -0.226  10.307  22.282  0.00  0.00    +0.000 A 
ATOM      5  C   UNL     1       0.423   9.314  23.208  0.00  0.00    +0.000 C 
ATOM      6  C   UNL     1       0.025  10.335  20.901  0.00  0.00    +0.000 A 
ATOM      7  C   UNL     1       0.904   9.423  20.299  0.00  0.00    +0.000 A 
ATOM      8  C   UNL     1       1.148   9.392  18.928  0.00  0.00    +0.000 A 
ATOM      9  C   UNL     1       0.496  10.339  18.142  0.00  0.00    +0.000 A 
ATOM     10  C   UNL     1      -0.374  11.277  18.740  0.00  0.00    +0.000 A 
ATOM     11  C   UNL     1      -0.629  11.294  20.110  0.00  0.00    +0.000 A 
ATOM     12  N   UNL     1      -1.491  12.186  20.641  0.00  0.00    +0.000 NA
ENDROOT
BRANCH   8  13
ATOM     13  N   UNL     1       2.010   8.436  18.330  0.00  0.00    +0.000 N 
ATOM     14  C   UNL     1       2.389   7.224  18.907  0.00  0.00    +0.000 C 
ATOM     15  O   UNL     1       2.037   6.802  20.005  0.00  0.00    +0.000 OA
ATOM     16  H   UNL     1       2.317   8.639  17.389  0.00  0.00    +0.000 HD
BRANCH  14  17
ATOM     17  C   UNL     1       3.293   6.331  18.141  0.00  0.00    +0.000 A 
ATOM     18  C   UNL     1       3.169   4.936  18.124  0.00  0.00    +0.000 A 
ATOM     19  C   UNL     1       4.001   4.180  17.291  0.00  0.00    +0.000 A 
ATOM     20  C   UNL     1       4.939   4.811  16.479  0.00  0.00    +0.000 A 
ATOM     21  F   UNL     1       5.711   4.078  15.666  0.00  0.00    +0.000 F 
ATOM     22  C   UNL     1       5.076   6.192  16.483  0.00  0.00    +0.000 A 
ATOM     23  C   UNL     1       4.253   6.949  17.314  0.00  0.00    +0.000 A 
ENDBRANCH  14  17
ENDBRANCH   8  13
BRANCH   1  25
ATOM     24  C   UNL     1      -1.982  15.340  22.594  0.00  0.00    +0.000 C 
ATOM     25  C   UNL     1      -2.887  14.302  21.957  0.00  0.00    +0.000 C 
ENDBRANCH   1  25
BRANCH   1  26
ATOM     26  C   UNL     1      -3.847  12.333  23.246  0.00  0.00    +0.000 C 
ATOM     27  C   UNL     1      -4.061  12.954  24.624  0.00  0.00    +0.000 C 
ENDBRANCH   1  26
TORSDOF 4
ENDMDL
MODEL 5
REMARK VINA RESULT:      -7.0      6.578      8.874
REMARK  Name = 
REMARK  7 active torsions:
REMARK  status: ('A' for Active; 'I' for Inactive)
REMARK    1  A    between atoms: C_1  and  C_2
REMARK    2  A    between atoms: C_2  and  N_3
REMARK    3  A    between atoms: N_3  and  C_4
REMARK    4  A    between atoms: C_4  and  C_5
REMARK    5  A    between atoms: C_8  and  C_9
REMARK    6  A    between atoms: C_12  and  N_13
REMARK    7  A    between atoms: C_14  and  C_16
REMARK                            x       y       z     vdW  Elec       q    Type
REMARK                         _______ _______ _______ _____ _____    ______ ____
ROOT
ATOM      1  N   UNL     1       3.921   3.081  18.520  0.00  0.00    +0.000 N 
ATOM      2  C   UNL     1       4.722   4.152  18.153  0.00  0.00    +0.000 A 
ATOM      3  C   UNL     1       4.354   4.912  17.047  0.00  0.00    +0.000 A 
ATOM      4  C   UNL     1       5.079   6.045  16.700  0.00  0.00    +0.000 A 
ATOM      5  C   UNL     1       4.635   6.863  15.519  0.00  0.00    +0.000 C 
ATOM      6  C   UNL     1       6.181   6.394  17.496  0.00  0.00    +0.000 A 
ATOM      7  C   UNL     1       6.938   7.545  17.233  0.00  0.00    +0.000 A 
ATOM      8  C   UNL     1       8.013   7.947  18.022  0.00  0.00    +0.000 A 
ATOM      9  C   UNL     1       8.349   7.137  19.105  0.00  0.00    +0.000 A 
ATOM     10  C   UNL     1       7.608   5.964  19.367  0.00  0.00    +0.000 A 
ATOM     11  C   UNL     1       6.522   5.574  18.585  0.00  0.00    +0.000 A 
ATOM     12  N   UNL     1       5.820   4.462  18.886  0.00  0.00    +0.000 NA
ENDROOT
BRANCH   8  13
ATOM     13  N   UNL     1       8.743   9.136  17.764  0.00  0.00    +0.000 N 
ATOM     14  C   UNL     1       9.095  10.087  18.722  0.00  0.00    +0.000 C 
ATOM     15  O   UNL     1       8.834  10.040  19.921  0.00  0.00    +0.000 OA
ATOM     16  H   UNL     1       9.076   9.259  16.817  0.00  0.00    +0.000 HD
BRANCH  14  17
ATOM     17  C   UNL     1       9.870  11.275  18.285  0.00  0.00    +0.000 A 
ATOM     18  C   UNL     1       9.282  12.417  17.727  0.00  0.00    +0.000 A 
ATOM     19  C   UNL     1      10.079  13.531  17.439  0.00  0.00    +0.000 A 
ATOM     20  C   UNL     1      11.444  13.507  17.714  0.00  0.00    +0.000 A 
ATOM     21  F   UNL     1      12.190  14.589  17.460  0.00  0.00    +0.000 F 
ATOM     22  C   UNL     1      12.042  12.383  18.267  0.00  0.00    +0.000 A 
ATOM     23  C   UNL     1      11.254  11.269  18.551  0.00  0.00    +0.000 A 
ENDBRANCH  14  17
ENDBRANCH   8  13
BRANCH   1  25
ATOM     24  C   UNL     1       4.586   1.883  20.617  0.00  0.00    +0.000 C 
ATOM     25  C   UNL     1       4.562   1.906  19.100  0.00  0.00    +0.000 C 
ENDBRANCH   1  25
BRANCH   1  26
ATOM     26  C   UNL     1       2.493   3.335  18.730  0.00  0.00    +0.000 C 
ATOM     27  C   UNL     1       2.229   4.409  19.782  0.00  0.00    +0.000 C 
ENDBRANCH   1  26
TORSDOF 4
ENDMDL
MODEL 6
REMARK VINA RESULT:      -7.0      3.724      9.614
REMARK  Name = 
REMARK  7 active torsions:
REMARK  status: ('A' for Active; 'I' for Inactive)
REMARK    1  A    between atoms: C_1  and  C_2
REMARK    2  A    between atoms: C_2  and  N_3
REMARK    3  A    between atoms: N_3  and  C_4
REMARK    4  A    between atoms: C_4  and  C_5
REMARK    5  A    between atoms: C_8  and  C_9
REMARK    6  A    between atoms: C_12  and  N_13
REMARK    7  A    between atoms: C_14  and  C_16
REMARK                            x       y       z     vdW  Elec       q    Type
REMARK                         _______ _______ _______ _____ _____    ______ ____
ROOT
ATOM      1  N   UNL     1      -2.389  13.693  22.625  0.00  0.00    +0.000 N 
ATOM      2  C   UNL     1      -1.783  12.637  21.959  0.00  0.00    +0.000 A 
ATOM      3  C   UNL     1      -1.878  12.580  20.572  0.00  0.00    +0.000 A 
ATOM      4  C   UNL     1      -1.211  11.590  19.863  0.00  0.00    +0.000 A 
ATOM      5  C   UNL     1      -1.308  11.576  18.362  0.00  0.00    +0.000 C 
ATOM      6  C   UNL     1      -0.444  10.662  20.584  0.00  0.00    +0.000 A 
ATOM      7  C   UNL     1       0.290   9.658  19.936  0.00  0.00    +0.000 A 
ATOM      8  C   UNL     1       1.094   8.744  20.612  0.00  0.00    +0.000 A 
ATOM      9  C   UNL     1       1.136   8.836  22.001  0.00  0.00    +0.000 A 
ATOM     10  C   UNL     1       0.384   9.829  22.667  0.00  0.00    +0.000 A 
ATOM     11  C   UNL     1      -0.406  10.752  21.986  0.00  0.00    +0.000 A 
ATOM     12  N   UNL     1      -1.086  11.706  22.656  0.00  0.00    +0.000 NA
ENDROOT
BRANCH   8  13
ATOM     13  N   UNL     1       1.861   7.760  19.936  0.00  0.00    +0.000 N 
ATOM     14  C   UNL     1       2.282   7.841  18.608  0.00  0.00    +0.000 C 
ATOM     15  O   UNL     1       2.059   8.765  17.832  0.00  0.00    +0.000 OA
ATOM     16  H   UNL     1       2.167   6.973  20.492  0.00  0.00    +0.000 HD
BRANCH  14  17
ATOM     17  C   UNL     1       3.088   6.725  18.055  0.00  0.00    +0.000 A 
ATOM     18  C   UNL     1       2.707   5.379  18.144  0.00  0.00    +0.000 A 
ATOM     19  C   UNL     1       3.477   4.402  17.503  0.00  0.00    +0.000 A 
ATOM     20  C   UNL     1       4.607   4.765  16.775  0.00  0.00    +0.000 A 
ATOM     21  F   UNL     1       5.319   3.823  16.145  0.00  0.00    +0.000 F 
ATOM     22  C   UNL     1       4.998   6.092  16.677  0.00  0.00    +0.000 A 
ATOM     23  C   UNL     1       4.238   7.070  17.318  0.00  0.00    +0.000 A 
ENDBRANCH  14  17
ENDBRANCH   8  13
BRANCH   1  25
ATOM     24  C   UNL     1      -4.314  12.786  23.947  0.00  0.00    +0.000 C 
ATOM     25  C   UNL     1      -2.947  13.444  23.950  0.00  0.00    +0.000 C 
ENDBRANCH   1  25
BRANCH   1  26
ATOM     26  C   UNL     1      -2.057  15.053  22.195  0.00  0.00    +0.000 C 
ATOM     27  C   UNL     1      -0.667  15.496  22.644  0.00  0.00    +0.000 C 
ENDBRANCH   1  26
TORSDOF 4
ENDMDL
MODEL 7
REMARK VINA RESULT:      -7.0      3.717      9.746
REMARK  Name = 
REMARK  7 active torsions:
REMARK  status: ('A' for Active; 'I' for Inactive)
REMARK    1  A    between atoms: C_1  and  C_2
REMARK    2  A    between atoms: C_2  and  N_3
REMARK    3  A    between atoms: N_3  and  C_4
REMARK    4  A    between atoms: C_4  and  C_5
REMARK    5  A    between atoms: C_8  and  C_9
REMARK    6  A    between atoms: C_12  and  N_13
REMARK    7  A    between atoms: C_14  and  C_16
REMARK                            x       y       z     vdW  Elec       q    Type
REMARK                         _______ _______ _______ _____ _____    ______ ____
ROOT
ATOM      1  N   UNL     1      -2.933  13.159  22.872  0.00  0.00    +0.000 N 
ATOM      2  C   UNL     1      -2.170  12.279  22.120  0.00  0.00    +0.000 A 
ATOM      3  C   UNL     1      -2.096  12.468  20.743  0.00  0.00    +0.000 A 
ATOM      4  C   UNL     1      -1.273  11.663  19.967  0.00  0.00    +0.000 A 
ATOM      5  C   UNL     1      -1.190  11.915  18.487  0.00  0.00    +0.000 C 
ATOM      6  C   UNL     1      -0.523  10.666  20.612  0.00  0.00    +0.000 A 
ATOM      7  C   UNL     1       0.360   9.841  19.902  0.00  0.00    +0.000 A 
ATOM      8  C   UNL     1       1.151   8.869  20.510  0.00  0.00    +0.000 A 
ATOM      9  C   UNL     1       1.021   8.711  21.887  0.00  0.00    +0.000 A 
ATOM     10  C   UNL     1       0.118   9.521  22.611  0.00  0.00    +0.000 A 
ATOM     11  C   UNL     1      -0.658  10.504  22.002  0.00  0.00    +0.000 A 
ATOM     12  N   UNL     1      -1.487  11.280  22.731  0.00  0.00    +0.000 NA
ENDROOT
BRANCH   8  13
ATOM     13  N   UNL     1       2.069   8.069  19.780  0.00  0.00    +0.000 N 
ATOM     14  C   UNL     1       2.211   6.687  19.910  0.00  0.00    +0.000 C 
ATOM     15  O   UNL     1       1.569   5.960  20.662  0.00  0.00    +0.000 OA
ATOM     16  H   UNL     1       2.614   8.547  19.075  0.00  0.00    +0.000 HD
BRANCH  14  17
ATOM     17  C   UNL     1       3.216   6.001  19.062  0.00  0.00    +0.000 A 
ATOM     18  C   UNL     1       3.629   6.479  17.812  0.00  0.00    +0.000 A 
ATOM     19  C   UNL     1       4.658   5.822  17.128  0.00  0.00    +0.000 A 
ATOM     20  C   UNL     1       5.273   4.707  17.690  0.00  0.00    +0.000 A 
ATOM     21  F   UNL     1       6.275   4.104  17.038  0.00  0.00    +0.000 F 
ATOM     22  C   UNL     1       4.877   4.220  18.928  0.00  0.00    +0.000 A 
ATOM     23  C   UNL     1       3.849   4.867  19.611  0.00  0.00    +0.000 A 
ENDBRANCH  14  17
ENDBRANCH   8  13
BRANCH   1  25
ATOM     24  C   UNL     1      -5.017  13.201  24.262  0.00  0.00    +0.000 C 
ATOM     25  C   UNL     1      -3.622  12.644  24.051  0.00  0.00    +0.000 C 
ENDBRANCH   1  25
BRANCH   1  26
ATOM     26  C   UNL     1      -2.664  14.593  22.730  0.00  0.00    +0.000 C 
ATOM     27  C   UNL     1      -1.474  15.059  23.564  0.00  0.00    +0.000 C 
ENDBRANCH   1  26
TORSDOF 4
ENDMDL
MODEL 8
REMARK VINA RESULT:      -7.0      3.728      9.765
REMARK  Name = 
REMARK  7 active torsions:
REMARK  status: ('A' for Active; 'I' for Inactive)
REMARK    1  A    between atoms: C_1  and  C_2
REMARK    2  A    between atoms: C_2  and  N_3
REMARK    3  A    between atoms: N_3  and  C_4
REMARK    4  A    between atoms: C_4  and  C_5
REMARK    5  A    between atoms: C_8  and  C_9
REMARK    6  A    between atoms: C_12  and  N_13
REMARK    7  A    between atoms: C_14  and  C_16
REMARK                            x       y       z     vdW  Elec       q    Type
REMARK                         _______ _______ _______ _____ _____    ______ ____
ROOT
ATOM      1  N   UNL     1      -2.681  12.983  22.569  0.00  0.00    +0.000 N 
ATOM      2  C   UNL     1      -1.959  12.122  21.755  0.00  0.00    +0.000 A 
ATOM      3  C   UNL     1      -2.043  12.282  20.375  0.00  0.00    +0.000 A 
ATOM      4  C   UNL     1      -1.268  11.499  19.529  0.00  0.00    +0.000 A 
ATOM      5  C   UNL     1      -1.357  11.720  18.045  0.00  0.00    +0.000 C 
ATOM      6  C   UNL     1      -0.405  10.555  20.107  0.00  0.00    +0.000 A 
ATOM      7  C   UNL     1       0.438   9.756  19.321  0.00  0.00    +0.000 A 
ATOM      8  C   UNL     1       1.336   8.837  19.858  0.00  0.00    +0.000 A 
ATOM      9  C   UNL     1       1.363   8.705  21.244  0.00  0.00    +0.000 A 
ATOM     10  C   UNL     1       0.503   9.488  22.046  0.00  0.00    +0.000 A 
ATOM     11  C   UNL     1      -0.382  10.419  21.506  0.00  0.00    +0.000 A 
ATOM     12  N   UNL     1      -1.166  11.171  22.306  0.00  0.00    +0.000 NA
ENDROOT
BRANCH   8  13
ATOM     13  N   UNL     1       2.209   8.065  19.048  0.00  0.00    +0.000 N 
ATOM     14  C   UNL     1       2.424   6.693  19.178  0.00  0.00    +0.000 C 
ATOM     15  O   UNL     1       1.894   5.951  20.000  0.00  0.00    +0.000 OA
ATOM     16  H   UNL     1       2.659   8.554  18.285  0.00  0.00    +0.000 HD
BRANCH  14  17
ATOM     17  C   UNL     1       3.367   6.035  18.241  0.00  0.00    +0.000 A 
ATOM     18  C   UNL     1       3.471   4.646  18.098  0.00  0.00    +0.000 A 
ATOM     19  C   UNL     1       4.314   4.115  17.115  0.00  0.00    +0.000 A 
ATOM     20  C   UNL     1       5.037   4.963  16.279  0.00  0.00    +0.000 A 
ATOM     21  F   UNL     1       5.818   4.442  15.325  0.00  0.00    +0.000 F 
ATOM     22  C   UNL     1       4.945   6.341  16.406  0.00  0.00    +0.000 A 
ATOM     23  C   UNL     1       4.111   6.875  17.387  0.00  0.00    +0.000 A 
ENDBRANCH  14  17
ENDBRANCH   8  13
BRANCH   1  25
ATOM     24  C   UNL     1      -4.663  12.814  24.090  0.00  0.00    +0.000 C 
ATOM     25  C   UNL     1      -3.212  12.463  23.824  0.00  0.00    +0.000 C 
ENDBRANCH   1  25
BRANCH   1  26
ATOM     26  C   UNL     1      -2.499  14.423  22.372  0.00  0.00    +0.000 C 
ATOM     27  C   UNL     1      -3.663  15.072  21.627  0.00  0.00    +0.000 C 
ENDBRANCH   1  26
TORSDOF 4
ENDMDL
MODEL 9
REMARK VINA RESULT:      -7.0      3.889      9.144
REMARK  Name = 
REMARK  7 active torsions:
REMARK  status: ('A' for Active; 'I' for Inactive)
REMARK    1  A    between atoms: C_1  and  C_2
REMARK    2  A    between atoms: C_2  and  N_3
REMARK    3  A    between atoms: N_3  and  C_4
REMARK    4  A    between atoms: C_4  and  C_5
REMARK    5  A    between atoms: C_8  and  C_9
REMARK    6  A    between atoms: C_12  and  N_13
REMARK    7  A    between atoms: C_14  and  C_16
REMARK                            x       y       z     vdW  Elec       q    Type
REMARK                         _______ _______ _______ _____ _____    ______ ____
ROOT
ATOM      1  N   UNL     1      -1.704  13.340  20.901  0.00  0.00    +0.000 N 
ATOM      2  C   UNL     1      -0.908  12.204  20.942  0.00  0.00    +0.000 A 
ATOM      3  C   UNL     1      -0.837  11.482  22.129  0.00  0.00    +0.000 A 
ATOM      4  C   UNL     1      -0.124  10.292  22.185  0.00  0.00    +0.000 A 
ATOM      5  C   UNL     1      -0.095   9.518  23.475  0.00  0.00    +0.000 C 
ATOM      6  C   UNL     1       0.513   9.846  21.017  0.00  0.00    +0.000 A 
ATOM      7  C   UNL     1       1.219   8.635  20.984  0.00  0.00    +0.000 A 
ATOM      8  C   UNL     1       1.830   8.139  19.835  0.00  0.00    +0.000 A 
ATOM      9  C   UNL     1       1.743   8.914  18.681  0.00  0.00    +0.000 A 
ATOM     10  C   UNL     1       1.054  10.146  18.707  0.00  0.00    +0.000 A 
ATOM     11  C   UNL     1       0.429  10.631  19.854  0.00  0.00    +0.000 A 
ATOM     12  N   UNL     1      -0.246  11.799  19.831  0.00  0.00    +0.000 NA
ENDROOT
BRANCH   8  13
ATOM     13  N   UNL     1       2.506   6.891  19.811  0.00  0.00    +0.000 N 
ATOM     14  C   UNL     1       1.962   5.674  20.224  0.00  0.00    +0.000 C 
ATOM     15  O   UNL     1       0.829   5.498  20.662  0.00  0.00    +0.000 OA
ATOM     16  H   UNL     1       3.432   6.893  19.407  0.00  0.00    +0.000 HD
BRANCH  14  17
ATOM     17  C   UNL     1       2.804   4.457  20.125  0.00  0.00    +0.000 A 
ATOM     18  C   UNL     1       3.918   4.355  19.282  0.00  0.00    +0.000 A 
ATOM     19  C   UNL     1       4.716   3.206  19.329  0.00  0.00    +0.000 A 
ATOM     20  C   UNL     1       4.410   2.177  20.215  0.00  0.00    +0.000 A 
ATOM     21  F   UNL     1       5.197   1.095  20.270  0.00  0.00    +0.000 F 
ATOM     22  C   UNL     1       3.311   2.261  21.058  0.00  0.00    +0.000 A 
ATOM     23  C   UNL     1       2.510   3.401  21.011  0.00  0.00    +0.000 A 
ENDBRANCH  14  17
ENDBRANCH   8  13
BRANCH   1  25
ATOM     24  C   UNL     1      -0.290  15.399  20.721  0.00  0.00    +0.000 C 
ATOM     25  C   UNL     1      -1.275  14.453  20.062  0.00  0.00    +0.000 C 
ENDBRANCH   1  25
BRANCH   1  26
ATOM     26  C   UNL     1      -3.103  13.210  21.316  0.00  0.00    +0.000 C 
ATOM     27  C   UNL     1      -4.012  12.714  20.194  0.00  0.00    +0.000 C 
ENDBRANCH   1  26
TORSDOF 4
ENDMDL
