MODEL 1
REMARK VINA RESULT:      -6.5      0.000      0.000
REMARK  Name = 
REMARK  4 active torsions:
REMARK  status: ('A' for Active; 'I' for Inactive)
REMARK    1  A    between atoms: C_2  and  C_3
REMARK    2  A    between atoms: C_6  and  C_7
REMARK    3  A    between atoms: C_8  and  C_9
REMARK    4  A    between atoms: C_12  and  C_13
REMARK                            x       y       z     vdW  Elec       q    Type
REMARK                         _______ _______ _______ _____ _____    ______ ____
ROOT
ATOM      1  C   UNL     1      10.479  13.238  19.035  0.00  0.00    +0.000 A 
ATOM      2  C   UNL     1      10.791  12.140  19.823  0.00  0.00    +0.000 A 
ATOM      3  C   UNL     1      10.134  10.936  19.570  0.00  0.00    +0.000 A 
ATOM      4  C   UNL     1       9.191  10.871  18.544  0.00  0.00    +0.000 A 
ATOM      5  C   UNL     1       8.928  12.034  17.831  0.00  0.00    +0.000 A 
ATOM      6  N   UNL     1       9.553  13.218  18.052  0.00  0.00    +0.000 NA
ENDROOT
BRANCH   1   8
ATOM      7  C   UNL     1      11.792  15.506  19.284  0.00  0.00    +0.000 C 
ATOM      8  C   UNL     1      11.182  14.477  19.188  0.00  0.00    +0.000 C 
ENDBRANCH   1   8
BRANCH   4   9
ATOM      9  C   UNL     1       8.556   9.631  18.219  0.00  0.00    +0.000 C 
ATOM     10  C   UNL     1       8.085   8.553  17.968  0.00  0.00    +0.000 C 
BRANCH  10  11
ATOM     11  C   UNL     1       7.594   7.236  17.726  0.00  0.00    +0.000 A 
ATOM     12  C   UNL     1       7.741   6.182  18.600  0.00  0.00    +0.000 A 
ATOM     13  S   UNL     1       7.028   4.778  17.928  0.00  0.00    +0.000 S 
ATOM     14  C   UNL     1       6.585   5.685  16.533  0.00  0.00    +0.000 A 
ATOM     15  C   UNL     1       5.854   5.025  15.414  0.00  0.00    +0.000 C 
ATOM     16  N   UNL     1       6.939   6.955  16.546  0.00  0.00    +0.000 NA
ENDBRANCH  10  11
ENDBRANCH   4   9
TORSDOF 3
ENDMDL
MODEL 2
REMARK VINA RESULT:      -6.5      1.335      1.638
REMARK  Name = 
REMARK  4 active torsions:
REMARK  status: ('A' for Active; 'I' for Inactive)
REMARK    1  A    between atoms: C_2  and  C_3
REMARK    2  A    between atoms: C_6  and  C_7
REMARK    3  A    between atoms: C_8  and  C_9
REMARK    4  A    between atoms: C_12  and  C_13
REMARK                            x       y       z     vdW  Elec       q    Type
REMARK                         _______ _______ _______ _____ _____    ______ ____
ROOT
ATOM      1  C   UNL     1       9.795  12.598  19.739  0.00  0.00    +0.000 A 
ATOM      2  C   UNL     1       9.331  12.589  18.432  0.00  0.00    +0.000 A 
ATOM      3  C   UNL     1       8.890  11.378  17.895  0.00  0.00    +0.000 A 
ATOM      4  C   UNL     1       8.930  10.225  18.679  0.00  0.00    +0.000 A 
ATOM      5  C   UNL     1       9.440  10.334  19.967  0.00  0.00    +0.000 A 
ATOM      6  N   UNL     1       9.873  11.497  20.517  0.00  0.00    +0.000 NA
ENDROOT
BRANCH   1   8
ATOM      7  C   UNL     1      10.485  14.837  20.940  0.00  0.00    +0.000 C 
ATOM      8  C   UNL     1      10.179  13.823  20.374  0.00  0.00    +0.000 C 
ENDBRANCH   1   8
BRANCH   4   9
ATOM      9  C   UNL     1       8.418   8.988  18.176  0.00  0.00    +0.000 C 
ATOM     10  C   UNL     1       7.929   7.954  17.801  0.00  0.00    +0.000 C 
BRANCH  10  11
ATOM     11  C   UNL     1       7.267   6.758  17.394  0.00  0.00    +0.000 A 
ATOM     12  C   UNL     1       6.490   5.982  18.225  0.00  0.00    +0.000 A 
ATOM     13  S   UNL     1       5.893   4.633  17.355  0.00  0.00    +0.000 S 
ATOM     14  C   UNL     1       6.718   5.191  15.949  0.00  0.00    +0.000 A 
ATOM     15  C   UNL     1       6.630   4.418  14.678  0.00  0.00    +0.000 C 
ATOM     16  N   UNL     1       7.401   6.308  16.098  0.00  0.00    +0.000 NA
ENDBRANCH  10  11
ENDBRANCH   4   9
TORSDOF 3
ENDMDL
MODEL 3
REMARK VINA RESULT:      -6.0      2.680      7.911
REMARK  Name = 
REMARK  4 active torsions:
REMARK  status: ('A' for Active; 'I' for Inactive)
REMARK    1  A    between atoms: C_2  and  C_3
REMARK    2  A    between atoms: C_6  and  C_7
REMARK    3  A    between atoms: C_8  and  C_9
REMARK    4  A    between atoms: C_12  and  C_13
REMARK                            x       y       z     vdW  Elec       q    Type
REMARK                         _______ _______ _______ _____ _____    ______ ____
ROOT
ATOM      1  C   UNL     1       5.736   5.149  17.452  0.00  0.00    +0.000 A 
ATOM      2  C   UNL     1       6.886   5.045  18.221  0.00  0.00    +0.000 A 
ATOM      3  C   UNL     1       7.673   6.184  18.394  0.00  0.00    +0.000 A 
ATOM      4  C   UNL     1       7.286   7.382  17.793  0.00  0.00    +0.000 A 
ATOM      5  C   UNL     1       6.134   7.376  17.018  0.00  0.00    +0.000 A 
ATOM      6  N   UNL     1       5.347   6.286  16.834  0.00  0.00    +0.000 NA
ENDROOT
BRANCH   1   8
ATOM      7  C   UNL     1       4.116   3.088  17.217  0.00  0.00    +0.000 C 
ATOM      8  C   UNL     1       4.843   4.039  17.310  0.00  0.00    +0.000 C 
ENDBRANCH   1   8
BRANCH   4   9
ATOM      9  C   UNL     1       8.037   8.579  18.013  0.00  0.00    +0.000 C 
ATOM     10  C   UNL     1       8.703   9.552  18.256  0.00  0.00    +0.000 C 
BRANCH  10  11
ATOM     11  C   UNL     1       9.552  10.647  18.594  0.00  0.00    +0.000 A 
ATOM     12  C   UNL     1       9.652  11.190  19.856  0.00  0.00    +0.000 A 
ATOM     13  S   UNL     1      10.763  12.492  19.831  0.00  0.00    +0.000 S 
ATOM     14  C   UNL     1      11.017  12.229  18.149  0.00  0.00    +0.000 A 
ATOM     15  C   UNL     1      11.965  13.095  17.393  0.00  0.00    +0.000 C 
ATOM     16  N   UNL     1      10.326  11.239  17.619  0.00  0.00    +0.000 NA
ENDBRANCH  10  11
ENDBRANCH   4   9
TORSDOF 3
ENDMDL
MODEL 4
REMARK VINA RESULT:      -5.8      2.640      7.789
REMARK  Name = 
REMARK  4 active torsions:
REMARK  status: ('A' for Active; 'I' for Inactive)
REMARK    1  A    between atoms: C_2  and  C_3
REMARK    2  A    between atoms: C_6  and  C_7
REMARK    3  A    between atoms: C_8  and  C_9
REMARK    4  A    between atoms: C_12  and  C_13
REMARK                            x       y       z     vdW  Elec       q    Type
REMARK                         _______ _______ _______ _____ _____    ______ ____
ROOT
ATOM      1  C   UNL     1       6.324   5.671  17.364  0.00  0.00    +0.000 A 
ATOM      2  C   UNL     1       7.285   5.544  18.357  0.00  0.00    +0.000 A 
ATOM      3  C   UNL     1       8.050   6.664  18.685  0.00  0.00    +0.000 A 
ATOM      4  C   UNL     1       7.831   7.866  18.012  0.00  0.00    +0.000 A 
ATOM      5  C   UNL     1       6.866   7.883  17.013  0.00  0.00    +0.000 A 
ATOM      6  N   UNL     1       6.105   6.811  16.674  0.00  0.00    +0.000 NA
ENDROOT
BRANCH   1   8
ATOM      7  C   UNL     1       4.726   3.655  16.810  0.00  0.00    +0.000 C 
ATOM      8  C   UNL     1       5.450   4.584  17.044  0.00  0.00    +0.000 C 
ENDBRANCH   1   8
BRANCH   4   9
ATOM      9  C   UNL     1       8.553   9.045  18.379  0.00  0.00    +0.000 C 
ATOM     10  C   UNL     1       9.138  10.068  18.622  0.00  0.00    +0.000 C 
BRANCH  10  11
ATOM     11  C   UNL     1       9.776  11.324  18.844  0.00  0.00    +0.000 A 
ATOM     12  C   UNL     1      10.717  11.552  19.824  0.00  0.00    +0.000 A 
ATOM     13  S   UNL     1      11.218  13.189  19.764  0.00  0.00    +0.000 S 
ATOM     14  C   UNL     1      10.143  13.458  18.446  0.00  0.00    +0.000 A 
ATOM     15  C   UNL     1      10.050  14.809  17.824  0.00  0.00    +0.000 C 
ATOM     16  N   UNL     1       9.445  12.408  18.060  0.00  0.00    +0.000 NA
ENDBRANCH  10  11
ENDBRANCH   4   9
TORSDOF 3
ENDMDL
MODEL 5
REMARK VINA RESULT:      -5.8      2.676      7.934
REMARK  Name = 
REMARK  4 active torsions:
REMARK  status: ('A' for Active; 'I' for Inactive)
REMARK    1  A    between atoms: C_2  and  C_3
REMARK    2  A    between atoms: C_6  and  C_7
REMARK    3  A    between atoms: C_8  and  C_9
REMARK    4  A    between atoms: C_12  and  C_13
REMARK                            x       y       z     vdW  Elec       q    Type
REMARK                         _______ _______ _______ _____ _____    ______ ____
ROOT
ATOM      1  C   UNL     1       6.258   5.412  17.380  0.00  0.00    +0.000 A 
ATOM      2  C   UNL     1       7.149   5.436  18.444  0.00  0.00    +0.000 A 
ATOM      3  C   UNL     1       7.875   6.605  18.671  0.00  0.00    +0.000 A 
ATOM      4  C   UNL     1       7.689   7.703  17.833  0.00  0.00    +0.000 A 
ATOM      5  C   UNL     1       6.795   7.569  16.778  0.00  0.00    +0.000 A 
ATOM      6  N   UNL     1       6.072   6.447  16.532  0.00  0.00    +0.000 NA
ENDROOT
BRANCH   1   8
ATOM      7  C   UNL     1       4.708   3.320  16.991  0.00  0.00    +0.000 C 
ATOM      8  C   UNL     1       5.421   4.273  17.148  0.00  0.00    +0.000 C 
ENDBRANCH   1   8
BRANCH   4   9
ATOM      9  C   UNL     1       8.369   8.936  18.088  0.00  0.00    +0.000 C 
ATOM     10  C   UNL     1       8.901  10.003  18.247  0.00  0.00    +0.000 C 
BRANCH  10  11
ATOM     11  C   UNL     1       9.458  11.309  18.388  0.00  0.00    +0.000 A 
ATOM     12  C   UNL     1       8.815  12.469  18.018  0.00  0.00    +0.000 A 
ATOM     13  S   UNL     1       9.829  13.811  18.337  0.00  0.00    +0.000 S 
ATOM     14  C   UNL     1      11.038  12.741  18.937  0.00  0.00    +0.000 A 
ATOM     15  C   UNL     1      12.332  13.282  19.439  0.00  0.00    +0.000 C 
ATOM     16  N   UNL     1      10.725  11.460  18.908  0.00  0.00    +0.000 NA
ENDBRANCH  10  11
ENDBRANCH   4   9
TORSDOF 3
ENDMDL
MODEL 6
REMARK VINA RESULT:      -5.8      2.785      7.922
REMARK  Name = 
REMARK  4 active torsions:
REMARK  status: ('A' for Active; 'I' for Inactive)
REMARK    1  A    between atoms: C_2  and  C_3
REMARK    2  A    between atoms: C_6  and  C_7
REMARK    3  A    between atoms: C_8  and  C_9
REMARK    4  A    between atoms: C_12  and  C_13
REMARK                            x       y       z     vdW  Elec       q    Type
REMARK                         _______ _______ _______ _____ _____    ______ ____
ROOT
ATOM      1  C   UNL     1       6.213   5.552  17.388  0.00  0.00    +0.000 A 
ATOM      2  C   UNL     1       7.192   5.440  18.365  0.00  0.00    +0.000 A 
ATOM      3  C   UNL     1       7.974   6.560  18.649  0.00  0.00    +0.000 A 
ATOM      4  C   UNL     1       7.753   7.747  17.951  0.00  0.00    +0.000 A 
ATOM      5  C   UNL     1       6.768   7.749  16.971  0.00  0.00    +0.000 A 
ATOM      6  N   UNL     1       5.990   6.677  16.674  0.00  0.00    +0.000 NA
ENDROOT
BRANCH   1   8
ATOM      7  C   UNL     1       4.544   3.579  16.889  0.00  0.00    +0.000 C 
ATOM      8  C   UNL     1       5.322   4.466  17.112  0.00  0.00    +0.000 C 
ENDBRANCH   1   8
BRANCH   4   9
ATOM      9  C   UNL     1       8.493   8.928  18.273  0.00  0.00    +0.000 C 
ATOM     10  C   UNL     1       9.054   9.962  18.528  0.00  0.00    +0.000 C 
BRANCH  10  11
ATOM     11  C   UNL     1       9.632  11.228  18.840  0.00  0.00    +0.000 A 
ATOM     12  C   UNL     1      10.397  11.966  17.965  0.00  0.00    +0.000 A 
ATOM     13  S   UNL     1      10.909  13.409  18.730  0.00  0.00    +0.000 S 
ATOM     14  C   UNL     1      10.075  12.933  20.160  0.00  0.00    +0.000 A 
ATOM     15  C   UNL     1      10.096  13.811  21.363  0.00  0.00    +0.000 C 
ATOM     16  N   UNL     1       9.449  11.774  20.092  0.00  0.00    +0.000 NA
ENDBRANCH  10  11
ENDBRANCH   4   9
TORSDOF 3
ENDMDL
MODEL 7
REMARK VINA RESULT:      -5.7      1.581      2.066
REMARK  Name = 
REMARK  4 active torsions:
REMARK  status: ('A' for Active; 'I' for Inactive)
REMARK    1  A    between atoms: C_2  and  C_3
REMARK    2  A    between atoms: C_6  and  C_7
REMARK    3  A    between atoms: C_8  and  C_9
REMARK    4  A    between atoms: C_12  and  C_13
REMARK                            x       y       z     vdW  Elec       q    Type
REMARK                         _______ _______ _______ _____ _____    ______ ____
ROOT
ATOM      1  C   UNL     1       9.781  12.496  19.362  0.00  0.00    +0.000 A 
ATOM      2  C   UNL     1       9.152  12.432  18.126  0.00  0.00    +0.000 A 
ATOM      3  C   UNL     1       8.666  11.197  17.695  0.00  0.00    +0.000 A 
ATOM      4  C   UNL     1       8.824  10.075  18.508  0.00  0.00    +0.000 A 
ATOM      5  C   UNL     1       9.494  10.238  19.714  0.00  0.00    +0.000 A 
ATOM      6  N   UNL     1       9.976  11.425  20.161  0.00  0.00    +0.000 NA
ENDROOT
BRANCH   1   8
ATOM      7  C   UNL     1      10.560  14.815  20.333  0.00  0.00    +0.000 C 
ATOM      8  C   UNL     1      10.224  13.748  19.897  0.00  0.00    +0.000 C 
ENDBRANCH   1   8
BRANCH   4   9
ATOM      9  C   UNL     1       8.272   8.814  18.120  0.00  0.00    +0.000 C 
ATOM     10  C   UNL     1       7.762   7.757  17.853  0.00  0.00    +0.000 C 
BRANCH  10  11
ATOM     11  C   UNL     1       7.083   6.530  17.594  0.00  0.00    +0.000 A 
ATOM     12  C   UNL     1       7.053   5.906  16.366  0.00  0.00    +0.000 A 
ATOM     13  S   UNL     1       6.121   4.474  16.476  0.00  0.00    +0.000 S 
ATOM     14  C   UNL     1       5.833   4.802  18.142  0.00  0.00    +0.000 A 
ATOM     15  C   UNL     1       5.005   3.868  18.954  0.00  0.00    +0.000 C 
ATOM     16  N   UNL     1       6.386   5.906  18.606  0.00  0.00    +0.000 NA
ENDBRANCH  10  11
ENDBRANCH   4   9
TORSDOF 3
ENDMDL
MODEL 8
REMARK VINA RESULT:      -5.7      7.466      9.612
REMARK  Name = 
REMARK  4 active torsions:
REMARK  status: ('A' for Active; 'I' for Inactive)
REMARK    1  A    between atoms: C_2  and  C_3
REMARK    2  A    between atoms: C_6  and  C_7
REMARK    3  A    between atoms: C_8  and  C_9
REMARK    4  A    between atoms: C_12  and  C_13
REMARK                            x       y       z     vdW  Elec       q    Type
REMARK                         _______ _______ _______ _____ _____    ______ ____
ROOT
ATOM      1  C   UNL     1       2.489   3.202  19.806  0.00  0.00    +0.000 A 
ATOM      2  C   UNL     1       1.914   3.124  18.545  0.00  0.00    +0.000 A 
ATOM      3  C   UNL     1       2.714   3.397  17.435  0.00  0.00    +0.000 A 
ATOM      4  C   UNL     1       4.053   3.738  17.622  0.00  0.00    +0.000 A 
ATOM      5  C   UNL     1       4.526   3.818  18.926  0.00  0.00    +0.000 A 
ATOM      6  N   UNL     1       3.774   3.556  20.024  0.00  0.00    +0.000 NA
ENDROOT
BRANCH   1   8
ATOM      7  C   UNL     1       1.110   2.518  21.941  0.00  0.00    +0.000 C 
ATOM      8  C   UNL     1       1.743   2.849  20.977  0.00  0.00    +0.000 C 
ENDBRANCH   1   8
BRANCH   4   9
ATOM      9  C   UNL     1       4.911   3.954  16.498  0.00  0.00    +0.000 C 
ATOM     10  C   UNL     1       5.577   4.110  15.508  0.00  0.00    +0.000 C 
BRANCH  10  11
ATOM     11  C   UNL     1       6.284   4.294  14.283  0.00  0.00    +0.000 A 
ATOM     12  C   UNL     1       6.038   3.580  13.131  0.00  0.00    +0.000 A 
ATOM     13  S   UNL     1       7.111   4.093  11.900  0.00  0.00    +0.000 S 
ATOM     14  C   UNL     1       7.814   5.218  12.998  0.00  0.00    +0.000 A 
ATOM     15  C   UNL     1       8.931   6.097  12.551  0.00  0.00    +0.000 C 
ATOM     16  N   UNL     1       7.298   5.226  14.211  0.00  0.00    +0.000 NA
ENDBRANCH  10  11
ENDBRANCH   4   9
TORSDOF 3
ENDMDL
MODEL 9
REMARK VINA RESULT:      -5.7      6.911      9.114
REMARK  Name = 
REMARK  4 active torsions:
REMARK  status: ('A' for Active; 'I' for Inactive)
REMARK    1  A    between atoms: C_2  and  C_3
REMARK    2  A    between atoms: C_6  and  C_7
REMARK    3  A    between atoms: C_8  and  C_9
REMARK    4  A    between atoms: C_12  and  C_13
REMARK                            x       y       z     vdW  Elec       q    Type
REMARK                         _______ _______ _______ _____ _____    ______ ____
ROOT
ATOM      1  C   UNL     1       5.181   5.244  15.868  0.00  0.00    +0.000 A 
ATOM      2  C   UNL     1       4.404   4.535  16.773  0.00  0.00    +0.000 A 
ATOM      3  C   UNL     1       3.585   5.253  17.646  0.00  0.00    +0.000 A 
ATOM      4  C   UNL     1       3.572   6.646  17.585  0.00  0.00    +0.000 A 
ATOM      5  C   UNL     1       4.409   7.263  16.664  0.00  0.00    +0.000 A 
ATOM      6  N   UNL     1       5.213   6.593  15.801  0.00  0.00    +0.000 NA
ENDROOT
BRANCH   1   8
ATOM      7  C   UNL     1       6.664   4.025  14.067  0.00  0.00    +0.000 C 
ATOM      8  C   UNL     1       5.975   4.563  14.889  0.00  0.00    +0.000 C 
ENDBRANCH   1   8
BRANCH   4   9
ATOM      9  C   UNL     1       2.690   7.401  18.421  0.00  0.00    +0.000 C 
ATOM     10  C   UNL     1       2.008   8.072  19.150  0.00  0.00    +0.000 C 
BRANCH  10  11
ATOM     11  C   UNL     1       1.272   8.931  20.020  0.00  0.00    +0.000 A 
ATOM     12  C   UNL     1       0.728  10.137  19.639  0.00  0.00    +0.000 A 
ATOM     13  S   UNL     1      -0.056  10.859  20.980  0.00  0.00    +0.000 S 
ATOM     14  C   UNL     1       0.395   9.512  21.954  0.00  0.00    +0.000 A 
ATOM     15  C   UNL     1       0.003   9.466  23.390  0.00  0.00    +0.000 C 
ATOM     16  N   UNL     1       1.087   8.573  21.339  0.00  0.00    +0.000 NA
ENDBRANCH  10  11
ENDBRANCH   4   9
TORSDOF 3
ENDMDL
