MODEL 1
REMARK VINA RESULT:      -8.8      0.000      0.000
REMARK  Name = 
REMARK  7 active torsions:
REMARK  status: ('A' for Active; 'I' for Inactive)
REMARK    1  A    between atoms: C_1  and  C_2
REMARK    2  A    between atoms: C_4  and  C_5
REMARK    3  A    between atoms: C_8  and  S_9
REMARK    4  A    between atoms: S_9  and  C_10
REMARK    5  A    between atoms: C_10  and  C_11
REMARK    6  A    between atoms: N_13  and  C_14
REMARK    7  A    between atoms: C_25  and  C_26
REMARK                            x       y       z     vdW  Elec       q    Type
REMARK                         _______ _______ _______ _____ _____    ______ ____
ROOT
ATOM      1  C   UNL     1       1.108   9.303  19.644  0.00  0.00    +0.000 C 
ENDROOT
BRANCH   1   2
ATOM      2  C   UNL     1       1.865   8.579  18.532  0.00  0.00    +0.000 C 
ATOM      3  O   UNL     1       2.089   9.138  17.460  0.00  0.00    +0.000 OA
ATOM      4  N   UNL     1       2.275   7.299  18.880  0.00  0.00    +0.000 N 
ATOM      5  H   UNL     1       1.874   6.930  19.736  0.00  0.00    +0.000 HD
BRANCH   4   6
ATOM      6  C   UNL     1       3.000   6.383  18.087  0.00  0.00    +0.000 A 
ATOM      7  C   UNL     1       2.649   5.040  17.928  0.00  0.00    +0.000 A 
ATOM      8  C   UNL     1       3.480   4.164  17.215  0.00  0.00    +0.000 A 
ATOM      9  C   UNL     1       4.670   4.626  16.663  0.00  0.00    +0.000 A 
ATOM     10  C   UNL     1       4.977   5.982  16.743  0.00  0.00    +0.000 A 
ATOM     11  C   UNL     1       4.149   6.860  17.444  0.00  0.00    +0.000 A 
ATOM     12  O   UNL     1       6.104   6.506  16.167  0.00  0.00    +0.000 OA
ATOM     13  C   UNL     1       7.158   5.554  16.299  0.00  0.00    +0.000 C 
ATOM     14  C   UNL     1       6.783   4.195  15.718  0.00  0.00    +0.000 C 
ATOM     15  O   UNL     1       5.496   3.697  16.101  0.00  0.00    +0.000 OA
ENDBRANCH   4   6
ENDBRANCH   1   2
BRANCH   1  16
ATOM     16  S   UNL     1       0.926  11.065  19.224  0.00  0.00    +0.000 S 
BRANCH  16  24
ATOM     17  C   UNL     1      -7.174  12.115  18.043  0.00  0.00    +0.000 C 
ATOM     18  C   UNL     1      -5.728  12.049  18.442  0.00  0.00    +0.000 A 
ATOM     19  C   UNL     1      -5.249  12.722  19.561  0.00  0.00    +0.000 A 
ATOM     20  C   UNL     1      -3.888  12.654  19.919  0.00  0.00    +0.000 A 
ATOM     21  C   UNL     1      -3.422  13.413  21.132  0.00  0.00    +0.000 C 
ATOM     22  C   UNL     1      -2.971  11.908  19.160  0.00  0.00    +0.000 A 
ATOM     23  N   UNL     1      -1.665  11.856  19.528  0.00  0.00    +0.000 NA
ATOM     24  C   UNL     1      -0.800  11.154  18.769  0.00  0.00    +0.000 A 
ATOM     25  C   UNL     1      -1.189  10.469  17.631  0.00  0.00    +0.000 A 
ATOM     26  C   UNL     1      -2.528  10.497  17.235  0.00  0.00    +0.000 A 
ATOM     27  C   UNL     1      -2.929   9.751  15.993  0.00  0.00    +0.000 C 
ATOM     28  C   UNL     1      -3.453  11.233  18.012  0.00  0.00    +0.000 A 
ATOM     29  C   UNL     1      -4.825  11.311  17.675  0.00  0.00    +0.000 A 
ENDBRANCH  16  24
ENDBRANCH   1  16
TORSDOF 4
ENDMDL
MODEL 2
REMARK VINA RESULT:      -8.6      1.163      2.381
REMARK  Name = 
REMARK  7 active torsions:
REMARK  status: ('A' for Active; 'I' for Inactive)
REMARK    1  A    between atoms: C_1  and  C_2
REMARK    2  A    between atoms: C_4  and  C_5
REMARK    3  A    between atoms: C_8  and  S_9
REMARK    4  A    between atoms: S_9  and  C_10
REMARK    5  A    between atoms: C_10  and  C_11
REMARK    6  A    between atoms: N_13  and  C_14
REMARK    7  A    between atoms: C_25  and  C_26
REMARK                            x       y       z     vdW  Elec       q    Type
REMARK                         _______ _______ _______ _____ _____    ______ ____
ROOT
ATOM      1  C   UNL     1       0.955   9.131  20.552  0.00  0.00    +0.000 C 
ENDROOT
BRANCH   1   2
ATOM      2  C   UNL     1       1.685   7.858  20.127  0.00  0.00    +0.000 C 
ATOM      3  O   UNL     1       1.801   6.913  20.904  0.00  0.00    +0.000 OA
ATOM      4  N   UNL     1       2.139   7.889  18.815  0.00  0.00    +0.000 N 
ATOM      5  H   UNL     1       2.106   8.797  18.363  0.00  0.00    +0.000 HD
BRANCH   4   6
ATOM      6  C   UNL     1       2.834   6.874  18.122  0.00  0.00    +0.000 A 
ATOM      7  C   UNL     1       2.424   5.539  18.076  0.00  0.00    +0.000 A 
ATOM      8  C   UNL     1       3.225   4.567  17.461  0.00  0.00    +0.000 A 
ATOM      9  C   UNL     1       4.445   4.924  16.895  0.00  0.00    +0.000 A 
ATOM     10  C   UNL     1       4.812   6.266  16.861  0.00  0.00    +0.000 A 
ATOM     11  C   UNL     1       4.015   7.239  17.464  0.00  0.00    +0.000 A 
ATOM     12  O   UNL     1       5.972   6.685  16.265  0.00  0.00    +0.000 OA
ATOM     13  C   UNL     1       6.978   5.703  16.503  0.00  0.00    +0.000 C 
ATOM     14  C   UNL     1       6.551   4.315  16.037  0.00  0.00    +0.000 C 
ATOM     15  O   UNL     1       5.236   3.911  16.435  0.00  0.00    +0.000 OA
ENDBRANCH   4   6
ENDBRANCH   1   2
BRANCH   1  16
ATOM     16  S   UNL     1       1.099  10.392  19.245  0.00  0.00    +0.000 S 
BRANCH  16  24
ATOM     17  C   UNL     1      -6.701  12.454  17.512  0.00  0.00    +0.000 C 
ATOM     18  C   UNL     1      -5.281  11.981  17.626  0.00  0.00    +0.000 A 
ATOM     19  C   UNL     1      -4.684  11.219  16.627  0.00  0.00    +0.000 A 
ATOM     20  C   UNL     1      -3.352  10.778  16.751  0.00  0.00    +0.000 A 
ATOM     21  C   UNL     1      -2.761   9.944  15.646  0.00  0.00    +0.000 C 
ATOM     22  C   UNL     1      -2.584  11.091  17.885  0.00  0.00    +0.000 A 
ATOM     23  N   UNL     1      -1.300  10.657  17.979  0.00  0.00    +0.000 NA
ATOM     24  C   UNL     1      -0.592  10.948  19.088  0.00  0.00    +0.000 A 
ATOM     25  C   UNL     1      -1.114  11.687  20.136  0.00  0.00    +0.000 A 
ATOM     26  C   UNL     1      -2.427  12.155  20.061  0.00  0.00    +0.000 A 
ATOM     27  C   UNL     1      -2.976  12.950  21.212  0.00  0.00    +0.000 C 
ATOM     28  C   UNL     1      -3.193  11.855  18.910  0.00  0.00    +0.000 A 
ATOM     29  C   UNL     1      -4.531  12.291  18.761  0.00  0.00    +0.000 A 
ENDBRANCH  16  24
ENDBRANCH   1  16
TORSDOF 4
ENDMDL
MODEL 3
REMARK VINA RESULT:      -8.4      1.829      2.250
REMARK  Name = 
REMARK  7 active torsions:
REMARK  status: ('A' for Active; 'I' for Inactive)
REMARK    1  A    between atoms: C_1  and  C_2
REMARK    2  A    between atoms: C_4  and  C_5
REMARK    3  A    between atoms: C_8  and  S_9
REMARK    4  A    between atoms: S_9  and  C_10
REMARK    5  A    between atoms: C_10  and  C_11
REMARK    6  A    between atoms: N_13  and  C_14
REMARK    7  A    between atoms: C_25  and  C_26
REMARK                            x       y       z     vdW  Elec       q    Type
REMARK                         _______ _______ _______ _____ _____    ______ ____
ROOT
ATOM      1  C   UNL     1       0.530  10.023  21.850  0.00  0.00    +0.000 C 
ENDROOT
BRANCH   1   2
ATOM      2  C   UNL     1       0.476   8.572  21.376  0.00  0.00    +0.000 C 
ATOM      3  O   UNL     1      -0.552   7.911  21.496  0.00  0.00    +0.000 OA
ATOM      4  N   UNL     1       1.657   8.135  20.791  0.00  0.00    +0.000 N 
ATOM      5  H   UNL     1       2.458   8.746  20.914  0.00  0.00    +0.000 HD
BRANCH   4   6
ATOM      6  C   UNL     1       1.926   6.860  20.245  0.00  0.00    +0.000 A 
ATOM      7  C   UNL     1       1.587   5.657  20.870  0.00  0.00    +0.000 A 
ATOM      8  C   UNL     1       1.986   4.430  20.320  0.00  0.00    +0.000 A 
ATOM      9  C   UNL     1       2.730   4.401  19.146  0.00  0.00    +0.000 A 
ATOM     10  C   UNL     1       2.991   5.594  18.475  0.00  0.00    +0.000 A 
ATOM     11  C   UNL     1       2.589   6.816  19.013  0.00  0.00    +0.000 A 
ATOM     12  O   UNL     1       3.667   5.622  17.284  0.00  0.00    +0.000 OA
ATOM     13  C   UNL     1       4.680   4.619  17.320  0.00  0.00    +0.000 C 
ATOM     14  C   UNL     1       4.113   3.239  17.636  0.00  0.00    +0.000 C 
ATOM     15  O   UNL     1       3.201   3.187  18.738  0.00  0.00    +0.000 OA
ENDBRANCH   4   6
ENDBRANCH   1   2
BRANCH   1  16
ATOM     16  S   UNL     1       0.882  11.122  20.441  0.00  0.00    +0.000 S 
BRANCH  16  24
ATOM     17  C   UNL     1      -6.822  12.297  17.723  0.00  0.00    +0.000 C 
ATOM     18  C   UNL     1      -5.481  12.208  18.393  0.00  0.00    +0.000 A 
ATOM     19  C   UNL     1      -5.218  12.869  19.588  0.00  0.00    +0.000 A 
ATOM     20  C   UNL     1      -3.953  12.779  20.202  0.00  0.00    +0.000 A 
ATOM     21  C   UNL     1      -3.720  13.527  21.488  0.00  0.00    +0.000 C 
ATOM     22  C   UNL     1      -2.917  12.023  19.630  0.00  0.00    +0.000 A 
ATOM     23  N   UNL     1      -1.708  11.950  20.243  0.00  0.00    +0.000 NA
ATOM     24  C   UNL     1      -0.722  11.239  19.661  0.00  0.00    +0.000 A 
ATOM     25  C   UNL     1      -0.894  10.564  18.464  0.00  0.00    +0.000 A 
ATOM     26  C   UNL     1      -2.130  10.613  17.818  0.00  0.00    +0.000 A 
ATOM     27  C   UNL     1      -2.293   9.878  16.517  0.00  0.00    +0.000 C 
ATOM     28  C   UNL     1      -3.178  11.360  18.406  0.00  0.00    +0.000 A 
ATOM     29  C   UNL     1      -4.457  11.460  17.810  0.00  0.00    +0.000 A 
ENDBRANCH  16  24
ENDBRANCH   1  16
TORSDOF 4
ENDMDL
MODEL 4
REMARK VINA RESULT:      -8.4      1.900      3.464
REMARK  Name = 
REMARK  7 active torsions:
REMARK  status: ('A' for Active; 'I' for Inactive)
REMARK    1  A    between atoms: C_1  and  C_2
REMARK    2  A    between atoms: C_4  and  C_5
REMARK    3  A    between atoms: C_8  and  S_9
REMARK    4  A    between atoms: S_9  and  C_10
REMARK    5  A    between atoms: C_10  and  C_11
REMARK    6  A    between atoms: N_13  and  C_14
REMARK    7  A    between atoms: C_25  and  C_26
REMARK                            x       y       z     vdW  Elec       q    Type
REMARK                         _______ _______ _______ _____ _____    ______ ____
ROOT
ATOM      1  C   UNL     1       0.692   9.816  21.336  0.00  0.00    +0.000 C 
ENDROOT
BRANCH   1   2
ATOM      2  C   UNL     1       1.178   8.889  20.223  0.00  0.00    +0.000 C 
ATOM      3  O   UNL     1       1.141   9.247  19.048  0.00  0.00    +0.000 OA
ATOM      4  N   UNL     1       1.675   7.677  20.686  0.00  0.00    +0.000 N 
ATOM      5  H   UNL     1       1.487   7.474  21.662  0.00  0.00    +0.000 HD
BRANCH   4   6
ATOM      6  C   UNL     1       2.207   6.617  19.920  0.00  0.00    +0.000 A 
ATOM      7  C   UNL     1       2.920   6.795  18.731  0.00  0.00    +0.000 A 
ATOM      8  C   UNL     1       3.321   5.690  17.968  0.00  0.00    +0.000 A 
ATOM      9  C   UNL     1       3.004   4.401  18.385  0.00  0.00    +0.000 A 
ATOM     10  C   UNL     1       2.373   4.219  19.612  0.00  0.00    +0.000 A 
ATOM     11  C   UNL     1       1.979   5.315  20.381  0.00  0.00    +0.000 A 
ATOM     12  O   UNL     1       2.089   2.973  20.103  0.00  0.00    +0.000 OA
ATOM     13  C   UNL     1       1.721   2.134  19.010  0.00  0.00    +0.000 C 
ATOM     14  C   UNL     1       2.789   2.103  17.922  0.00  0.00    +0.000 C 
ATOM     15  O   UNL     1       3.303   3.381  17.529  0.00  0.00    +0.000 OA
ENDBRANCH   4   6
ENDBRANCH   1   2
BRANCH   1  16
ATOM     16  S   UNL     1       0.722  11.543  20.760  0.00  0.00    +0.000 S 
BRANCH  16  24
ATOM     17  C   UNL     1      -6.908  12.272  17.700  0.00  0.00    +0.000 C 
ATOM     18  C   UNL     1      -5.468  12.045  18.061  0.00  0.00    +0.000 A 
ATOM     19  C   UNL     1      -4.591  11.404  17.191  0.00  0.00    +0.000 A 
ATOM     20  C   UNL     1      -3.244  11.194  17.546  0.00  0.00    +0.000 A 
ATOM     21  C   UNL     1      -2.343  10.483  16.572  0.00  0.00    +0.000 C 
ATOM     22  C   UNL     1      -2.742  11.621  18.786  0.00  0.00    +0.000 A 
ATOM     23  N   UNL     1      -1.439  11.410  19.103  0.00  0.00    +0.000 NA
ATOM     24  C   UNL     1      -0.987  11.806  20.310  0.00  0.00    +0.000 A 
ATOM     25  C   UNL     1      -1.796  12.436  21.241  0.00  0.00    +0.000 A 
ATOM     26  C   UNL     1      -3.137  12.676  20.937  0.00  0.00    +0.000 A 
ATOM     27  C   UNL     1      -3.999  13.356  21.964  0.00  0.00    +0.000 C 
ATOM     28  C   UNL     1      -3.636  12.262  19.679  0.00  0.00    +0.000 A 
ATOM     29  C   UNL     1      -4.983  12.467  19.300  0.00  0.00    +0.000 A 
ENDBRANCH  16  24
ENDBRANCH   1  16
TORSDOF 4
ENDMDL
MODEL 5
REMARK VINA RESULT:      -8.3      1.983      3.242
REMARK  Name = 
REMARK  7 active torsions:
REMARK  status: ('A' for Active; 'I' for Inactive)
REMARK    1  A    between atoms: C_1  and  C_2
REMARK    2  A    between atoms: C_4  and  C_5
REMARK    3  A    between atoms: C_8  and  S_9
REMARK    4  A    between atoms: S_9  and  C_10
REMARK    5  A    between atoms: C_10  and  C_11
REMARK    6  A    between atoms: N_13  and  C_14
REMARK    7  A    between atoms: C_25  and  C_26
REMARK                            x       y       z     vdW  Elec       q    Type
REMARK                         _______ _______ _______ _____ _____    ______ ____
ROOT
ATOM      1  C   UNL     1       1.069   9.958  21.156  0.00  0.00    +0.000 C 
ENDROOT
BRANCH   1   2
ATOM      2  C   UNL     1       0.843   8.456  20.988  0.00  0.00    +0.000 C 
ATOM      3  O   UNL     1      -0.221   7.941  21.321  0.00  0.00    +0.000 OA
ATOM      4  N   UNL     1       1.917   7.794  20.407  0.00  0.00    +0.000 N 
ATOM      5  H   UNL     1       2.775   8.331  20.339  0.00  0.00    +0.000 HD
BRANCH   4   6
ATOM      6  C   UNL     1       2.018   6.419  20.106  0.00  0.00    +0.000 A 
ATOM      7  C   UNL     1       1.704   5.398  21.008  0.00  0.00    +0.000 A 
ATOM      8  C   UNL     1       1.936   4.056  20.676  0.00  0.00    +0.000 A 
ATOM      9  C   UNL     1       2.489   3.728  19.442  0.00  0.00    +0.000 A 
ATOM     10  C   UNL     1       2.718   4.736  18.510  0.00  0.00    +0.000 A 
ATOM     11  C   UNL     1       2.481   6.072  18.832  0.00  0.00    +0.000 A 
ATOM     12  O   UNL     1       3.204   4.467  17.258  0.00  0.00    +0.000 OA
ATOM     13  C   UNL     1       4.145   3.401  17.362  0.00  0.00    +0.000 C 
ATOM     14  C   UNL     1       3.548   2.168  18.032  0.00  0.00    +0.000 C 
ATOM     15  O   UNL     1       2.814   2.418  19.236  0.00  0.00    +0.000 OA
ENDBRANCH   4   6
ENDBRANCH   1   2
BRANCH   1  16
ATOM     16  S   UNL     1       1.070  10.770  19.526  0.00  0.00    +0.000 S 
BRANCH  16  24
ATOM     17  C   UNL     1      -6.812  12.326  17.640  0.00  0.00    +0.000 C 
ATOM     18  C   UNL     1      -5.366  11.951  17.780  0.00  0.00    +0.000 A 
ATOM     19  C   UNL     1      -4.692  11.259  16.778  0.00  0.00    +0.000 A 
ATOM     20  C   UNL     1      -3.335  10.910  16.926  0.00  0.00    +0.000 A 
ATOM     21  C   UNL     1      -2.660  10.149  15.817  0.00  0.00    +0.000 C 
ATOM     22  C   UNL     1      -2.619  11.245  18.087  0.00  0.00    +0.000 A 
ATOM     23  N   UNL     1      -1.311  10.900  18.204  0.00  0.00    +0.000 NA
ATOM     24  C   UNL     1      -0.652  11.210  19.339  0.00  0.00    +0.000 A 
ATOM     25  C   UNL     1      -1.251  11.883  20.391  0.00  0.00    +0.000 A 
ATOM     26  C   UNL     1      -2.592  12.260  20.292  0.00  0.00    +0.000 A 
ATOM     27  C   UNL     1      -3.223  12.984  21.449  0.00  0.00    +0.000 C 
ATOM     28  C   UNL     1      -3.305  11.938  19.114  0.00  0.00    +0.000 A 
ATOM     29  C   UNL     1      -4.667  12.283  18.942  0.00  0.00    +0.000 A 
ENDBRANCH  16  24
ENDBRANCH   1  16
TORSDOF 4
ENDMDL
MODEL 6
REMARK VINA RESULT:      -8.3      8.446     11.475
REMARK  Name = 
REMARK  7 active torsions:
REMARK  status: ('A' for Active; 'I' for Inactive)
REMARK    1  A    between atoms: C_1  and  C_2
REMARK    2  A    between atoms: C_4  and  C_5
REMARK    3  A    between atoms: C_8  and  S_9
REMARK    4  A    between atoms: S_9  and  C_10
REMARK    5  A    between atoms: C_10  and  C_11
REMARK    6  A    between atoms: N_13  and  C_14
REMARK    7  A    between atoms: C_25  and  C_26
REMARK                            x       y       z     vdW  Elec       q    Type
REMARK                         _______ _______ _______ _____ _____    ______ ____
ROOT
ATOM      1  C   UNL     1       7.462   8.506  17.709  0.00  0.00    +0.000 C 
ENDROOT
BRANCH   1   2
ATOM      2  C   UNL     1       8.462   9.485  18.322  0.00  0.00    +0.000 C 
ATOM      3  O   UNL     1       9.067   9.200  19.353  0.00  0.00    +0.000 OA
ATOM      4  N   UNL     1       8.617  10.653  17.587  0.00  0.00    +0.000 N 
ATOM      5  H   UNL     1       7.931  10.802  16.855  0.00  0.00    +0.000 HD
BRANCH   4   6
ATOM      6  C   UNL     1       9.467  11.743  17.875  0.00  0.00    +0.000 A 
ATOM      7  C   UNL     1      10.863  11.674  17.842  0.00  0.00    +0.000 A 
ATOM      8  C   UNL     1      11.641  12.767  18.248  0.00  0.00    +0.000 A 
ATOM      9  C   UNL     1      11.028  13.932  18.697  0.00  0.00    +0.000 A 
ATOM     10  C   UNL     1       9.640  14.034  18.646  0.00  0.00    +0.000 A 
ATOM     11  C   UNL     1       8.861  12.953  18.234  0.00  0.00    +0.000 A 
ATOM     12  O   UNL     1       8.983  15.177  19.018  0.00  0.00    +0.000 OA
ATOM     13  C   UNL     1       9.674  15.750  20.126  0.00  0.00    +0.000 C 
ATOM     14  C   UNL     1      11.148  15.997  19.822  0.00  0.00    +0.000 C 
ATOM     15  O   UNL     1      11.839  14.905  19.205  0.00  0.00    +0.000 OA
ENDBRANCH   4   6
ENDBRANCH   1   2
BRANCH   1  16
ATOM     16  S   UNL     1       7.892   6.802  18.188  0.00  0.00    +0.000 S 
BRANCH  16  24
ATOM     17  C   UNL     1       4.969   2.772  11.606  0.00  0.00    +0.000 C 
ATOM     18  C   UNL     1       5.661   3.579  12.666  0.00  0.00    +0.000 A 
ATOM     19  C   UNL     1       6.834   4.278  12.400  0.00  0.00    +0.000 A 
ATOM     20  C   UNL     1       7.474   5.028  13.407  0.00  0.00    +0.000 A 
ATOM     21  C   UNL     1       8.749   5.753  13.067  0.00  0.00    +0.000 C 
ATOM     22  C   UNL     1       6.953   5.092  14.710  0.00  0.00    +0.000 A 
ATOM     23  N   UNL     1       7.588   5.824  15.661  0.00  0.00    +0.000 NA
ATOM     24  C   UNL     1       7.082   5.850  16.911  0.00  0.00    +0.000 A 
ATOM     25  C   UNL     1       5.929   5.170  17.265  0.00  0.00    +0.000 A 
ATOM     26  C   UNL     1       5.250   4.419  16.303  0.00  0.00    +0.000 A 
ATOM     27  C   UNL     1       4.004   3.684  16.710  0.00  0.00    +0.000 C 
ATOM     28  C   UNL     1       5.767   4.371  14.987  0.00  0.00    +0.000 A 
ATOM     29  C   UNL     1       5.138   3.629  13.959  0.00  0.00    +0.000 A 
ENDBRANCH  16  24
ENDBRANCH   1  16
TORSDOF 4
ENDMDL
MODEL 7
REMARK VINA RESULT:      -8.3      1.473      2.313
REMARK  Name = 
REMARK  7 active torsions:
REMARK  status: ('A' for Active; 'I' for Inactive)
REMARK    1  A    between atoms: C_1  and  C_2
REMARK    2  A    between atoms: C_4  and  C_5
REMARK    3  A    between atoms: C_8  and  S_9
REMARK    4  A    between atoms: S_9  and  C_10
REMARK    5  A    between atoms: C_10  and  C_11
REMARK    6  A    between atoms: N_13  and  C_14
REMARK    7  A    between atoms: C_25  and  C_26
REMARK                            x       y       z     vdW  Elec       q    Type
REMARK                         _______ _______ _______ _____ _____    ______ ____
ROOT
ATOM      1  C   UNL     1       1.343  10.064  18.625  0.00  0.00    +0.000 C 
ENDROOT
BRANCH   1   2
ATOM      2  C   UNL     1       1.856   8.678  19.014  0.00  0.00    +0.000 C 
ATOM      3  O   UNL     1       1.703   8.251  20.156  0.00  0.00    +0.000 OA
ATOM      4  N   UNL     1       2.448   7.990  17.963  0.00  0.00    +0.000 N 
ATOM      5  H   UNL     1       2.638   8.541  17.133  0.00  0.00    +0.000 HD
BRANCH   4   6
ATOM      6  C   UNL     1       3.006   6.693  17.991  0.00  0.00    +0.000 A 
ATOM      7  C   UNL     1       4.258   6.371  17.460  0.00  0.00    +0.000 A 
ATOM      8  C   UNL     1       4.697   5.041  17.425  0.00  0.00    +0.000 A 
ATOM      9  C   UNL     1       3.884   4.024  17.914  0.00  0.00    +0.000 A 
ATOM     10  C   UNL     1       2.676   4.353  18.524  0.00  0.00    +0.000 A 
ATOM     11  C   UNL     1       2.238   5.676  18.570  0.00  0.00    +0.000 A 
ATOM     12  O   UNL     1       1.861   3.401  19.078  0.00  0.00    +0.000 OA
ATOM     13  C   UNL     1       1.924   2.230  18.266  0.00  0.00    +0.000 C 
ATOM     14  C   UNL     1       3.355   1.736  18.078  0.00  0.00    +0.000 C 
ATOM     15  O   UNL     1       4.311   2.742  17.726  0.00  0.00    +0.000 OA
ENDBRANCH   4   6
ENDBRANCH   1   2
BRANCH   1  16
ATOM     16  S   UNL     1       0.383  10.776  19.999  0.00  0.00    +0.000 S 
BRANCH  16  24
ATOM     17  C   UNL     1      -7.197  12.693  17.358  0.00  0.00    +0.000 C 
ATOM     18  C   UNL     1      -5.874  12.455  18.025  0.00  0.00    +0.000 A 
ATOM     19  C   UNL     1      -5.586  12.978  19.281  0.00  0.00    +0.000 A 
ATOM     20  C   UNL     1      -4.337  12.749  19.893  0.00  0.00    +0.000 A 
ATOM     21  C   UNL     1      -4.075  13.351  21.247  0.00  0.00    +0.000 C 
ATOM     22  C   UNL     1      -3.342  11.989  19.255  0.00  0.00    +0.000 A 
ATOM     23  N   UNL     1      -2.148  11.780  19.867  0.00  0.00    +0.000 NA
ATOM     24  C   UNL     1      -1.201  11.069  19.224  0.00  0.00    +0.000 A 
ATOM     25  C   UNL     1      -1.398  10.527  17.965  0.00  0.00    +0.000 A 
ATOM     26  C   UNL     1      -2.620  10.717  17.318  0.00  0.00    +0.000 A 
ATOM     27  C   UNL     1      -2.811  10.124  15.950  0.00  0.00    +0.000 C 
ATOM     28  C   UNL     1      -3.627  11.466  17.970  0.00  0.00    +0.000 A 
ATOM     29  C   UNL     1      -4.890  11.705  17.378  0.00  0.00    +0.000 A 
ENDBRANCH  16  24
ENDBRANCH   1  16
TORSDOF 4
ENDMDL
MODEL 8
REMARK VINA RESULT:      -8.2      1.787      2.315
REMARK  Name = 
REMARK  7 active torsions:
REMARK  status: ('A' for Active; 'I' for Inactive)
REMARK    1  A    between atoms: C_1  and  C_2
REMARK    2  A    between atoms: C_4  and  C_5
REMARK    3  A    between atoms: C_8  and  S_9
REMARK    4  A    between atoms: S_9  and  C_10
REMARK    5  A    between atoms: C_10  and  C_11
REMARK    6  A    between atoms: N_13  and  C_14
REMARK    7  A    between atoms: C_25  and  C_26
REMARK                            x       y       z     vdW  Elec       q    Type
REMARK                         _______ _______ _______ _____ _____    ______ ____
ROOT
ATOM      1  C   UNL     1       1.733  10.136  18.158  0.00  0.00    +0.000 C 
ENDROOT
BRANCH   1   2
ATOM      2  C   UNL     1       2.186   8.679  18.088  0.00  0.00    +0.000 C 
ATOM      3  O   UNL     1       2.923   8.294  17.184  0.00  0.00    +0.000 OA
ATOM      4  N   UNL     1       1.717   7.900  19.138  0.00  0.00    +0.000 N 
ATOM      5  H   UNL     1       0.994   8.327  19.708  0.00  0.00    +0.000 HD
BRANCH   4   6
ATOM      6  C   UNL     1       1.964   6.529  19.369  0.00  0.00    +0.000 A 
ATOM      7  C   UNL     1       2.015   5.948  20.639  0.00  0.00    +0.000 A 
ATOM      8  C   UNL     1       2.375   4.602  20.794  0.00  0.00    +0.000 A 
ATOM      9  C   UNL     1       2.693   3.832  19.680  0.00  0.00    +0.000 A 
ATOM     10  C   UNL     1       2.556   4.384  18.409  0.00  0.00    +0.000 A 
ATOM     11  C   UNL     1       2.189   5.720  18.248  0.00  0.00    +0.000 A 
ATOM     12  O   UNL     1       2.796   3.657  17.274  0.00  0.00    +0.000 OA
ATOM     13  C   UNL     1       3.892   2.780  17.526  0.00  0.00    +0.000 C 
ATOM     14  C   UNL     1       3.653   1.896  18.746  0.00  0.00    +0.000 C 
ATOM     15  O   UNL     1       3.167   2.573  19.910  0.00  0.00    +0.000 OA
ENDBRANCH   4   6
ENDBRANCH   1   2
BRANCH   1  16
ATOM     16  S   UNL     1       0.744  10.405  19.664  0.00  0.00    +0.000 S 
BRANCH  16  24
ATOM     17  C   UNL     1      -6.927  12.504  17.461  0.00  0.00    +0.000 C 
ATOM     18  C   UNL     1      -5.573  12.236  18.050  0.00  0.00    +0.000 A 
ATOM     19  C   UNL     1      -5.195  12.764  19.281  0.00  0.00    +0.000 A 
ATOM     20  C   UNL     1      -3.918  12.507  19.818  0.00  0.00    +0.000 A 
ATOM     21  C   UNL     1      -3.558  13.115  21.147  0.00  0.00    +0.000 C 
ATOM     22  C   UNL     1      -2.985  11.713  19.131  0.00  0.00    +0.000 A 
ATOM     23  N   UNL     1      -1.762  11.478  19.672  0.00  0.00    +0.000 NA
ATOM     24  C   UNL     1      -0.875  10.734  18.982  0.00  0.00    +0.000 A 
ATOM     25  C   UNL     1      -1.162  10.184  17.744  0.00  0.00    +0.000 A 
ATOM     26  C   UNL     1      -2.417  10.401  17.170  0.00  0.00    +0.000 A 
ATOM     27  C   UNL     1      -2.706   9.799  15.823  0.00  0.00    +0.000 C 
ATOM     28  C   UNL     1      -3.362  11.185  17.872  0.00  0.00    +0.000 A 
ATOM     29  C   UNL     1      -4.651  11.452  17.354  0.00  0.00    +0.000 A 
ENDBRANCH  16  24
ENDBRANCH   1  16
TORSDOF 4
ENDMDL
MODEL 9
REMARK VINA RESULT:      -8.2      1.499      3.108
REMARK  Name = 
REMARK  7 active torsions:
REMARK  status: ('A' for Active; 'I' for Inactive)
REMARK    1  A    between atoms: C_1  and  C_2
REMARK    2  A    between atoms: C_4  and  C_5
REMARK    3  A    between atoms: C_8  and  S_9
REMARK    4  A    between atoms: S_9  and  C_10
REMARK    5  A    between atoms: C_10  and  C_11
REMARK    6  A    between atoms: N_13  and  C_14
REMARK    7  A    between atoms: C_25  and  C_26
REMARK                            x       y       z     vdW  Elec       q    Type
REMARK                         _______ _______ _______ _____ _____    ______ ____
ROOT
ATOM      1  C   UNL     1       1.285  10.416  18.380  0.00  0.00    +0.000 C 
ENDROOT
BRANCH   1   2
ATOM      2  C   UNL     1       1.772   9.026  18.787  0.00  0.00    +0.000 C 
ATOM      3  O   UNL     1       1.509   8.571  19.898  0.00  0.00    +0.000 OA
ATOM      4  N   UNL     1       2.474   8.368  17.787  0.00  0.00    +0.000 N 
ATOM      5  H   UNL     1       2.742   8.940  16.993  0.00  0.00    +0.000 HD
BRANCH   4   6
ATOM      6  C   UNL     1       3.041   7.076  17.842  0.00  0.00    +0.000 A 
ATOM      7  C   UNL     1       4.324   6.766  17.382  0.00  0.00    +0.000 A 
ATOM      8  C   UNL     1       4.776   5.439  17.368  0.00  0.00    +0.000 A 
ATOM      9  C   UNL     1       3.945   4.414  17.807  0.00  0.00    +0.000 A 
ATOM     10  C   UNL     1       2.701   4.731  18.348  0.00  0.00    +0.000 A 
ATOM     11  C   UNL     1       2.250   6.050  18.373  0.00  0.00    +0.000 A 
ATOM     12  O   UNL     1       1.864   3.770  18.851  0.00  0.00    +0.000 OA
ATOM     13  C   UNL     1       1.983   2.603  18.041  0.00  0.00    +0.000 C 
ATOM     14  C   UNL     1       3.426   2.121  17.933  0.00  0.00    +0.000 C 
ATOM     15  O   UNL     1       4.393   3.136  17.639  0.00  0.00    +0.000 OA
ENDBRANCH   4   6
ENDBRANCH   1   2
BRANCH   1  16
ATOM     16  S   UNL     1       0.857  11.381  19.863  0.00  0.00    +0.000 S 
BRANCH  16  24
ATOM     17  C   UNL     1      -7.055  12.286  17.695  0.00  0.00    +0.000 C 
ATOM     18  C   UNL     1      -5.587  12.038  17.884  0.00  0.00    +0.000 A 
ATOM     19  C   UNL     1      -4.815  11.441  16.893  0.00  0.00    +0.000 A 
ATOM     20  C   UNL     1      -3.438  11.209  17.087  0.00  0.00    +0.000 A 
ATOM     21  C   UNL     1      -2.655  10.547  15.986  0.00  0.00    +0.000 C 
ATOM     22  C   UNL     1      -2.801  11.570  18.286  0.00  0.00    +0.000 A 
ATOM     23  N   UNL     1      -1.473  11.340  18.447  0.00  0.00    +0.000 NA
ATOM     24  C   UNL     1      -0.889  11.672  19.616  0.00  0.00    +0.000 A 
ATOM     25  C   UNL     1      -1.587  12.255  20.661  0.00  0.00    +0.000 A 
ATOM     26  C   UNL     1      -2.951  12.513  20.517  0.00  0.00    +0.000 A 
ATOM     27  C   UNL     1      -3.690  13.142  21.666  0.00  0.00    +0.000 C 
ATOM     28  C   UNL     1      -3.587  12.166  19.302  0.00  0.00    +0.000 A 
ATOM     29  C   UNL     1      -4.966  12.394  19.083  0.00  0.00    +0.000 A 
ENDBRANCH  16  24
ENDBRANCH   1  16
TORSDOF 4
ENDMDL
