MODEL 1
REMARK VINA RESULT:      -8.6      0.000      0.000
REMARK  Name = 
REMARK  16 active torsions:
REMARK  status: ('A' for Active; 'I' for Inactive)
REMARK    1  A    between atoms: C_1  and  C_2
REMARK    2  A    between atoms: C_2  and  C_3
REMARK    3  A    between atoms: C_3  and  C_4
REMARK    4  A    between atoms: C_4  and  C_5
REMARK    5  A    between atoms: C_4  and  N_14
REMARK    6  A    between atoms: N_9  and  C_10
REMARK    7  A    between atoms: C_10  and  C_11
REMARK    8  A    between atoms: C_11  and  O_12
REMARK    9  A    between atoms: O_12  and  C_13
REMARK   10  A    between atoms: N_14  and  C_15
REMARK   11  A    between atoms: N_14  and  C_29
REMARK   12  A    between atoms: C_15  and  C_16
REMARK   13  A    between atoms: C_20  and  C_21
REMARK   14  A    between atoms: C_22  and  C_23
REMARK   15  A    between atoms: C_27  and  O_28
REMARK   16  A    between atoms: C_29  and  C_30
REMARK                            x       y       z     vdW  Elec       q    Type
REMARK                         _______ _______ _______ _____ _____    ______ ____
ROOT
ATOM      1  N   UNL     1       3.753   5.476  17.815  0.00  0.00    +0.000 NA
ENDROOT
BRANCH   1   2
ATOM      2  C   UNL     1       5.060   4.930  17.355  0.00  0.00    +0.000 C 
BRANCH   2   3
ATOM      3  C   UNL     1       6.210   5.262  18.281  0.00  0.00    +0.000 A 
ATOM      4  N   UNL     1       6.466   4.580  19.392  0.00  0.00    +0.000 NA
ATOM      5  N   UNL     1       7.489   5.208  20.030  0.00  0.00    +0.000 NA
ATOM      6  N   UNL     1       7.890   6.260  19.345  0.00  0.00    +0.000 NA
ATOM      7  N   UNL     1       7.107   6.307  18.236  0.00  0.00    +0.000 N 
BRANCH   7   8
ATOM      8  C   UNL     1       7.513   7.274  17.246  0.00  0.00    +0.000 C 
BRANCH   8   9
ATOM      9  C   UNL     1       7.558   8.755  17.575  0.00  0.00    +0.000 C 
BRANCH   9  10
ATOM     10  O   UNL     1       8.637   9.085  18.445  0.00  0.00    +0.000 OA
ATOM     11  C   UNL     1       9.000  10.456  18.309  0.00  0.00    +0.000 C 
ENDBRANCH   9  10
ENDBRANCH   8   9
ENDBRANCH   7   8
ENDBRANCH   2   3
BRANCH   2  12
ATOM     12  C   UNL     1       5.353   5.422  15.917  0.00  0.00    +0.000 C 
BRANCH  12  14
ATOM     13  C   UNL     1       6.838   4.762  14.060  0.00  0.00    +0.000 C 
ATOM     14  C   UNL     1       5.557   4.392  14.812  0.00  0.00    +0.000 C 
ENDBRANCH  12  14
ENDBRANCH   2  12
ENDBRANCH   1   2
BRANCH   1  15
ATOM     15  C   UNL     1       3.508   6.938  17.669  0.00  0.00    +0.000 C 
BRANCH  15  16
ATOM     16  C   UNL     1       2.470   7.725  18.462  0.00  0.00    +0.000 A 
ATOM     17  C   UNL     1       1.600   8.725  18.013  0.00  0.00    +0.000 A 
ATOM     18  C   UNL     1       0.807   9.474  18.920  0.00  0.00    +0.000 A 
ATOM     19  C   UNL     1       0.020  10.584  18.532  0.00  0.00    +0.000 A 
ATOM     20  C   UNL     1      -0.658  11.382  19.475  0.00  0.00    +0.000 A 
ATOM     21  C   UNL     1      -1.428  12.586  19.005  0.00  0.00    +0.000 C 
ATOM     22  C   UNL     1      -0.560  11.053  20.833  0.00  0.00    +0.000 A 
ATOM     23  C   UNL     1      -1.181  11.861  21.939  0.00  0.00    +0.000 C 
ATOM     24  C   UNL     1       0.169   9.901  21.197  0.00  0.00    +0.000 A 
ATOM     25  C   UNL     1       0.858   9.119  20.275  0.00  0.00    +0.000 A 
ATOM     26  N   UNL     1       1.546   8.059  20.707  0.00  0.00    +0.000 NA
ATOM     27  C   UNL     1       2.311   7.414  19.809  0.00  0.00    +0.000 A 
BRANCH  27  28
ATOM     28  O   UNL     1       2.915   6.330  20.355  0.00  0.00    +0.000 OA
ATOM     29  H   UNL     1       2.312   6.183  21.107  0.00  0.00    +0.000 HD
ENDBRANCH  27  28
ENDBRANCH  15  16
ENDBRANCH   1  15
BRANCH   1  30
ATOM     30  C   UNL     1       2.558   4.661  17.518  0.00  0.00    +0.000 C 
BRANCH  30  31
ATOM     31  C   UNL     1       2.309   3.430  18.422  0.00  0.00    +0.000 C 
ATOM     32  C   UNL     1       0.942   3.494  19.098  0.00  0.00    +0.000 C 
ATOM     33  C   UNL     1       1.192   2.952  20.480  0.00  0.00    +0.000 C 
ATOM     34  C   UNL     1       2.646   3.270  20.733  0.00  0.00    +0.000 C 
ATOM     35  O   UNL     1       3.294   3.364  19.464  0.00  0.00    +0.000 OA
ENDBRANCH  30  31
ENDBRANCH   1  30
TORSDOF 12
ENDMDL
MODEL 2
REMARK VINA RESULT:      -8.1      1.943      2.918
REMARK  Name = 
REMARK  16 active torsions:
REMARK  status: ('A' for Active; 'I' for Inactive)
REMARK    1  A    between atoms: C_1  and  C_2
REMARK    2  A    between atoms: C_2  and  C_3
REMARK    3  A    between atoms: C_3  and  C_4
REMARK    4  A    between atoms: C_4  and  C_5
REMARK    5  A    between atoms: C_4  and  N_14
REMARK    6  A    between atoms: N_9  and  C_10
REMARK    7  A    between atoms: C_10  and  C_11
REMARK    8  A    between atoms: C_11  and  O_12
REMARK    9  A    between atoms: O_12  and  C_13
REMARK   10  A    between atoms: N_14  and  C_15
REMARK   11  A    between atoms: N_14  and  C_29
REMARK   12  A    between atoms: C_15  and  C_16
REMARK   13  A    between atoms: C_20  and  C_21
REMARK   14  A    between atoms: C_22  and  C_23
REMARK   15  A    between atoms: C_27  and  O_28
REMARK   16  A    between atoms: C_29  and  C_30
REMARK                            x       y       z     vdW  Elec       q    Type
REMARK                         _______ _______ _______ _____ _____    ______ ____
ROOT
ATOM      1  N   UNL     1       3.633   5.121  18.605  0.00  0.00    +0.000 NA
ENDROOT
BRANCH   1   2
ATOM      2  C   UNL     1       4.728   4.497  19.398  0.00  0.00    +0.000 C 
BRANCH   2   3
ATOM      3  C   UNL     1       6.110   4.944  18.972  0.00  0.00    +0.000 A 
ATOM      4  N   UNL     1       6.968   5.530  19.799  0.00  0.00    +0.000 NA
ATOM      5  N   UNL     1       8.056   5.892  19.067  0.00  0.00    +0.000 NA
ATOM      6  N   UNL     1       7.909   5.539  17.807  0.00  0.00    +0.000 NA
ATOM      7  N   UNL     1       6.696   4.932  17.725  0.00  0.00    +0.000 N 
BRANCH   7   8
ATOM      8  C   UNL     1       6.422   4.288  16.464  0.00  0.00    +0.000 C 
BRANCH   8   9
ATOM      9  C   UNL     1       6.309   5.097  15.184  0.00  0.00    +0.000 C 
BRANCH   9  10
ATOM     10  O   UNL     1       7.571   5.290  14.552  0.00  0.00    +0.000 OA
ATOM     11  C   UNL     1       7.489   5.011  13.156  0.00  0.00    +0.000 C 
ENDBRANCH   9  10
ENDBRANCH   8   9
ENDBRANCH   7   8
ENDBRANCH   2   3
BRANCH   2  12
ATOM     12  C   UNL     1       4.604   2.955  19.333  0.00  0.00    +0.000 C 
BRANCH  12  14
ATOM     13  C   UNL     1       3.125   2.621  21.280  0.00  0.00    +0.000 C 
ATOM     14  C   UNL     1       4.438   2.173  20.631  0.00  0.00    +0.000 C 
ENDBRANCH  12  14
ENDBRANCH   2  12
ENDBRANCH   1   2
BRANCH   1  15
ATOM     15  C   UNL     1       3.641   6.601  18.434  0.00  0.00    +0.000 C 
BRANCH  15  16
ATOM     16  C   UNL     1       2.542   7.536  18.927  0.00  0.00    +0.000 A 
ATOM     17  C   UNL     1       1.933   8.601  18.255  0.00  0.00    +0.000 A 
ATOM     18  C   UNL     1       1.037   9.477  18.921  0.00  0.00    +0.000 A 
ATOM     19  C   UNL     1       0.506  10.645  18.326  0.00  0.00    +0.000 A 
ATOM     20  C   UNL     1      -0.282  11.559  19.054  0.00  0.00    +0.000 A 
ATOM     21  C   UNL     1      -0.766  12.815  18.382  0.00  0.00    +0.000 C 
ATOM     22  C   UNL     1      -0.559  11.290  20.400  0.00  0.00    +0.000 A 
ATOM     23  C   UNL     1      -1.331  12.215  21.300  0.00  0.00    +0.000 C 
ATOM     24  C   UNL     1      -0.082  10.085  20.958  0.00  0.00    +0.000 A 
ATOM     25  C   UNL     1       0.713   9.187  20.254  0.00  0.00    +0.000 A 
ATOM     26  N   UNL     1       1.145   8.080  20.865  0.00  0.00    +0.000 NA
ATOM     27  C   UNL     1       2.023   7.312  20.199  0.00  0.00    +0.000 A 
BRANCH  27  28
ATOM     28  O   UNL     1       2.343   6.197  20.901  0.00  0.00    +0.000 OA
ATOM     29  H   UNL     1       2.582   6.615  21.749  0.00  0.00    +0.000 HD
ENDBRANCH  27  28
ENDBRANCH  15  16
ENDBRANCH   1  15
BRANCH   1  30
ATOM     30  C   UNL     1       3.211   4.404  17.386  0.00  0.00    +0.000 C 
BRANCH  30  31
ATOM     31  C   UNL     1       1.843   3.683  17.436  0.00  0.00    +0.000 C 
ATOM     32  C   UNL     1       1.087   3.997  18.724  0.00  0.00    +0.000 C 
ATOM     33  C   UNL     1       0.433   2.691  19.092  0.00  0.00    +0.000 C 
ATOM     34  C   UNL     1       1.344   1.651  18.485  0.00  0.00    +0.000 C 
ATOM     35  O   UNL     1       2.023   2.259  17.387  0.00  0.00    +0.000 OA
ENDBRANCH  30  31
ENDBRANCH   1  30
TORSDOF 12
ENDMDL
MODEL 3
REMARK VINA RESULT:      -7.9      0.924      1.090
REMARK  Name = 
REMARK  16 active torsions:
REMARK  status: ('A' for Active; 'I' for Inactive)
REMARK    1  A    between atoms: C_1  and  C_2
REMARK    2  A    between atoms: C_2  and  C_3
REMARK    3  A    between atoms: C_3  and  C_4
REMARK    4  A    between atoms: C_4  and  C_5
REMARK    5  A    between atoms: C_4  and  N_14
REMARK    6  A    between atoms: N_9  and  C_10
REMARK    7  A    between atoms: C_10  and  C_11
REMARK    8  A    between atoms: C_11  and  O_12
REMARK    9  A    between atoms: O_12  and  C_13
REMARK   10  A    between atoms: N_14  and  C_15
REMARK   11  A    between atoms: N_14  and  C_29
REMARK   12  A    between atoms: C_15  and  C_16
REMARK   13  A    between atoms: C_20  and  C_21
REMARK   14  A    between atoms: C_22  and  C_23
REMARK   15  A    between atoms: C_27  and  O_28
REMARK   16  A    between atoms: C_29  and  C_30
REMARK                            x       y       z     vdW  Elec       q    Type
REMARK                         _______ _______ _______ _____ _____    ______ ____
ROOT
ATOM      1  N   UNL     1       3.410   5.879  17.948  0.00  0.00    +0.000 NA
ENDROOT
BRANCH   1   2
ATOM      2  C   UNL     1       4.642   5.304  17.342  0.00  0.00    +0.000 C 
BRANCH   2   3
ATOM      3  C   UNL     1       5.855   5.396  18.243  0.00  0.00    +0.000 A 
ATOM      4  N   UNL     1       6.115   4.514  19.201  0.00  0.00    +0.000 NA
ATOM      5  N   UNL     1       7.208   4.956  19.878  0.00  0.00    +0.000 NA
ATOM      6  N   UNL     1       7.650   6.086  19.363  0.00  0.00    +0.000 NA
ATOM      7  N   UNL     1       6.820   6.376  18.327  0.00  0.00    +0.000 N 
BRANCH   7   8
ATOM      8  C   UNL     1       7.247   7.476  17.497  0.00  0.00    +0.000 C 
BRANCH   8   9
ATOM      9  C   UNL     1       8.322   8.438  17.970  0.00  0.00    +0.000 C 
BRANCH   9  10
ATOM     10  O   UNL     1       7.944   9.800  17.799  0.00  0.00    +0.000 OA
ATOM     11  C   UNL     1       9.003  10.675  18.181  0.00  0.00    +0.000 C 
ENDBRANCH   9  10
ENDBRANCH   8   9
ENDBRANCH   7   8
ENDBRANCH   2   3
BRANCH   2  12
ATOM     12  C   UNL     1       4.918   5.982  15.978  0.00  0.00    +0.000 C 
BRANCH  12  14
ATOM     13  C   UNL     1       5.759   3.786  15.232  0.00  0.00    +0.000 C 
ATOM     14  C   UNL     1       5.850   5.294  14.987  0.00  0.00    +0.000 C 
ENDBRANCH  12  14
ENDBRANCH   2  12
ENDBRANCH   1   2
BRANCH   1  15
ATOM     15  C   UNL     1       3.352   7.352  18.167  0.00  0.00    +0.000 C 
BRANCH  15  16
ATOM     16  C   UNL     1       2.276   8.064  18.978  0.00  0.00    +0.000 A 
ATOM     17  C   UNL     1       1.483   9.156  18.609  0.00  0.00    +0.000 A 
ATOM     18  C   UNL     1       0.638   9.804  19.547  0.00  0.00    +0.000 A 
ATOM     19  C   UNL     1      -0.074  10.993  19.262  0.00  0.00    +0.000 A 
ATOM     20  C   UNL     1      -0.805  11.679  20.252  0.00  0.00    +0.000 A 
ATOM     21  C   UNL     1      -1.490  12.972  19.901  0.00  0.00    +0.000 C 
ATOM     22  C   UNL     1      -0.839  11.156  21.551  0.00  0.00    +0.000 A 
ATOM     23  C   UNL     1      -1.528  11.826  22.708  0.00  0.00    +0.000 C 
ATOM     24  C   UNL     1      -0.184   9.932  21.802  0.00  0.00    +0.000 A 
ATOM     25  C   UNL     1       0.557   9.258  20.836  0.00  0.00    +0.000 A 
ATOM     26  N   UNL     1       1.169   8.117  21.164  0.00  0.00    +0.000 NA
ATOM     27  C   UNL     1       1.988   7.573  20.247  0.00  0.00    +0.000 A 
BRANCH  27  28
ATOM     28  O   UNL     1       2.505   6.395  20.678  0.00  0.00    +0.000 OA
ATOM     29  H   UNL     1       1.801   5.797  20.365  0.00  0.00    +0.000 HD
ENDBRANCH  27  28
ENDBRANCH  15  16
ENDBRANCH   1  15
BRANCH   1  30
ATOM     30  C   UNL     1       2.125   5.316  17.488  0.00  0.00    +0.000 C 
BRANCH  30  31
ATOM     31  C   UNL     1       1.787   3.878  17.948  0.00  0.00    +0.000 C 
ATOM     32  C   UNL     1       2.276   3.611  19.368  0.00  0.00    +0.000 C 
ATOM     33  C   UNL     1       2.772   2.190  19.323  0.00  0.00    +0.000 C 
ATOM     34  C   UNL     1       3.180   1.998  17.882  0.00  0.00    +0.000 C 
ATOM     35  O   UNL     1       2.420   2.914  17.093  0.00  0.00    +0.000 OA
ENDBRANCH  30  31
ENDBRANCH   1  30
TORSDOF 12
ENDMDL
MODEL 4
REMARK VINA RESULT:      -7.8      1.415      2.183
REMARK  Name = 
REMARK  16 active torsions:
REMARK  status: ('A' for Active; 'I' for Inactive)
REMARK    1  A    between atoms: C_1  and  C_2
REMARK    2  A    between atoms: C_2  and  C_3
REMARK    3  A    between atoms: C_3  and  C_4
REMARK    4  A    between atoms: C_4  and  C_5
REMARK    5  A    between atoms: C_4  and  N_14
REMARK    6  A    between atoms: N_9  and  C_10
REMARK    7  A    between atoms: C_10  and  C_11
REMARK    8  A    between atoms: C_11  and  O_12
REMARK    9  A    between atoms: O_12  and  C_13
REMARK   10  A    between atoms: N_14  and  C_15
REMARK   11  A    between atoms: N_14  and  C_29
REMARK   12  A    between atoms: C_15  and  C_16
REMARK   13  A    between atoms: C_20  and  C_21
REMARK   14  A    between atoms: C_22  and  C_23
REMARK   15  A    between atoms: C_27  and  O_28
REMARK   16  A    between atoms: C_29  and  C_30
REMARK                            x       y       z     vdW  Elec       q    Type
REMARK                         _______ _______ _______ _____ _____    ______ ____
ROOT
ATOM      1  N   UNL     1       3.606   5.505  18.024  0.00  0.00    +0.000 NA
ENDROOT
BRANCH   1   2
ATOM      2  C   UNL     1       4.985   5.057  18.362  0.00  0.00    +0.000 C 
BRANCH   2   3
ATOM      3  C   UNL     1       5.987   5.307  17.256  0.00  0.00    +0.000 A 
ATOM      4  N   UNL     1       6.269   4.412  16.316  0.00  0.00    +0.000 NA
ATOM      5  N   UNL     1       7.279   4.918  15.560  0.00  0.00    +0.000 NA
ATOM      6  N   UNL     1       7.631   6.112  15.990  0.00  0.00    +0.000 NA
ATOM      7  N   UNL     1       6.826   6.382  17.050  0.00  0.00    +0.000 N 
BRANCH   7   8
ATOM      8  C   UNL     1       6.910   7.732  17.550  0.00  0.00    +0.000 C 
BRANCH   8   9
ATOM      9  C   UNL     1       8.202   8.263  18.146  0.00  0.00    +0.000 C 
BRANCH   9  10
ATOM     10  O   UNL     1       8.342   9.670  17.971  0.00  0.00    +0.000 OA
ATOM     11  C   UNL     1       9.143  10.235  19.006  0.00  0.00    +0.000 C 
ENDBRANCH   9  10
ENDBRANCH   8   9
ENDBRANCH   7   8
ENDBRANCH   2   3
BRANCH   2  12
ATOM     12  C   UNL     1       4.964   3.561  18.756  0.00  0.00    +0.000 C 
BRANCH  12  14
ATOM     13  C   UNL     1       4.562   1.677  20.299  0.00  0.00    +0.000 C 
ATOM     14  C   UNL     1       4.804   3.187  20.226  0.00  0.00    +0.000 C 
ENDBRANCH  12  14
ENDBRANCH   2  12
ENDBRANCH   1   2
BRANCH   1  15
ATOM     15  C   UNL     1       3.378   6.955  17.766  0.00  0.00    +0.000 C 
BRANCH  15  16
ATOM     16  C   UNL     1       2.352   7.813  18.497  0.00  0.00    +0.000 A 
ATOM     17  C   UNL     1       1.498   8.791  17.974  0.00  0.00    +0.000 A 
ATOM     18  C   UNL     1       0.715   9.616  18.822  0.00  0.00    +0.000 A 
ATOM     19  C   UNL     1      -0.053  10.707  18.352  0.00  0.00    +0.000 A 
ATOM     20  C   UNL     1      -0.721  11.582  19.233  0.00  0.00    +0.000 A 
ATOM     21  C   UNL     1      -1.471  12.760  18.674  0.00  0.00    +0.000 C 
ATOM     22  C   UNL     1      -0.631  11.350  20.611  0.00  0.00    +0.000 A 
ATOM     23  C   UNL     1      -1.242  12.246  21.654  0.00  0.00    +0.000 C 
ATOM     24  C   UNL     1       0.079  10.217  21.059  0.00  0.00    +0.000 A 
ATOM     25  C   UNL     1       0.757   9.359  20.199  0.00  0.00    +0.000 A 
ATOM     26  N   UNL     1       1.428   8.322  20.709  0.00  0.00    +0.000 NA
ATOM     27  C   UNL     1       2.184   7.603  19.862  0.00  0.00    +0.000 A 
BRANCH  27  28
ATOM     28  O   UNL     1       2.770   6.552  20.487  0.00  0.00    +0.000 OA
ATOM     29  H   UNL     1       3.705   6.794  20.347  0.00  0.00    +0.000 HD
ENDBRANCH  27  28
ENDBRANCH  15  16
ENDBRANCH   1  15
BRANCH   1  30
ATOM     30  C   UNL     1       2.833   4.633  17.119  0.00  0.00    +0.000 C 
BRANCH  30  31
ATOM     31  C   UNL     1       1.569   3.961  17.705  0.00  0.00    +0.000 C 
ATOM     32  C   UNL     1       1.403   4.271  19.190  0.00  0.00    +0.000 C 
ATOM     33  C   UNL     1       0.895   2.981  19.779  0.00  0.00    +0.000 C 
ATOM     34  C   UNL     1       1.443   1.923  18.851  0.00  0.00    +0.000 C 
ATOM     35  O   UNL     1       1.653   2.533  17.578  0.00  0.00    +0.000 OA
ENDBRANCH  30  31
ENDBRANCH   1  30
TORSDOF 12
ENDMDL
MODEL 5
REMARK VINA RESULT:      -7.6      2.248      4.779
REMARK  Name = 
REMARK  16 active torsions:
REMARK  status: ('A' for Active; 'I' for Inactive)
REMARK    1  A    between atoms: C_1  and  C_2
REMARK    2  A    between atoms: C_2  and  C_3
REMARK    3  A    between atoms: C_3  and  C_4
REMARK    4  A    between atoms: C_4  and  C_5
REMARK    5  A    between atoms: C_4  and  N_14
REMARK    6  A    between atoms: N_9  and  C_10
REMARK    7  A    between atoms: C_10  and  C_11
REMARK    8  A    between atoms: C_11  and  O_12
REMARK    9  A    between atoms: O_12  and  C_13
REMARK   10  A    between atoms: N_14  and  C_15
REMARK   11  A    between atoms: N_14  and  C_29
REMARK   12  A    between atoms: C_15  and  C_16
REMARK   13  A    between atoms: C_20  and  C_21
REMARK   14  A    between atoms: C_22  and  C_23
REMARK   15  A    between atoms: C_27  and  O_28
REMARK   16  A    between atoms: C_29  and  C_30
REMARK                            x       y       z     vdW  Elec       q    Type
REMARK                         _______ _______ _______ _____ _____    ______ ____
ROOT
ATOM      1  N   UNL     1       3.767   5.089  18.317  0.00  0.00    +0.000 NA
ENDROOT
BRANCH   1   2
ATOM      2  C   UNL     1       3.793   3.608  18.168  0.00  0.00    +0.000 C 
BRANCH   2   3
ATOM      3  C   UNL     1       4.148   2.880  19.447  0.00  0.00    +0.000 A 
ATOM      4  N   UNL     1       5.208   2.088  19.560  0.00  0.00    +0.000 NA
ATOM      5  N   UNL     1       5.163   1.519  20.794  0.00  0.00    +0.000 NA
ATOM      6  N   UNL     1       4.110   1.941  21.463  0.00  0.00    +0.000 NA
ATOM      7  N   UNL     1       3.462   2.805  20.640  0.00  0.00    +0.000 N 
BRANCH   7   8
ATOM      8  C   UNL     1       2.383   3.538  21.255  0.00  0.00    +0.000 C 
BRANCH   8   9
ATOM      9  C   UNL     1       0.989   3.526  20.652  0.00  0.00    +0.000 C 
BRANCH   9  10
ATOM     10  O   UNL     1       0.693   2.297  19.996  0.00  0.00    +0.000 OA
ATOM     11  C   UNL     1       0.573   2.487  18.588  0.00  0.00    +0.000 C 
ENDBRANCH   9  10
ENDBRANCH   8   9
ENDBRANCH   7   8
ENDBRANCH   2   3
BRANCH   2  12
ATOM     12  C   UNL     1       4.761   3.216  17.026  0.00  0.00    +0.000 C 
BRANCH  12  14
ATOM     13  C   UNL     1       6.038   3.698  14.970  0.00  0.00    +0.000 C 
ATOM     14  C   UNL     1       4.762   4.042  15.744  0.00  0.00    +0.000 C 
ENDBRANCH  12  14
ENDBRANCH   2  12
ENDBRANCH   1   2
BRANCH   1  15
ATOM     15  C   UNL     1       2.472   5.797  18.110  0.00  0.00    +0.000 C 
BRANCH  15  16
ATOM     16  C   UNL     1       2.094   7.119  18.768  0.00  0.00    +0.000 A 
ATOM     17  C   UNL     1       1.581   7.342  20.050  0.00  0.00    +0.000 A 
ATOM     18  C   UNL     1       1.127   8.626  20.449  0.00  0.00    +0.000 A 
ATOM     19  C   UNL     1       0.473   8.872  21.680  0.00  0.00    +0.000 A 
ATOM     20  C   UNL     1      -0.076  10.131  21.993  0.00  0.00    +0.000 A 
ATOM     21  C   UNL     1      -0.813  10.313  23.292  0.00  0.00    +0.000 C 
ATOM     22  C   UNL     1       0.046  11.171  21.062  0.00  0.00    +0.000 A 
ATOM     23  C   UNL     1      -0.552  12.539  21.249  0.00  0.00    +0.000 C 
ATOM     24  C   UNL     1       0.762  10.929  19.872  0.00  0.00    +0.000 A 
ATOM     25  C   UNL     1       1.290   9.684  19.545  0.00  0.00    +0.000 A 
ATOM     26  N   UNL     1       1.934   9.534  18.384  0.00  0.00    +0.000 NA
ATOM     27  C   UNL     1       2.303   8.287  18.042  0.00  0.00    +0.000 A 
BRANCH  27  28
ATOM     28  O   UNL     1       2.990   8.274  16.873  0.00  0.00    +0.000 OA
ATOM     29  H   UNL     1       2.647   9.101  16.486  0.00  0.00    +0.000 HD
ENDBRANCH  27  28
ENDBRANCH  15  16
ENDBRANCH   1  15
BRANCH   1  30
ATOM     30  C   UNL     1       4.559   5.653  19.427  0.00  0.00    +0.000 C 
BRANCH  30  31
ATOM     31  C   UNL     1       5.994   6.123  19.095  0.00  0.00    +0.000 C 
ATOM     32  C   UNL     1       6.094   6.672  17.674  0.00  0.00    +0.000 C 
ATOM     33  C   UNL     1       7.432   6.183  17.186  0.00  0.00    +0.000 C 
ATOM     34  C   UNL     1       7.662   4.918  17.978  0.00  0.00    +0.000 C 
ATOM     35  O   UNL     1       6.917   5.027  19.191  0.00  0.00    +0.000 OA
ENDBRANCH  30  31
ENDBRANCH   1  30
TORSDOF 12
ENDMDL
MODEL 6
REMARK VINA RESULT:      -7.5      2.113      3.328
REMARK  Name = 
REMARK  16 active torsions:
REMARK  status: ('A' for Active; 'I' for Inactive)
REMARK    1  A    between atoms: C_1  and  C_2
REMARK    2  A    between atoms: C_2  and  C_3
REMARK    3  A    between atoms: C_3  and  C_4
REMARK    4  A    between atoms: C_4  and  C_5
REMARK    5  A    between atoms: C_4  and  N_14
REMARK    6  A    between atoms: N_9  and  C_10
REMARK    7  A    between atoms: C_10  and  C_11
REMARK    8  A    between atoms: C_11  and  O_12
REMARK    9  A    between atoms: O_12  and  C_13
REMARK   10  A    between atoms: N_14  and  C_15
REMARK   11  A    between atoms: N_14  and  C_29
REMARK   12  A    between atoms: C_15  and  C_16
REMARK   13  A    between atoms: C_20  and  C_21
REMARK   14  A    between atoms: C_22  and  C_23
REMARK   15  A    between atoms: C_27  and  O_28
REMARK   16  A    between atoms: C_29  and  C_30
REMARK                            x       y       z     vdW  Elec       q    Type
REMARK                         _______ _______ _______ _____ _____    ______ ____
ROOT
ATOM      1  N   UNL     1       3.435   5.201  18.135  0.00  0.00    +0.000 NA
ENDROOT
BRANCH   1   2
ATOM      2  C   UNL     1       4.729   4.473  18.238  0.00  0.00    +0.000 C 
BRANCH   2   3
ATOM      3  C   UNL     1       5.864   5.154  17.505  0.00  0.00    +0.000 A 
ATOM      4  N   UNL     1       6.543   6.178  18.012  0.00  0.00    +0.000 NA
ATOM      5  N   UNL     1       7.406   6.609  17.054  0.00  0.00    +0.000 NA
ATOM      6  N   UNL     1       7.297   5.876  15.964  0.00  0.00    +0.000 NA
ATOM      7  N   UNL     1       6.340   4.949  16.228  0.00  0.00    +0.000 N 
BRANCH   7   8
ATOM      8  C   UNL     1       6.203   3.915  15.232  0.00  0.00    +0.000 C 
BRANCH   8   9
ATOM      9  C   UNL     1       5.504   4.191  13.913  0.00  0.00    +0.000 C 
BRANCH   9  10
ATOM     10  O   UNL     1       6.040   3.418  12.843  0.00  0.00    +0.000 OA
ATOM     11  C   UNL     1       5.048   3.167  11.850  0.00  0.00    +0.000 C 
ENDBRANCH   9  10
ENDBRANCH   8   9
ENDBRANCH   7   8
ENDBRANCH   2   3
BRANCH   2  12
ATOM     12  C   UNL     1       4.549   3.018  17.742  0.00  0.00    +0.000 C 
BRANCH  12  14
ATOM     13  C   UNL     1       4.492   2.519  20.158  0.00  0.00    +0.000 C 
ATOM     14  C   UNL     1       4.301   1.914  18.765  0.00  0.00    +0.000 C 
ENDBRANCH  12  14
ENDBRANCH   2  12
ENDBRANCH   1   2
BRANCH   1  15
ATOM     15  C   UNL     1       3.469   6.675  17.919  0.00  0.00    +0.000 C 
BRANCH  15  16
ATOM     16  C   UNL     1       2.490   7.664  18.541  0.00  0.00    +0.000 A 
ATOM     17  C   UNL     1       1.798   8.713  17.928  0.00  0.00    +0.000 A 
ATOM     18  C   UNL     1       1.047   9.646  18.688  0.00  0.00    +0.000 A 
ATOM     19  C   UNL     1       0.448  10.800  18.132  0.00  0.00    +0.000 A 
ATOM     20  C   UNL     1      -0.186  11.771  18.933  0.00  0.00    +0.000 A 
ATOM     21  C   UNL     1      -0.750  13.007  18.289  0.00  0.00    +0.000 C 
ATOM     22  C   UNL     1      -0.235  11.574  20.319  0.00  0.00    +0.000 A 
ATOM     23  C   UNL     1      -0.823  12.564  21.287  0.00  0.00    +0.000 C 
ATOM     24  C   UNL     1       0.304  10.384  20.851  0.00  0.00    +0.000 A 
ATOM     25  C   UNL     1       0.949   9.430  20.070  0.00  0.00    +0.000 A 
ATOM     26  N   UNL     1       1.455   8.341  20.656  0.00  0.00    +0.000 NA
ATOM     27  C   UNL     1       2.191   7.516  19.892  0.00  0.00    +0.000 A 
BRANCH  27  28
ATOM     28  O   UNL     1       2.601   6.427  20.587  0.00  0.00    +0.000 OA
ATOM     29  H   UNL     1       1.937   5.786  20.273  0.00  0.00    +0.000 HD
ENDBRANCH  27  28
ENDBRANCH  15  16
ENDBRANCH   1  15
BRANCH   1  30
ATOM     30  C   UNL     1       2.363   4.533  17.371  0.00  0.00    +0.000 C 
BRANCH  30  31
ATOM     31  C   UNL     1       1.150   4.011  18.177  0.00  0.00    +0.000 C 
ATOM     32  C   UNL     1       1.356   4.181  19.679  0.00  0.00    +0.000 C 
ATOM     33  C   UNL     1       0.760   2.932  20.274  0.00  0.00    +0.000 C 
ATOM     34  C   UNL     1       0.904   1.907  19.174  0.00  0.00    +0.000 C 
ATOM     35  O   UNL     1       0.949   2.610  17.932  0.00  0.00    +0.000 OA
ENDBRANCH  30  31
ENDBRANCH   1  30
TORSDOF 12
ENDMDL
MODEL 7
REMARK VINA RESULT:      -7.5      1.968      3.483
REMARK  Name = 
REMARK  16 active torsions:
REMARK  status: ('A' for Active; 'I' for Inactive)
REMARK    1  A    between atoms: C_1  and  C_2
REMARK    2  A    between atoms: C_2  and  C_3
REMARK    3  A    between atoms: C_3  and  C_4
REMARK    4  A    between atoms: C_4  and  C_5
REMARK    5  A    between atoms: C_4  and  N_14
REMARK    6  A    between atoms: N_9  and  C_10
REMARK    7  A    between atoms: C_10  and  C_11
REMARK    8  A    between atoms: C_11  and  O_12
REMARK    9  A    between atoms: O_12  and  C_13
REMARK   10  A    between atoms: N_14  and  C_15
REMARK   11  A    between atoms: N_14  and  C_29
REMARK   12  A    between atoms: C_15  and  C_16
REMARK   13  A    between atoms: C_20  and  C_21
REMARK   14  A    between atoms: C_22  and  C_23
REMARK   15  A    between atoms: C_27  and  O_28
REMARK   16  A    between atoms: C_29  and  C_30
REMARK                            x       y       z     vdW  Elec       q    Type
REMARK                         _______ _______ _______ _____ _____    ______ ____
ROOT
ATOM      1  N   UNL     1       4.329   6.332  18.175  0.00  0.00    +0.000 NA
ENDROOT
BRANCH   1   2
ATOM      2  C   UNL     1       5.440   6.682  17.247  0.00  0.00    +0.000 C 
BRANCH   2   3
ATOM      3  C   UNL     1       6.390   5.534  16.984  0.00  0.00    +0.000 A 
ATOM      4  N   UNL     1       7.387   5.217  17.803  0.00  0.00    +0.000 NA
ATOM      5  N   UNL     1       8.097   4.218  17.213  0.00  0.00    +0.000 NA
ATOM      6  N   UNL     1       7.567   3.893  16.052  0.00  0.00    +0.000 NA
ATOM      7  N   UNL     1       6.486   4.700  15.892  0.00  0.00    +0.000 N 
BRANCH   7   8
ATOM      8  C   UNL     1       5.642   4.370  14.770  0.00  0.00    +0.000 C 
BRANCH   8   9
ATOM      9  C   UNL     1       6.236   3.855  13.471  0.00  0.00    +0.000 C 
BRANCH   9  10
ATOM     10  O   UNL     1       5.243   3.613  12.479  0.00  0.00    +0.000 OA
ATOM     11  C   UNL     1       5.589   2.486  11.678  0.00  0.00    +0.000 C 
ENDBRANCH   9  10
ENDBRANCH   8   9
ENDBRANCH   7   8
ENDBRANCH   2   3
BRANCH   2  12
ATOM     12  C   UNL     1       6.203   7.915  17.790  0.00  0.00    +0.000 C 
BRANCH  12  14
ATOM     13  C   UNL     1       8.391   8.885  18.391  0.00  0.00    +0.000 C 
ATOM     14  C   UNL     1       7.606   8.204  17.267  0.00  0.00    +0.000 C 
ENDBRANCH  12  14
ENDBRANCH   2  12
ENDBRANCH   1   2
BRANCH   1  15
ATOM     15  C   UNL     1       2.950   6.771  17.822  0.00  0.00    +0.000 C 
BRANCH  15  16
ATOM     16  C   UNL     1       2.170   7.852  18.561  0.00  0.00    +0.000 A 
ATOM     17  C   UNL     1       1.590   9.018  18.048  0.00  0.00    +0.000 A 
ATOM     18  C   UNL     1       1.037  10.005  18.903  0.00  0.00    +0.000 A 
ATOM     19  C   UNL     1       0.568  11.258  18.444  0.00  0.00    +0.000 A 
ATOM     20  C   UNL     1       0.140  12.265  19.333  0.00  0.00    +0.000 A 
ATOM     21  C   UNL     1      -0.290  13.599  18.786  0.00  0.00    +0.000 C 
ATOM     22  C   UNL     1       0.166  12.006  20.709  0.00  0.00    +0.000 A 
ATOM     23  C   UNL     1      -0.202  13.017  21.760  0.00  0.00    +0.000 C 
ATOM     24  C   UNL     1       0.569  10.727  21.147  0.00  0.00    +0.000 A 
ATOM     25  C   UNL     1       1.012   9.734  20.278  0.00  0.00    +0.000 A 
ATOM     26  N   UNL     1       1.400   8.557  20.778  0.00  0.00    +0.000 NA
ATOM     27  C   UNL     1       1.953   7.679  19.924  0.00  0.00    +0.000 A 
BRANCH  27  28
ATOM     28  O   UNL     1       2.256   6.509  20.540  0.00  0.00    +0.000 OA
ATOM     29  H   UNL     1       3.125   6.752  20.908  0.00  0.00    +0.000 HD
ENDBRANCH  27  28
ENDBRANCH  15  16
ENDBRANCH   1  15
BRANCH   1  30
ATOM     30  C   UNL     1       4.368   4.981  18.769  0.00  0.00    +0.000 C 
BRANCH  30  31
ATOM     31  C   UNL     1       3.337   3.956  18.243  0.00  0.00    +0.000 C 
ATOM     32  C   UNL     1       2.442   3.431  19.362  0.00  0.00    +0.000 C 
ATOM     33  C   UNL     1       2.263   1.972  19.035  0.00  0.00    +0.000 C 
ATOM     34  C   UNL     1       3.514   1.621  18.266  0.00  0.00    +0.000 C 
ATOM     35  O   UNL     1       4.004   2.821  17.668  0.00  0.00    +0.000 OA
ENDBRANCH  30  31
ENDBRANCH   1  30
TORSDOF 12
ENDMDL
MODEL 8
REMARK VINA RESULT:      -7.4      1.649      4.579
REMARK  Name = 
REMARK  16 active torsions:
REMARK  status: ('A' for Active; 'I' for Inactive)
REMARK    1  A    between atoms: C_1  and  C_2
REMARK    2  A    between atoms: C_2  and  C_3
REMARK    3  A    between atoms: C_3  and  C_4
REMARK    4  A    between atoms: C_4  and  C_5
REMARK    5  A    between atoms: C_4  and  N_14
REMARK    6  A    between atoms: N_9  and  C_10
REMARK    7  A    between atoms: C_10  and  C_11
REMARK    8  A    between atoms: C_11  and  O_12
REMARK    9  A    between atoms: O_12  and  C_13
REMARK   10  A    between atoms: N_14  and  C_15
REMARK   11  A    between atoms: N_14  and  C_29
REMARK   12  A    between atoms: C_15  and  C_16
REMARK   13  A    between atoms: C_20  and  C_21
REMARK   14  A    between atoms: C_22  and  C_23
REMARK   15  A    between atoms: C_27  and  O_28
REMARK   16  A    between atoms: C_29  and  C_30
REMARK                            x       y       z     vdW  Elec       q    Type
REMARK                         _______ _______ _______ _____ _____    ______ ____
ROOT
ATOM      1  N   UNL     1       4.036   5.924  17.380  0.00  0.00    +0.000 NA
ENDROOT
BRANCH   1   2
ATOM      2  C   UNL     1       4.287   4.524  16.943  0.00  0.00    +0.000 C 
BRANCH   2   3
ATOM      3  C   UNL     1       4.297   3.529  18.083  0.00  0.00    +0.000 A 
ATOM      4  N   UNL     1       5.295   3.435  18.955  0.00  0.00    +0.000 NA
ATOM      5  N   UNL     1       5.029   2.378  19.767  0.00  0.00    +0.000 NA
ATOM      6  N   UNL     1       3.887   1.812  19.437  0.00  0.00    +0.000 NA
ATOM      7  N   UNL     1       3.404   2.525  18.386  0.00  0.00    +0.000 N 
BRANCH   7   8
ATOM      8  C   UNL     1       2.056   2.192  17.994  0.00  0.00    +0.000 C 
BRANCH   8   9
ATOM      9  C   UNL     1       0.889   2.431  18.936  0.00  0.00    +0.000 C 
BRANCH   9  10
ATOM     10  O   UNL     1       1.182   3.415  19.923  0.00  0.00    +0.000 OA
ATOM     11  C   UNL     1       1.198   2.840  21.228  0.00  0.00    +0.000 C 
ENDBRANCH   9  10
ENDBRANCH   8   9
ENDBRANCH   7   8
ENDBRANCH   2   3
BRANCH   2  12
ATOM     12  C   UNL     1       5.612   4.458  16.144  0.00  0.00    +0.000 C 
BRANCH  12  14
ATOM     13  C   UNL     1       6.223   4.125  13.776  0.00  0.00    +0.000 C 
ATOM     14  C   UNL     1       5.761   3.408  15.048  0.00  0.00    +0.000 C 
ENDBRANCH  12  14
ENDBRANCH   2  12
ENDBRANCH   1   2
BRANCH   1  15
ATOM     15  C   UNL     1       3.540   6.152  18.767  0.00  0.00    +0.000 C 
BRANCH  15  16
ATOM     16  C   UNL     1       2.535   7.228  19.161  0.00  0.00    +0.000 A 
ATOM     17  C   UNL     1       2.097   8.330  18.418  0.00  0.00    +0.000 A 
ATOM     18  C   UNL     1       1.276   9.331  18.998  0.00  0.00    +0.000 A 
ATOM     19  C   UNL     1       0.924  10.530  18.333  0.00  0.00    +0.000 A 
ATOM     20  C   UNL     1       0.211  11.559  18.981  0.00  0.00    +0.000 A 
ATOM     21  C   UNL     1      -0.079  12.835  18.239  0.00  0.00    +0.000 C 
ATOM     22  C   UNL     1      -0.172  11.378  20.315  0.00  0.00    +0.000 A 
ATOM     23  C   UNL     1      -0.878  12.423  21.135  0.00  0.00    +0.000 C 
ATOM     24  C   UNL     1       0.123  10.148  20.941  0.00  0.00    +0.000 A 
ATOM     25  C   UNL     1       0.844   9.135  20.317  0.00  0.00    +0.000 A 
ATOM     26  N   UNL     1       1.104   8.011  20.990  0.00  0.00    +0.000 NA
ATOM     27  C   UNL     1       1.921   7.118  20.404  0.00  0.00    +0.000 A 
BRANCH  27  28
ATOM     28  O   UNL     1       2.064   6.002  21.161  0.00  0.00    +0.000 OA
ATOM     29  H   UNL     1       3.017   5.848  21.027  0.00  0.00    +0.000 HD
ENDBRANCH  27  28
ENDBRANCH  15  16
ENDBRANCH   1  15
BRANCH   1  30
ATOM     30  C   UNL     1       5.020   6.936  16.949  0.00  0.00    +0.000 C 
BRANCH  30  31
ATOM     31  C   UNL     1       6.014   7.447  18.018  0.00  0.00    +0.000 C 
ATOM     32  C   UNL     1       7.165   8.228  17.391  0.00  0.00    +0.000 C 
ATOM     33  C   UNL     1       8.368   7.821  18.201  0.00  0.00    +0.000 C 
ATOM     34  C   UNL     1       8.015   6.438  18.696  0.00  0.00    +0.000 C 
ATOM     35  O   UNL     1       6.591   6.344  18.735  0.00  0.00    +0.000 OA
ENDBRANCH  30  31
ENDBRANCH   1  30
TORSDOF 12
ENDMDL
MODEL 9
REMARK VINA RESULT:      -7.3      4.113      9.054
REMARK  Name = 
REMARK  16 active torsions:
REMARK  status: ('A' for Active; 'I' for Inactive)
REMARK    1  A    between atoms: C_1  and  C_2
REMARK    2  A    between atoms: C_2  and  C_3
REMARK    3  A    between atoms: C_3  and  C_4
REMARK    4  A    between atoms: C_4  and  C_5
REMARK    5  A    between atoms: C_4  and  N_14
REMARK    6  A    between atoms: N_9  and  C_10
REMARK    7  A    between atoms: C_10  and  C_11
REMARK    8  A    between atoms: C_11  and  O_12
REMARK    9  A    between atoms: O_12  and  C_13
REMARK   10  A    between atoms: N_14  and  C_15
REMARK   11  A    between atoms: N_14  and  C_29
REMARK   12  A    between atoms: C_15  and  C_16
REMARK   13  A    between atoms: C_20  and  C_21
REMARK   14  A    between atoms: C_22  and  C_23
REMARK   15  A    between atoms: C_27  and  O_28
REMARK   16  A    between atoms: C_29  and  C_30
REMARK                            x       y       z     vdW  Elec       q    Type
REMARK                         _______ _______ _______ _____ _____    ______ ____
ROOT
ATOM      1  N   UNL     1      -0.533  11.596  19.560  0.00  0.00    +0.000 NA
ENDROOT
BRANCH   1   2
ATOM      2  C   UNL     1      -1.252  12.115  20.756  0.00  0.00    +0.000 C 
BRANCH   2   3
ATOM      3  C   UNL     1      -1.519  13.603  20.700  0.00  0.00    +0.000 A 
ATOM      4  N   UNL     1      -2.636  14.157  21.157  0.00  0.00    +0.000 NA
ATOM      5  N   UNL     1      -2.589  15.482  20.852  0.00  0.00    +0.000 NA
ATOM      6  N   UNL     1      -1.468  15.776  20.226  0.00  0.00    +0.000 NA
ATOM      7  N   UNL     1      -0.774  14.613  20.129  0.00  0.00    +0.000 N 
BRANCH   7   8
ATOM      8  C   UNL     1       0.579  14.750  19.650  0.00  0.00    +0.000 C 
BRANCH   8   9
ATOM      9  C   UNL     1       1.028  16.010  18.931  0.00  0.00    +0.000 C 
BRANCH   9  10
ATOM     10  O   UNL     1       2.331  15.879  18.371  0.00  0.00    +0.000 OA
ATOM     11  C   UNL     1       2.738  14.513  18.343  0.00  0.00    +0.000 C 
ENDBRANCH   9  10
ENDBRANCH   8   9
ENDBRANCH   7   8
ENDBRANCH   2   3
BRANCH   2  12
ATOM     12  C   UNL     1      -0.467  11.744  22.037  0.00  0.00    +0.000 C 
BRANCH  12  14
ATOM     13  C   UNL     1      -0.127   9.648  23.293  0.00  0.00    +0.000 C 
ATOM     14  C   UNL     1      -1.106  10.798  23.047  0.00  0.00    +0.000 C 
ENDBRANCH  12  14
ENDBRANCH   2  12
ENDBRANCH   1   2
BRANCH   1  15
ATOM     15  C   UNL     1       0.854  11.082  19.738  0.00  0.00    +0.000 C 
BRANCH  15  16
ATOM     16  C   UNL     1       1.291   9.651  19.446  0.00  0.00    +0.000 A 
ATOM     17  C   UNL     1       1.101   8.503  20.223  0.00  0.00    +0.000 A 
ATOM     18  C   UNL     1       1.717   7.271  19.881  0.00  0.00    +0.000 A 
ATOM     19  C   UNL     1       1.670   6.123  20.707  0.00  0.00    +0.000 A 
ATOM     20  C   UNL     1       2.395   4.954  20.399  0.00  0.00    +0.000 A 
ATOM     21  C   UNL     1       2.353   3.788  21.348  0.00  0.00    +0.000 C 
ATOM     22  C   UNL     1       3.169   4.928  19.232  0.00  0.00    +0.000 A 
ATOM     23  C   UNL     1       4.037   3.768  18.826  0.00  0.00    +0.000 C 
ATOM     24  C   UNL     1       3.148   6.055  18.383  0.00  0.00    +0.000 A 
ATOM     25  C   UNL     1       2.452   7.220  18.689  0.00  0.00    +0.000 A 
ATOM     26  N   UNL     1       2.505   8.252  17.842  0.00  0.00    +0.000 NA
ATOM     27  C   UNL     1       1.938   9.404  18.240  0.00  0.00    +0.000 A 
BRANCH  27  28
ATOM     28  O   UNL     1       2.013  10.355  17.276  0.00  0.00    +0.000 OA
ATOM     29  H   UNL     1       2.154  11.136  17.843  0.00  0.00    +0.000 HD
ENDBRANCH  27  28
ENDBRANCH  15  16
ENDBRANCH   1  15
BRANCH   1  30
ATOM     30  C   UNL     1      -1.327  10.790  18.612  0.00  0.00    +0.000 C 
BRANCH  30  31
ATOM     31  C   UNL     1      -2.273  11.559  17.660  0.00  0.00    +0.000 C 
ATOM     32  C   UNL     1      -3.725  11.483  18.125  0.00  0.00    +0.000 C 
ATOM     33  C   UNL     1      -4.512  11.346  16.849  0.00  0.00    +0.000 C 
ATOM     34  C   UNL     1      -3.543  10.681  15.901  0.00  0.00    +0.000 C 
ATOM     35  O   UNL     1      -2.223  10.999  16.339  0.00  0.00    +0.000 OA
ENDBRANCH  30  31
ENDBRANCH   1  30
TORSDOF 12
ENDMDL
