MODEL 1
REMARK VINA RESULT:      -8.0      0.000      0.000
REMARK  Name = 
REMARK  1 active torsions:
REMARK  status: ('A' for Active; 'I' for Inactive)
REMARK    1  A    between atoms: C_5  and  C_6
REMARK                            x       y       z     vdW  Elec       q    Type
REMARK                         _______ _______ _______ _____ _____    ______ ____
ROOT
ATOM      1  C   UNL     1       3.183   5.813  20.008  0.00  0.00    +0.000 C 
ATOM      2  C   UNL     1       4.694   5.481  19.576  0.00  0.00    +0.000 C 
ATOM      3  N   UNL     1       4.809   4.670  18.357  0.00  0.00    +0.000 NA
ATOM      4  C   UNL     1       6.008   4.681  17.557  0.00  0.00    +0.000 C 
ATOM      5  C   UNL     1       5.550   3.998  16.268  0.00  0.00    +0.000 C 
ATOM      6  C   UNL     1       4.080   4.365  16.119  0.00  0.00    +0.000 C 
ATOM      7  C   UNL     1       3.630   4.776  17.513  0.00  0.00    +0.000 C 
ATOM      8  C   UNL     1       2.565   4.053  18.298  0.00  0.00    +0.000 A 
ATOM      9  C   UNL     1       1.919   2.880  17.916  0.00  0.00    +0.000 A 
ATOM     10  C   UNL     1       0.977   2.322  18.773  0.00  0.00    +0.000 A 
ATOM     11  F   UNL     1       0.361   1.187  18.418  0.00  0.00    +0.000 F 
ATOM     12  C   UNL     1       0.672   2.895  20.013  0.00  0.00    +0.000 A 
ATOM     13  C   UNL     1       1.355   4.038  20.431  0.00  0.00    +0.000 A 
ATOM     14  C   UNL     1       2.327   4.595  19.596  0.00  0.00    +0.000 A 
ENDROOT
BRANCH   1  19
ATOM     15  F   UNL     1       0.823  10.579  17.947  0.00  0.00    +0.000 F 
ATOM     16  C   UNL     1       1.415   9.485  18.444  0.00  0.00    +0.000 A 
ATOM     17  C   UNL     1       1.147   9.092  19.744  0.00  0.00    +0.000 A 
ATOM     18  C   UNL     1       1.748   7.938  20.250  0.00  0.00    +0.000 A 
ATOM     19  C   UNL     1       2.603   7.137  19.458  0.00  0.00    +0.000 A 
ATOM     20  C   UNL     1       2.893   7.597  18.161  0.00  0.00    +0.000 A 
ATOM     21  C   UNL     1       2.291   8.756  17.654  0.00  0.00    +0.000 A 
ENDBRANCH   1  19
TORSDOF 1
ENDMDL
MODEL 2
REMARK VINA RESULT:      -7.9      2.644      4.826
REMARK  Name = 
REMARK  1 active torsions:
REMARK  status: ('A' for Active; 'I' for Inactive)
REMARK    1  A    between atoms: C_5  and  C_6
REMARK                            x       y       z     vdW  Elec       q    Type
REMARK                         _______ _______ _______ _____ _____    ______ ____
ROOT
ATOM      1  C   UNL     1       3.714   6.120  17.269  0.00  0.00    +0.000 C 
ATOM      2  C   UNL     1       2.898   7.503  17.297  0.00  0.00    +0.000 C 
ATOM      3  N   UNL     1       2.048   7.679  18.482  0.00  0.00    +0.000 NA
ATOM      4  C   UNL     1       1.644   8.988  18.929  0.00  0.00    +0.000 C 
ATOM      5  C   UNL     1       1.097   8.703  20.328  0.00  0.00    +0.000 C 
ATOM      6  C   UNL     1       1.911   7.526  20.847  0.00  0.00    +0.000 C 
ATOM      7  C   UNL     1       2.496   6.870  19.605  0.00  0.00    +0.000 C 
ATOM      8  C   UNL     1       2.184   5.460  19.174  0.00  0.00    +0.000 A 
ATOM      9  C   UNL     1       1.268   4.602  19.777  0.00  0.00    +0.000 A 
ATOM     10  C   UNL     1       1.074   3.337  19.234  0.00  0.00    +0.000 A 
ATOM     11  F   UNL     1       0.185   2.511  19.801  0.00  0.00    +0.000 F 
ATOM     12  C   UNL     1       1.761   2.907  18.093  0.00  0.00    +0.000 A 
ATOM     13  C   UNL     1       2.639   3.779  17.447  0.00  0.00    +0.000 A 
ATOM     14  C   UNL     1       2.822   5.065  17.960  0.00  0.00    +0.000 A 
ENDROOT
BRANCH   1  19
ATOM     15  F   UNL     1       9.029   6.150  19.338  0.00  0.00    +0.000 F 
ATOM     16  C   UNL     1       7.769   6.175  18.885  0.00  0.00    +0.000 A 
ATOM     17  C   UNL     1       7.434   7.017  17.839  0.00  0.00    +0.000 A 
ATOM     18  C   UNL     1       6.125   7.023  17.354  0.00  0.00    +0.000 A 
ATOM     19  C   UNL     1       5.133   6.165  17.883  0.00  0.00    +0.000 A 
ATOM     20  C   UNL     1       5.497   5.363  18.980  0.00  0.00    +0.000 A 
ATOM     21  C   UNL     1       6.811   5.359  19.467  0.00  0.00    +0.000 A 
ENDBRANCH   1  19
TORSDOF 1
ENDMDL
MODEL 3
REMARK VINA RESULT:      -7.9      2.609      4.719
REMARK  Name = 
REMARK  1 active torsions:
REMARK  status: ('A' for Active; 'I' for Inactive)
REMARK    1  A    between atoms: C_5  and  C_6
REMARK                            x       y       z     vdW  Elec       q    Type
REMARK                         _______ _______ _______ _____ _____    ______ ____
ROOT
ATOM      1  C   UNL     1       3.686   6.072  17.182  0.00  0.00    +0.000 C 
ATOM      2  C   UNL     1       2.873   7.455  17.221  0.00  0.00    +0.000 C 
ATOM      3  N   UNL     1       2.073   7.652  18.437  0.00  0.00    +0.000 NA
ATOM      4  C   UNL     1       1.688   8.968  18.879  0.00  0.00    +0.000 C 
ATOM      5  C   UNL     1       1.200   8.708  20.304  0.00  0.00    +0.000 C 
ATOM      6  C   UNL     1       2.036   7.540  20.808  0.00  0.00    +0.000 C 
ATOM      7  C   UNL     1       2.568   6.863  19.554  0.00  0.00    +0.000 C 
ATOM      8  C   UNL     1       2.238   5.445  19.161  0.00  0.00    +0.000 A 
ATOM      9  C   UNL     1       1.349   4.598  19.817  0.00  0.00    +0.000 A 
ATOM     10  C   UNL     1       1.133   3.324  19.305  0.00  0.00    +0.000 A 
ATOM     11  F   UNL     1       0.268   2.508  19.923  0.00  0.00    +0.000 F 
ATOM     12  C   UNL     1       1.771   2.874  18.144  0.00  0.00    +0.000 A 
ATOM     13  C   UNL     1       2.620   3.734  17.446  0.00  0.00    +0.000 A 
ATOM     14  C   UNL     1       2.824   5.029  17.928  0.00  0.00    +0.000 A 
ENDROOT
BRANCH   1  19
ATOM     15  F   UNL     1       8.924   6.410  19.415  0.00  0.00    +0.000 F 
ATOM     16  C   UNL     1       7.710   6.298  18.860  0.00  0.00    +0.000 A 
ATOM     17  C   UNL     1       6.789   5.419  19.401  0.00  0.00    +0.000 A 
ATOM     18  C   UNL     1       5.517   5.323  18.834  0.00  0.00    +0.000 A 
ATOM     19  C   UNL     1       5.130   6.126  17.736  0.00  0.00    +0.000 A 
ATOM     20  C   UNL     1       6.110   6.968  17.180  0.00  0.00    +0.000 A 
ATOM     21  C   UNL     1       7.387   7.062  17.750  0.00  0.00    +0.000 A 
ENDBRANCH   1  19
TORSDOF 1
ENDMDL
MODEL 4
REMARK VINA RESULT:      -7.8      0.106      1.055
REMARK  Name = 
REMARK  1 active torsions:
REMARK  status: ('A' for Active; 'I' for Inactive)
REMARK    1  A    between atoms: C_5  and  C_6
REMARK                            x       y       z     vdW  Elec       q    Type
REMARK                         _______ _______ _______ _____ _____    ______ ____
ROOT
ATOM      1  C   UNL     1       3.151   5.835  20.007  0.00  0.00    +0.000 C 
ATOM      2  C   UNL     1       4.665   5.527  19.570  0.00  0.00    +0.000 C 
ATOM      3  N   UNL     1       4.788   4.707  18.357  0.00  0.00    +0.000 NA
ATOM      4  C   UNL     1       5.982   4.734  17.551  0.00  0.00    +0.000 C 
ATOM      5  C   UNL     1       5.530   4.032  16.270  0.00  0.00    +0.000 C 
ATOM      6  C   UNL     1       4.052   4.371  16.125  0.00  0.00    +0.000 C 
ATOM      7  C   UNL     1       3.602   4.785  17.518  0.00  0.00    +0.000 C 
ATOM      8  C   UNL     1       2.555   4.050  18.315  0.00  0.00    +0.000 A 
ATOM      9  C   UNL     1       1.928   2.863  17.946  0.00  0.00    +0.000 A 
ATOM     10  C   UNL     1       1.001   2.296  18.813  0.00  0.00    +0.000 A 
ATOM     11  F   UNL     1       0.403   1.147  18.471  0.00  0.00    +0.000 F 
ATOM     12  C   UNL     1       0.692   2.873  20.050  0.00  0.00    +0.000 A 
ATOM     13  C   UNL     1       1.357   4.032  20.455  0.00  0.00    +0.000 A 
ATOM     14  C   UNL     1       2.314   4.599  19.610  0.00  0.00    +0.000 A 
ENDROOT
BRANCH   1  19
ATOM     15  F   UNL     1       1.137  10.773  17.985  0.00  0.00    +0.000 F 
ATOM     16  C   UNL     1       1.570   9.592  18.445  0.00  0.00    +0.000 A 
ATOM     17  C   UNL     1       2.373   8.799  17.644  0.00  0.00    +0.000 A 
ATOM     18  C   UNL     1       2.842   7.579  18.136  0.00  0.00    +0.000 A 
ATOM     19  C   UNL     1       2.544   7.144  19.449  0.00  0.00    +0.000 A 
ATOM     20  C   UNL     1       1.683   7.952  20.213  0.00  0.00    +0.000 A 
ATOM     21  C   UNL     1       1.212   9.175  19.717  0.00  0.00    +0.000 A 
ENDBRANCH   1  19
TORSDOF 1
ENDMDL
MODEL 5
REMARK VINA RESULT:      -7.7      3.695      5.911
REMARK  Name = 
REMARK  1 active torsions:
REMARK  status: ('A' for Active; 'I' for Inactive)
REMARK    1  A    between atoms: C_5  and  C_6
REMARK                            x       y       z     vdW  Elec       q    Type
REMARK                         _______ _______ _______ _____ _____    ______ ____
ROOT
ATOM      1  C   UNL     1       4.777   5.541  15.706  0.00  0.00    +0.000 C 
ATOM      2  C   UNL     1       5.550   6.753  16.421  0.00  0.00    +0.000 C 
ATOM      3  N   UNL     1       6.339   6.357  17.595  0.00  0.00    +0.000 NA
ATOM      4  C   UNL     1       7.448   7.152  18.058  0.00  0.00    +0.000 C 
ATOM      5  C   UNL     1       8.146   6.206  19.035  0.00  0.00    +0.000 C 
ATOM      6  C   UNL     1       7.901   4.807  18.486  0.00  0.00    +0.000 C 
ATOM      7  C   UNL     1       6.697   4.947  17.568  0.00  0.00    +0.000 C 
ATOM      8  C   UNL     1       5.383   4.243  17.793  0.00  0.00    +0.000 A 
ATOM      9  C   UNL     1       5.052   3.457  18.893  0.00  0.00    +0.000 A 
ATOM     10  C   UNL     1       3.780   2.900  18.963  0.00  0.00    +0.000 A 
ATOM     11  F   UNL     1       3.450   2.153  20.025  0.00  0.00    +0.000 F 
ATOM     12  C   UNL     1       2.819   3.120  17.971  0.00  0.00    +0.000 A 
ATOM     13  C   UNL     1       3.120   3.954  16.892  0.00  0.00    +0.000 A 
ATOM     14  C   UNL     1       4.383   4.547  16.821  0.00  0.00    +0.000 A 
ENDROOT
BRANCH   1  19
ATOM     15  F   UNL     1       7.563   3.174  11.328  0.00  0.00    +0.000 F 
ATOM     16  C   UNL     1       6.922   3.693  12.383  0.00  0.00    +0.000 A 
ATOM     17  C   UNL     1       7.562   4.627  13.180  0.00  0.00    +0.000 A 
ATOM     18  C   UNL     1       6.883   5.183  14.265  0.00  0.00    +0.000 A 
ATOM     19  C   UNL     1       5.541   4.842  14.556  0.00  0.00    +0.000 A 
ATOM     20  C   UNL     1       4.943   3.852  13.757  0.00  0.00    +0.000 A 
ATOM     21  C   UNL     1       5.627   3.292  12.669  0.00  0.00    +0.000 A 
ENDBRANCH   1  19
TORSDOF 1
ENDMDL
MODEL 6
REMARK VINA RESULT:      -7.5      2.437      4.195
REMARK  Name = 
REMARK  1 active torsions:
REMARK  status: ('A' for Active; 'I' for Inactive)
REMARK    1  A    between atoms: C_5  and  C_6
REMARK                            x       y       z     vdW  Elec       q    Type
REMARK                         _______ _______ _______ _____ _____    ______ ____
ROOT
ATOM      1  C   UNL     1       2.745   6.488  17.645  0.00  0.00    +0.000 C 
ATOM      2  C   UNL     1       1.985   5.076  17.728  0.00  0.00    +0.000 C 
ATOM      3  N   UNL     1       2.521   4.161  18.745  0.00  0.00    +0.000 NA
ATOM      4  C   UNL     1       1.717   3.103  19.302  0.00  0.00    +0.000 C 
ATOM      5  C   UNL     1       2.541   2.666  20.514  0.00  0.00    +0.000 C 
ATOM      6  C   UNL     1       3.251   3.925  20.992  0.00  0.00    +0.000 C 
ATOM      7  C   UNL     1       3.237   4.867  19.797  0.00  0.00    +0.000 C 
ATOM      8  C   UNL     1       4.480   5.366  19.107  0.00  0.00    +0.000 A 
ATOM      9  C   UNL     1       5.787   4.979  19.390  0.00  0.00    +0.000 A 
ATOM     10  C   UNL     1       6.825   5.515  18.636  0.00  0.00    +0.000 A 
ATOM     11  F   UNL     1       8.084   5.137  18.894  0.00  0.00    +0.000 F 
ATOM     12  C   UNL     1       6.594   6.418  17.592  0.00  0.00    +0.000 A 
ATOM     13  C   UNL     1       5.283   6.768  17.261  0.00  0.00    +0.000 A 
ATOM     14  C   UNL     1       4.226   6.216  17.988  0.00  0.00    +0.000 A 
ENDROOT
BRANCH   1  19
ATOM     15  F   UNL     1       0.339  10.544  20.852  0.00  0.00    +0.000 F 
ATOM     16  C   UNL     1       0.946   9.612  20.107  0.00  0.00    +0.000 A 
ATOM     17  C   UNL     1       1.343   8.421  20.690  0.00  0.00    +0.000 A 
ATOM     18  C   UNL     1       1.954   7.442  19.903  0.00  0.00    +0.000 A 
ATOM     19  C   UNL     1       2.152   7.622  18.514  0.00  0.00    +0.000 A 
ATOM     20  C   UNL     1       1.784   8.865  17.969  0.00  0.00    +0.000 A 
ATOM     21  C   UNL     1       1.172   9.847  18.760  0.00  0.00    +0.000 A 
ENDBRANCH   1  19
TORSDOF 1
ENDMDL
MODEL 7
REMARK VINA RESULT:      -7.4      2.455      4.269
REMARK  Name = 
REMARK  1 active torsions:
REMARK  status: ('A' for Active; 'I' for Inactive)
REMARK    1  A    between atoms: C_5  and  C_6
REMARK                            x       y       z     vdW  Elec       q    Type
REMARK                         _______ _______ _______ _____ _____    ______ ____
ROOT
ATOM      1  C   UNL     1       2.726   6.499  17.636  0.00  0.00    +0.000 C 
ATOM      2  C   UNL     1       1.993   5.072  17.686  0.00  0.00    +0.000 C 
ATOM      3  N   UNL     1       2.538   4.147  18.688  0.00  0.00    +0.000 NA
ATOM      4  C   UNL     1       1.751   3.063  19.217  0.00  0.00    +0.000 C 
ATOM      5  C   UNL     1       2.573   2.618  20.427  0.00  0.00    +0.000 C 
ATOM      6  C   UNL     1       3.256   3.880  20.936  0.00  0.00    +0.000 C 
ATOM      7  C   UNL     1       3.232   4.845  19.760  0.00  0.00    +0.000 C 
ATOM      8  C   UNL     1       4.471   5.382  19.090  0.00  0.00    +0.000 A 
ATOM      9  C   UNL     1       5.783   5.014  19.376  0.00  0.00    +0.000 A 
ATOM     10  C   UNL     1       6.816   5.584  18.641  0.00  0.00    +0.000 A 
ATOM     11  F   UNL     1       8.080   5.225  18.902  0.00  0.00    +0.000 F 
ATOM     12  C   UNL     1       6.576   6.503  17.614  0.00  0.00    +0.000 A 
ATOM     13  C   UNL     1       5.262   6.836  17.279  0.00  0.00    +0.000 A 
ATOM     14  C   UNL     1       4.210   6.249  17.986  0.00  0.00    +0.000 A 
ENDROOT
BRANCH   1  19
ATOM     15  F   UNL     1       0.654  10.694  20.898  0.00  0.00    +0.000 F 
ATOM     16  C   UNL     1       1.097   9.692  20.128  0.00  0.00    +0.000 A 
ATOM     17  C   UNL     1       1.231   9.886  18.764  0.00  0.00    +0.000 A 
ATOM     18  C   UNL     1       1.716   8.846  17.968  0.00  0.00    +0.000 A 
ATOM     19  C   UNL     1       2.104   7.604  18.523  0.00  0.00    +0.000 A 
ATOM     20  C   UNL     1       1.903   7.427  19.903  0.00  0.00    +0.000 A 
ATOM     21  C   UNL     1       1.416   8.471  20.701  0.00  0.00    +0.000 A 
ENDBRANCH   1  19
TORSDOF 1
ENDMDL
MODEL 8
REMARK VINA RESULT:      -7.3      3.726      5.890
REMARK  Name = 
REMARK  1 active torsions:
REMARK  status: ('A' for Active; 'I' for Inactive)
REMARK    1  A    between atoms: C_5  and  C_6
REMARK                            x       y       z     vdW  Elec       q    Type
REMARK                         _______ _______ _______ _____ _____    ______ ____
ROOT
ATOM      1  C   UNL     1       4.785   5.586  15.729  0.00  0.00    +0.000 C 
ATOM      2  C   UNL     1       5.568   6.761  16.494  0.00  0.00    +0.000 C 
ATOM      3  N   UNL     1       6.367   6.307  17.639  0.00  0.00    +0.000 NA
ATOM      4  C   UNL     1       7.483   7.077  18.129  0.00  0.00    +0.000 C 
ATOM      5  C   UNL     1       8.188   6.083  19.053  0.00  0.00    +0.000 C 
ATOM      6  C   UNL     1       7.934   4.713  18.440  0.00  0.00    +0.000 C 
ATOM      7  C   UNL     1       6.721   4.900  17.541  0.00  0.00    +0.000 C 
ATOM      8  C   UNL     1       5.408   4.189  17.745  0.00  0.00    +0.000 A 
ATOM      9  C   UNL     1       5.085   3.351  18.809  0.00  0.00    +0.000 A 
ATOM     10  C   UNL     1       3.812   2.795  18.865  0.00  0.00    +0.000 A 
ATOM     11  F   UNL     1       3.491   1.998  19.893  0.00  0.00    +0.000 F 
ATOM     12  C   UNL     1       2.842   3.064  17.893  0.00  0.00    +0.000 A 
ATOM     13  C   UNL     1       3.135   3.948  16.853  0.00  0.00    +0.000 A 
ATOM     14  C   UNL     1       4.399   4.541  16.798  0.00  0.00    +0.000 A 
ENDROOT
BRANCH   1  19
ATOM     15  F   UNL     1       7.576   3.001  11.479  0.00  0.00    +0.000 F 
ATOM     16  C   UNL     1       6.911   3.644  12.448  0.00  0.00    +0.000 A 
ATOM     17  C   UNL     1       5.578   3.347  12.674  0.00  0.00    +0.000 A 
ATOM     18  C   UNL     1       4.894   4.002  13.700  0.00  0.00    +0.000 A 
ATOM     19  C   UNL     1       5.536   4.942  14.539  0.00  0.00    +0.000 A 
ATOM     20  C   UNL     1       6.875   5.256  14.244  0.00  0.00    +0.000 A 
ATOM     21  C   UNL     1       7.560   4.599  13.213  0.00  0.00    +0.000 A 
ENDBRANCH   1  19
TORSDOF 1
ENDMDL
MODEL 9
REMARK VINA RESULT:      -7.3      2.620      4.419
REMARK  Name = 
REMARK  1 active torsions:
REMARK  status: ('A' for Active; 'I' for Inactive)
REMARK    1  A    between atoms: C_5  and  C_6
REMARK                            x       y       z     vdW  Elec       q    Type
REMARK                         _______ _______ _______ _____ _____    ______ ____
ROOT
ATOM      1  C   UNL     1       3.718   6.306  17.325  0.00  0.00    +0.000 C 
ATOM      2  C   UNL     1       3.177   4.814  17.082  0.00  0.00    +0.000 C 
ATOM      3  N   UNL     1       3.653   3.832  18.066  0.00  0.00    +0.000 NA
ATOM      4  C   UNL     1       2.931   2.611  18.318  0.00  0.00    +0.000 C 
ATOM      5  C   UNL     1       3.579   2.105  19.607  0.00  0.00    +0.000 C 
ATOM      6  C   UNL     1       3.994   3.358  20.367  0.00  0.00    +0.000 C 
ATOM      7  C   UNL     1       4.052   4.457  19.317  0.00  0.00    +0.000 C 
ATOM      8  C   UNL     1       5.310   5.205  18.955  0.00  0.00    +0.000 A 
ATOM      9  C   UNL     1       6.588   4.946  19.443  0.00  0.00    +0.000 A 
ATOM     10  C   UNL     1       7.652   5.713  18.982  0.00  0.00    +0.000 A 
ATOM     11  F   UNL     1       8.886   5.461  19.438  0.00  0.00    +0.000 F 
ATOM     12  C   UNL     1       7.479   6.725  18.031  0.00  0.00    +0.000 A 
ATOM     13  C   UNL     1       6.212   6.955  17.492  0.00  0.00    +0.000 A 
ATOM     14  C   UNL     1       5.137   6.173  17.921  0.00  0.00    +0.000 A 
ENDROOT
BRANCH   1  19
ATOM     15  F   UNL     1       0.581   9.810  20.552  0.00  0.00    +0.000 F 
ATOM     16  C   UNL     1       1.277   8.964  19.782  0.00  0.00    +0.000 A 
ATOM     17  C   UNL     1       1.573   9.314  18.476  0.00  0.00    +0.000 A 
ATOM     18  C   UNL     1       2.320   8.441  17.684  0.00  0.00    +0.000 A 
ATOM     19  C   UNL     1       2.813   7.215  18.190  0.00  0.00    +0.000 A 
ATOM     20  C   UNL     1       2.447   6.871  19.504  0.00  0.00    +0.000 A 
ATOM     21  C   UNL     1       1.696   7.748  20.298  0.00  0.00    +0.000 A 
ENDBRANCH   1  19
TORSDOF 1
ENDMDL
