MODEL 1
REMARK VINA RESULT:      -8.2      0.000      0.000
REMARK  Name = 
REMARK  8 active torsions:
REMARK  status: ('A' for Active; 'I' for Inactive)
REMARK    1  A    between atoms: O5*_1  and  C5*_2
REMARK    2  A    between atoms: C5*_2  and  C4*_3
REMARK    3  A    between atoms: C1*_5  and  N_6
REMARK    4  A    between atoms: N_11  and  C_12
REMARK    5  A    between atoms: C_12  and  C_13
REMARK    6  A    between atoms: C_13  and  C_14
REMARK    7  A    between atoms: C2*_23  and  O2*_24
REMARK    8  A    between atoms: C3*_25  and  O3*_26
REMARK                            x       y       z     vdW  Elec       q    Type
REMARK                         _______ _______ _______ _____ _____    ______ ____
ROOT
ATOM      1  N   UNL     1       4.682   4.188  18.444  0.00  0.00    +0.000 N 
ATOM      2  C   UNL     1       5.572   4.074  19.480  0.00  0.00    +0.000 A 
ATOM      3  N   UNL     1       6.567   4.926  19.371  0.00  0.00    +0.000 NA
ATOM      4  C   UNL     1       6.291   5.645  18.225  0.00  0.00    +0.000 A 
ATOM      5  C   UNL     1       6.896   6.775  17.649  0.00  0.00    +0.000 A 
ATOM      6  N   UNL     1       7.974   7.398  18.273  0.00  0.00    +0.000 N 
ATOM      7  N   UNL     1       6.362   7.270  16.503  0.00  0.00    +0.000 NA
ATOM      8  C   UNL     1       5.281   6.660  15.976  0.00  0.00    +0.000 A 
ATOM      9  N   UNL     1       4.589   5.616  16.468  0.00  0.00    +0.000 NA
ATOM     10  C   UNL     1       5.151   5.164  17.610  0.00  0.00    +0.000 A 
ATOM     11  H   UNL     1       8.770   6.771  18.327  0.00  0.00    +0.000 HD
ENDROOT
BRANCH   1  14
ATOM     12  C4* UNL     1       1.499   3.567  19.686  0.00  0.00    +0.000 C 
ATOM     13  O4* UNL     1       2.354   4.334  18.807  0.00  0.00    +0.000 OA
ATOM     14  C1* UNL     1       3.425   3.476  18.356  0.00  0.00    +0.000 C 
ATOM     15  C2* UNL     1       3.363   2.170  19.153  0.00  0.00    +0.000 C 
ATOM     16  C3* UNL     1       1.883   2.100  19.493  0.00  0.00    +0.000 C 
BRANCH  15  17
ATOM     17  O2* UNL     1       3.772   1.043  18.375  0.00  0.00    +0.000 OA
ATOM     18  H2* UNL     1       4.521   1.357  17.825  0.00  0.00    +0.000 HD
ENDBRANCH  15  17
BRANCH  16  19
ATOM     19  O3* UNL     1       1.219   1.514  18.350  0.00  0.00    +0.000 OA
ATOM     20  H3* UNL     1       1.335   0.548  18.381  0.00  0.00    +0.000 HD
ENDBRANCH  16  19
BRANCH  12  21
ATOM     21  C5* UNL     1       1.656   4.063  21.124  0.00  0.00    +0.000 C 
BRANCH  21  22
ATOM     22  O5* UNL     1       2.475   5.223  21.163  0.00  0.00    +0.000 OA
ATOM     23  H5* UNL     1       2.728   5.357  22.094  0.00  0.00    +0.000 HD
ENDBRANCH  21  22
ENDBRANCH  12  21
ENDBRANCH   1  14
BRANCH   6  24
ATOM     24  C   UNL     1       8.227   8.778  17.902  0.00  0.00    +0.000 C 
BRANCH  24  25
ATOM     25  C   UNL     1       9.005   9.482  19.018  0.00  0.00    +0.000 C 
BRANCH  25  26
ATOM     26  C   UNL     1       9.391  10.870  18.606  0.00  0.00    +0.000 A 
ATOM     27  C   UNL     1       8.679  11.754  17.819  0.00  0.00    +0.000 A 
ATOM     28  C   UNL     1       9.399  12.957  17.576  0.00  0.00    +0.000 A 
ATOM     29  C   UNL     1      10.626  12.959  18.199  0.00  0.00    +0.000 A 
ATOM     30  S   UNL     1      10.900  11.523  19.086  0.00  0.00    +0.000 S 
ENDBRANCH  25  26
ENDBRANCH  24  25
ENDBRANCH   6  24
TORSDOF 8
ENDMDL
MODEL 2
REMARK VINA RESULT:      -7.6      1.559      2.284
REMARK  Name = 
REMARK  8 active torsions:
REMARK  status: ('A' for Active; 'I' for Inactive)
REMARK    1  A    between atoms: O5*_1  and  C5*_2
REMARK    2  A    between atoms: C5*_2  and  C4*_3
REMARK    3  A    between atoms: C1*_5  and  N_6
REMARK    4  A    between atoms: N_11  and  C_12
REMARK    5  A    between atoms: C_12  and  C_13
REMARK    6  A    between atoms: C_13  and  C_14
REMARK    7  A    between atoms: C2*_23  and  O2*_24
REMARK    8  A    between atoms: C3*_25  and  O3*_26
REMARK                            x       y       z     vdW  Elec       q    Type
REMARK                         _______ _______ _______ _____ _____    ______ ____
ROOT
ATOM      1  N   UNL     1       4.763   4.816  17.799  0.00  0.00    +0.000 N 
ATOM      2  C   UNL     1       4.078   5.826  17.175  0.00  0.00    +0.000 A 
ATOM      3  N   UNL     1       4.745   6.959  17.196  0.00  0.00    +0.000 NA
ATOM      4  C   UNL     1       5.929   6.658  17.839  0.00  0.00    +0.000 A 
ATOM      5  C   UNL     1       7.102   7.401  18.054  0.00  0.00    +0.000 A 
ATOM      6  N   UNL     1       7.229   8.692  17.548  0.00  0.00    +0.000 N 
ATOM      7  N   UNL     1       8.124   6.801  18.717  0.00  0.00    +0.000 NA
ATOM      8  C   UNL     1       7.967   5.528  19.134  0.00  0.00    +0.000 A 
ATOM      9  N   UNL     1       6.919   4.708  18.935  0.00  0.00    +0.000 NA
ATOM     10  C   UNL     1       5.933   5.344  18.265  0.00  0.00    +0.000 A 
ATOM     11  H   UNL     1       6.540   9.311  17.964  0.00  0.00    +0.000 HD
ENDROOT
BRANCH   1  14
ATOM     12  C4* UNL     1       2.214   2.456  17.823  0.00  0.00    +0.000 C 
ATOM     13  O4* UNL     1       3.126   3.281  17.062  0.00  0.00    +0.000 OA
ATOM     14  C1* UNL     1       4.344   3.430  17.823  0.00  0.00    +0.000 C 
ATOM     15  C2* UNL     1       4.112   2.848  19.221  0.00  0.00    +0.000 C 
ATOM     16  C3* UNL     1       3.040   1.809  18.936  0.00  0.00    +0.000 C 
BRANCH  15  17
ATOM     17  O2* UNL     1       5.292   2.245  19.758  0.00  0.00    +0.000 OA
ATOM     18  H2* UNL     1       5.984   2.358  19.072  0.00  0.00    +0.000 HD
ENDBRANCH  15  17
BRANCH  16  19
ATOM     19  O3* UNL     1       3.722   0.619  18.479  0.00  0.00    +0.000 OA
ATOM     20  H3* UNL     1       4.627   0.860  18.209  0.00  0.00    +0.000 HD
ENDBRANCH  16  19
BRANCH  12  21
ATOM     21  C5* UNL     1       1.049   3.305  18.333  0.00  0.00    +0.000 C 
BRANCH  21  22
ATOM     22  O5* UNL     1       0.556   2.787  19.561  0.00  0.00    +0.000 OA
ATOM     23  H5* UNL     1       1.198   2.120  19.862  0.00  0.00    +0.000 HD
ENDBRANCH  21  22
ENDBRANCH  12  21
ENDBRANCH   1  14
BRANCH   6  24
ATOM     24  C   UNL     1       8.580   9.196  17.388  0.00  0.00    +0.000 C 
BRANCH  24  25
ATOM     25  C   UNL     1       8.947  10.085  18.580  0.00  0.00    +0.000 C 
BRANCH  25  26
ATOM     26  C   UNL     1       9.671  11.315  18.125  0.00  0.00    +0.000 A 
ATOM     27  C   UNL     1      11.030  11.486  17.945  0.00  0.00    +0.000 A 
ATOM     28  C   UNL     1      11.360  12.820  17.575  0.00  0.00    +0.000 A 
ATOM     29  C   UNL     1      10.243  13.617  17.467  0.00  0.00    +0.000 A 
ATOM     30  S   UNL     1       8.803  12.755  17.794  0.00  0.00    +0.000 S 
ENDBRANCH  25  26
ENDBRANCH  24  25
ENDBRANCH   6  24
TORSDOF 8
ENDMDL
MODEL 3
REMARK VINA RESULT:      -7.4      0.815      1.049
REMARK  Name = 
REMARK  8 active torsions:
REMARK  status: ('A' for Active; 'I' for Inactive)
REMARK    1  A    between atoms: O5*_1  and  C5*_2
REMARK    2  A    between atoms: C5*_2  and  C4*_3
REMARK    3  A    between atoms: C1*_5  and  N_6
REMARK    4  A    between atoms: N_11  and  C_12
REMARK    5  A    between atoms: C_12  and  C_13
REMARK    6  A    between atoms: C_13  and  C_14
REMARK    7  A    between atoms: C2*_23  and  O2*_24
REMARK    8  A    between atoms: C3*_25  and  O3*_26
REMARK                            x       y       z     vdW  Elec       q    Type
REMARK                         _______ _______ _______ _____ _____    ______ ____
ROOT
ATOM      1  N   UNL     1       4.566   4.245  18.493  0.00  0.00    +0.000 N 
ATOM      2  C   UNL     1       5.164   4.474  19.704  0.00  0.00    +0.000 A 
ATOM      3  N   UNL     1       6.215   5.256  19.595  0.00  0.00    +0.000 NA
ATOM      4  C   UNL     1       6.280   5.572  18.253  0.00  0.00    +0.000 A 
ATOM      5  C   UNL     1       7.089   6.466  17.531  0.00  0.00    +0.000 A 
ATOM      6  N   UNL     1       8.023   7.265  18.184  0.00  0.00    +0.000 N 
ATOM      7  N   UNL     1       6.889   6.567  16.192  0.00  0.00    +0.000 NA
ATOM      8  C   UNL     1       5.928   5.812  15.621  0.00  0.00    +0.000 A 
ATOM      9  N   UNL     1       5.063   4.972  16.218  0.00  0.00    +0.000 NA
ATOM     10  C   UNL     1       5.294   4.910  17.548  0.00  0.00    +0.000 A 
ATOM     11  H   UNL     1       8.734   6.694  18.631  0.00  0.00    +0.000 HD
ENDROOT
BRANCH   1  14
ATOM     12  C4* UNL     1       1.309   3.597  19.512  0.00  0.00    +0.000 C 
ATOM     13  O4* UNL     1       2.217   4.379  18.702  0.00  0.00    +0.000 OA
ATOM     14  C1* UNL     1       3.320   3.531  18.311  0.00  0.00    +0.000 C 
ATOM     15  C2* UNL     1       3.210   2.214  19.084  0.00  0.00    +0.000 C 
ATOM     16  C3* UNL     1       1.711   2.134  19.324  0.00  0.00    +0.000 C 
BRANCH  15  17
ATOM     17  O2* UNL     1       3.675   1.098  18.320  0.00  0.00    +0.000 OA
ATOM     18  H2* UNL     1       4.379   1.452  17.735  0.00  0.00    +0.000 HD
ENDBRANCH  15  17
BRANCH  16  19
ATOM     19  O3* UNL     1       1.127   1.563  18.131  0.00  0.00    +0.000 OA
ATOM     20  H3* UNL     1       0.285   1.133  18.369  0.00  0.00    +0.000 HD
ENDBRANCH  16  19
BRANCH  12  21
ATOM     21  C5* UNL     1       1.368   4.073  20.964  0.00  0.00    +0.000 C 
BRANCH  21  22
ATOM     22  O5* UNL     1       2.101   5.286  21.060  0.00  0.00    +0.000 OA
ATOM     23  H5* UNL     1       1.524   5.928  21.512  0.00  0.00    +0.000 HD
ENDBRANCH  21  22
ENDBRANCH  12  21
ENDBRANCH   1  14
BRANCH   6  24
ATOM     24  C   UNL     1       8.459   8.458  17.483  0.00  0.00    +0.000 C 
BRANCH  24  25
ATOM     25  C   UNL     1       7.849   9.700  18.141  0.00  0.00    +0.000 C 
BRANCH  25  26
ATOM     26  C   UNL     1       8.920  10.598  18.680  0.00  0.00    +0.000 A 
ATOM     27  C   UNL     1       9.662  10.441  19.834  0.00  0.00    +0.000 A 
ATOM     28  C   UNL     1      10.537  11.540  20.063  0.00  0.00    +0.000 A 
ATOM     29  C   UNL     1      10.448  12.487  19.069  0.00  0.00    +0.000 A 
ATOM     30  S   UNL     1       9.325  12.046  17.858  0.00  0.00    +0.000 S 
ENDBRANCH  25  26
ENDBRANCH  24  25
ENDBRANCH   6  24
TORSDOF 8
ENDMDL
MODEL 4
REMARK VINA RESULT:      -7.4      4.341      6.355
REMARK  Name = 
REMARK  8 active torsions:
REMARK  status: ('A' for Active; 'I' for Inactive)
REMARK    1  A    between atoms: O5*_1  and  C5*_2
REMARK    2  A    between atoms: C5*_2  and  C4*_3
REMARK    3  A    between atoms: C1*_5  and  N_6
REMARK    4  A    between atoms: N_11  and  C_12
REMARK    5  A    between atoms: C_12  and  C_13
REMARK    6  A    between atoms: C_13  and  C_14
REMARK    7  A    between atoms: C2*_23  and  O2*_24
REMARK    8  A    between atoms: C3*_25  and  O3*_26
REMARK                            x       y       z     vdW  Elec       q    Type
REMARK                         _______ _______ _______ _____ _____    ______ ____
ROOT
ATOM      1  N   UNL     1       4.294   4.867  18.483  0.00  0.00    +0.000 N 
ATOM      2  C   UNL     1       3.537   5.443  17.496  0.00  0.00    +0.000 A 
ATOM      3  N   UNL     1       4.255   5.742  16.436  0.00  0.00    +0.000 NA
ATOM      4  C   UNL     1       5.530   5.311  16.742  0.00  0.00    +0.000 A 
ATOM      5  C   UNL     1       6.707   5.226  15.978  0.00  0.00    +0.000 A 
ATOM      6  N   UNL     1       6.710   5.590  14.635  0.00  0.00    +0.000 N 
ATOM      7  N   UNL     1       7.819   4.725  16.575  0.00  0.00    +0.000 NA
ATOM      8  C   UNL     1       7.742   4.333  17.863  0.00  0.00    +0.000 A 
ATOM      9  N   UNL     1       6.663   4.315  18.667  0.00  0.00    +0.000 NA
ATOM     10  C   UNL     1       5.582   4.813  18.029  0.00  0.00    +0.000 A 
ATOM     11  H   UNL     1       6.493   6.576  14.529  0.00  0.00    +0.000 HD
ENDROOT
BRANCH   1  14
ATOM     12  C4* UNL     1       2.434   2.429  20.114  0.00  0.00    +0.000 C 
ATOM     13  O4* UNL     1       3.715   2.875  19.611  0.00  0.00    +0.000 OA
ATOM     14  C1* UNL     1       3.764   4.315  19.712  0.00  0.00    +0.000 C 
ATOM     15  C2* UNL     1       2.370   4.817  20.099  0.00  0.00    +0.000 C 
ATOM     16  C3* UNL     1       1.821   3.618  20.854  0.00  0.00    +0.000 C 
BRANCH  15  17
ATOM     17  O2* UNL     1       2.425   5.977  20.933  0.00  0.00    +0.000 OA
ATOM     18  H2* UNL     1       3.362   6.270  20.918  0.00  0.00    +0.000 HD
ENDBRANCH  15  17
BRANCH  16  19
ATOM     19  O3* UNL     1       2.309   3.719  22.211  0.00  0.00    +0.000 OA
ATOM     20  H3* UNL     1       1.729   3.196  22.793  0.00  0.00    +0.000 HD
ENDBRANCH  16  19
BRANCH  12  21
ATOM     21  C5* UNL     1       1.576   1.910  18.959  0.00  0.00    +0.000 C 
BRANCH  21  22
ATOM     22  O5* UNL     1       2.323   1.899  17.751  0.00  0.00    +0.000 OA
ATOM     23  H5* UNL     1       3.254   2.047  17.995  0.00  0.00    +0.000 HD
ENDBRANCH  21  22
ENDBRANCH  12  21
ENDBRANCH   1  14
BRANCH   6  24
ATOM     24  C   UNL     1       7.776   5.042  13.817  0.00  0.00    +0.000 C 
BRANCH  24  25
ATOM     25  C   UNL     1       7.350   5.030  12.346  0.00  0.00    +0.000 C 
BRANCH  25  26
ATOM     26  C   UNL     1       6.876   3.668  11.940  0.00  0.00    +0.000 A 
ATOM     27  C   UNL     1       7.618   2.632  11.405  0.00  0.00    +0.000 A 
ATOM     28  C   UNL     1       6.809   1.509  11.071  0.00  0.00    +0.000 A 
ATOM     29  C   UNL     1       5.484   1.717  11.379  0.00  0.00    +0.000 A 
ATOM     30  S   UNL     1       5.220   3.253  12.081  0.00  0.00    +0.000 S 
ENDBRANCH  25  26
ENDBRANCH  24  25
ENDBRANCH   6  24
TORSDOF 8
ENDMDL
MODEL 5
REMARK VINA RESULT:      -7.4      1.709      2.460
REMARK  Name = 
REMARK  8 active torsions:
REMARK  status: ('A' for Active; 'I' for Inactive)
REMARK    1  A    between atoms: O5*_1  and  C5*_2
REMARK    2  A    between atoms: C5*_2  and  C4*_3
REMARK    3  A    between atoms: C1*_5  and  N_6
REMARK    4  A    between atoms: N_11  and  C_12
REMARK    5  A    between atoms: C_12  and  C_13
REMARK    6  A    between atoms: C_13  and  C_14
REMARK    7  A    between atoms: C2*_23  and  O2*_24
REMARK    8  A    between atoms: C3*_25  and  O3*_26
REMARK                            x       y       z     vdW  Elec       q    Type
REMARK                         _______ _______ _______ _____ _____    ______ ____
ROOT
ATOM      1  N   UNL     1       4.881   4.793  17.806  0.00  0.00    +0.000 N 
ATOM      2  C   UNL     1       4.190   5.784  17.159  0.00  0.00    +0.000 A 
ATOM      3  N   UNL     1       4.825   6.935  17.201  0.00  0.00    +0.000 NA
ATOM      4  C   UNL     1       5.996   6.667  17.881  0.00  0.00    +0.000 A 
ATOM      5  C   UNL     1       7.141   7.441  18.132  0.00  0.00    +0.000 A 
ATOM      6  N   UNL     1       7.249   8.734  17.628  0.00  0.00    +0.000 N 
ATOM      7  N   UNL     1       8.157   6.869  18.828  0.00  0.00    +0.000 NA
ATOM      8  C   UNL     1       8.021   5.593  19.241  0.00  0.00    +0.000 A 
ATOM      9  N   UNL     1       7.002   4.744  19.010  0.00  0.00    +0.000 NA
ATOM     10  C   UNL     1       6.021   5.353  18.308  0.00  0.00    +0.000 A 
ATOM     11  H   UNL     1       6.531   9.335  18.022  0.00  0.00    +0.000 HD
ENDROOT
BRANCH   1  14
ATOM     12  C4* UNL     1       2.399   2.365  17.712  0.00  0.00    +0.000 C 
ATOM     13  O4* UNL     1       3.329   3.210  16.994  0.00  0.00    +0.000 OA
ATOM     14  C1* UNL     1       4.500   3.397  17.819  0.00  0.00    +0.000 C 
ATOM     15  C2* UNL     1       4.208   2.818  19.206  0.00  0.00    +0.000 C 
ATOM     16  C3* UNL     1       3.181   1.748  18.872  0.00  0.00    +0.000 C 
BRANCH  15  17
ATOM     17  O2* UNL     1       5.372   2.251  19.811  0.00  0.00    +0.000 OA
ATOM     18  H2* UNL     1       6.056   2.955  19.784  0.00  0.00    +0.000 HD
ENDBRANCH  15  17
BRANCH  16  19
ATOM     19  O3* UNL     1       3.919   0.575  18.462  0.00  0.00    +0.000 OA
ATOM     20  H3* UNL     1       3.356   0.040  17.874  0.00  0.00    +0.000 HD
ENDBRANCH  16  19
BRANCH  12  21
ATOM     21  C5* UNL     1       1.186   3.185  18.151  0.00  0.00    +0.000 C 
BRANCH  21  22
ATOM     22  O5* UNL     1       1.000   4.299  17.289  0.00  0.00    +0.000 OA
ATOM     23  H5* UNL     1       1.213   5.095  17.808  0.00  0.00    +0.000 HD
ENDBRANCH  21  22
ENDBRANCH  12  21
ENDBRANCH   1  14
BRANCH   6  24
ATOM     24  C   UNL     1       8.590   9.275  17.511  0.00  0.00    +0.000 C 
BRANCH  24  25
ATOM     25  C   UNL     1       8.562  10.790  17.736  0.00  0.00    +0.000 C 
BRANCH  25  26
ATOM     26  C   UNL     1       9.767  11.237  18.506  0.00  0.00    +0.000 A 
ATOM     27  C   UNL     1      11.023  11.541  18.021  0.00  0.00    +0.000 A 
ATOM     28  C   UNL     1      11.940  11.856  19.064  0.00  0.00    +0.000 A 
ATOM     29  C   UNL     1      11.349  11.800  20.305  0.00  0.00    +0.000 A 
ATOM     30  S   UNL     1       9.694  11.385  20.212  0.00  0.00    +0.000 S 
ENDBRANCH  25  26
ENDBRANCH  24  25
ENDBRANCH   6  24
TORSDOF 8
ENDMDL
MODEL 6
REMARK VINA RESULT:      -7.2      5.796      7.252
REMARK  Name = 
REMARK  8 active torsions:
REMARK  status: ('A' for Active; 'I' for Inactive)
REMARK    1  A    between atoms: O5*_1  and  C5*_2
REMARK    2  A    between atoms: C5*_2  and  C4*_3
REMARK    3  A    between atoms: C1*_5  and  N_6
REMARK    4  A    between atoms: N_11  and  C_12
REMARK    5  A    between atoms: C_12  and  C_13
REMARK    6  A    between atoms: C_13  and  C_14
REMARK    7  A    between atoms: C2*_23  and  O2*_24
REMARK    8  A    between atoms: C3*_25  and  O3*_26
REMARK                            x       y       z     vdW  Elec       q    Type
REMARK                         _______ _______ _______ _____ _____    ______ ____
ROOT
ATOM      1  N   UNL     1       2.337   6.075  19.644  0.00  0.00    +0.000 N 
ATOM      2  C   UNL     1       1.695   6.220  20.846  0.00  0.00    +0.000 A 
ATOM      3  N   UNL     1       1.263   7.449  21.029  0.00  0.00    +0.000 NA
ATOM      4  C   UNL     1       1.618   8.121  19.876  0.00  0.00    +0.000 A 
ATOM      5  C   UNL     1       1.325   9.414  19.408  0.00  0.00    +0.000 A 
ATOM      6  N   UNL     1       0.507  10.267  20.144  0.00  0.00    +0.000 N 
ATOM      7  N   UNL     1       1.815   9.778  18.196  0.00  0.00    +0.000 NA
ATOM      8  C   UNL     1       2.552   8.889  17.501  0.00  0.00    +0.000 A 
ATOM      9  N   UNL     1       2.845   7.615  17.822  0.00  0.00    +0.000 NA
ATOM     10  C   UNL     1       2.331   7.295  19.029  0.00  0.00    +0.000 A 
ATOM     11  H   UNL     1       0.930  10.487  21.040  0.00  0.00    +0.000 HD
ENDROOT
BRANCH   1  14
ATOM     12  C4* UNL     1       2.808   2.654  20.011  0.00  0.00    +0.000 C 
ATOM     13  O4* UNL     1       1.961   3.745  19.582  0.00  0.00    +0.000 OA
ATOM     14  C1* UNL     1       2.807   4.815  19.108  0.00  0.00    +0.000 C 
ATOM     15  C2* UNL     1       4.258   4.467  19.449  0.00  0.00    +0.000 C 
ATOM     16  C3* UNL     1       4.205   2.948  19.463  0.00  0.00    +0.000 C 
BRANCH  15  17
ATOM     17  O2* UNL     1       5.175   4.946  18.462  0.00  0.00    +0.000 OA
ATOM     18  H2* UNL     1       5.254   4.226  17.801  0.00  0.00    +0.000 HD
ENDBRANCH  15  17
BRANCH  16  19
ATOM     19  O3* UNL     1       4.350   2.512  18.093  0.00  0.00    +0.000 OA
ATOM     20  H3* UNL     1       5.168   2.894  17.727  0.00  0.00    +0.000 HD
ENDBRANCH  16  19
BRANCH  12  21
ATOM     21  C5* UNL     1       2.756   2.524  21.534  0.00  0.00    +0.000 C 
BRANCH  21  22
ATOM     22  O5* UNL     1       1.417   2.633  21.997  0.00  0.00    +0.000 OA
ATOM     23  H5* UNL     1       1.062   1.728  22.047  0.00  0.00    +0.000 HD
ENDBRANCH  21  22
ENDBRANCH  12  21
ENDBRANCH   1  14
BRANCH   6  24
ATOM     24  C   UNL     1      -0.125  11.349  19.412  0.00  0.00    +0.000 C 
BRANCH  24  25
ATOM     25  C   UNL     1      -1.648  11.244  19.541  0.00  0.00    +0.000 C 
BRANCH  25  26
ATOM     26  C   UNL     1      -2.268  10.849  18.236  0.00  0.00    +0.000 A 
ATOM     27  C   UNL     1      -1.737  10.039  17.251  0.00  0.00    +0.000 A 
ATOM     28  C   UNL     1      -2.587   9.951  16.112  0.00  0.00    +0.000 A 
ATOM     29  C   UNL     1      -3.743  10.679  16.273  0.00  0.00    +0.000 A 
ATOM     30  S   UNL     1      -3.810  11.453  17.796  0.00  0.00    +0.000 S 
ENDBRANCH  25  26
ENDBRANCH  24  25
ENDBRANCH   6  24
TORSDOF 8
ENDMDL
MODEL 7
REMARK VINA RESULT:      -7.1      5.625      7.263
REMARK  Name = 
REMARK  8 active torsions:
REMARK  status: ('A' for Active; 'I' for Inactive)
REMARK    1  A    between atoms: O5*_1  and  C5*_2
REMARK    2  A    between atoms: C5*_2  and  C4*_3
REMARK    3  A    between atoms: C1*_5  and  N_6
REMARK    4  A    between atoms: N_11  and  C_12
REMARK    5  A    between atoms: C_12  and  C_13
REMARK    6  A    between atoms: C_13  and  C_14
REMARK    7  A    between atoms: C2*_23  and  O2*_24
REMARK    8  A    between atoms: C3*_25  and  O3*_26
REMARK                            x       y       z     vdW  Elec       q    Type
REMARK                         _______ _______ _______ _____ _____    ______ ____
ROOT
ATOM      1  N   UNL     1       2.554   5.538  19.697  0.00  0.00    +0.000 N 
ATOM      2  C   UNL     1       1.786   5.722  20.817  0.00  0.00    +0.000 A 
ATOM      3  N   UNL     1       1.346   6.957  20.914  0.00  0.00    +0.000 NA
ATOM      4  C   UNL     1       1.829   7.593  19.788  0.00  0.00    +0.000 A 
ATOM      5  C   UNL     1       1.598   8.871  19.253  0.00  0.00    +0.000 A 
ATOM      6  N   UNL     1       0.712   9.750  19.869  0.00  0.00    +0.000 N 
ATOM      7  N   UNL     1       2.219   9.197  18.090  0.00  0.00    +0.000 NA
ATOM      8  C   UNL     1       3.021   8.284  17.506  0.00  0.00    +0.000 A 
ATOM      9  N   UNL     1       3.268   7.019  17.895  0.00  0.00    +0.000 NA
ATOM     10  C   UNL     1       2.624   6.738  19.049  0.00  0.00    +0.000 A 
ATOM     11  H   UNL     1       1.037   9.996  20.799  0.00  0.00    +0.000 HD
ENDROOT
BRANCH   1  14
ATOM     12  C4* UNL     1       5.199   3.622  18.514  0.00  0.00    +0.000 C 
ATOM     13  O4* UNL     1       4.455   4.137  19.642  0.00  0.00    +0.000 OA
ATOM     14  C1* UNL     1       3.069   4.260  19.253  0.00  0.00    +0.000 C 
ATOM     15  C2* UNL     1       2.970   4.010  17.745  0.00  0.00    +0.000 C 
ATOM     16  C3* UNL     1       4.166   3.100  17.515  0.00  0.00    +0.000 C 
BRANCH  15  17
ATOM     17  O2* UNL     1       1.747   3.365  17.383  0.00  0.00    +0.000 OA
ATOM     18  H2* UNL     1       1.844   3.125  16.436  0.00  0.00    +0.000 HD
ENDBRANCH  15  17
BRANCH  16  19
ATOM     19  O3* UNL     1       3.736   1.758  17.835  0.00  0.00    +0.000 OA
ATOM     20  H3* UNL     1       2.801   1.658  17.581  0.00  0.00    +0.000 HD
ENDBRANCH  16  19
BRANCH  12  21
ATOM     21  C5* UNL     1       6.108   4.715  17.949  0.00  0.00    +0.000 C 
BRANCH  21  22
ATOM     22  O5* UNL     1       7.464   4.293  17.969  0.00  0.00    +0.000 OA
ATOM     23  H5* UNL     1       7.570   3.655  17.240  0.00  0.00    +0.000 HD
ENDBRANCH  21  22
ENDBRANCH  12  21
ENDBRANCH   1  14
BRANCH   6  24
ATOM     24  C   UNL     1       0.171  10.812  19.041  0.00  0.00    +0.000 C 
BRANCH  24  25
ATOM     25  C   UNL     1      -1.326  10.981  19.323  0.00  0.00    +0.000 C 
BRANCH  25  26
ATOM     26  C   UNL     1      -2.135  10.704  18.093  0.00  0.00    +0.000 A 
ATOM     27  C   UNL     1      -1.802   9.907  17.016  0.00  0.00    +0.000 A 
ATOM     28  C   UNL     1      -2.791   9.945  15.993  0.00  0.00    +0.000 A 
ATOM     29  C   UNL     1      -3.852  10.753  16.331  0.00  0.00    +0.000 A 
ATOM     30  S   UNL     1      -3.663  11.449  17.881  0.00  0.00    +0.000 S 
ENDBRANCH  25  26
ENDBRANCH  24  25
ENDBRANCH   6  24
TORSDOF 8
ENDMDL
MODEL 8
REMARK VINA RESULT:      -7.0      5.618      7.900
REMARK  Name = 
REMARK  8 active torsions:
REMARK  status: ('A' for Active; 'I' for Inactive)
REMARK    1  A    between atoms: O5*_1  and  C5*_2
REMARK    2  A    between atoms: C5*_2  and  C4*_3
REMARK    3  A    between atoms: C1*_5  and  N_6
REMARK    4  A    between atoms: N_11  and  C_12
REMARK    5  A    between atoms: C_12  and  C_13
REMARK    6  A    between atoms: C_13  and  C_14
REMARK    7  A    between atoms: C2*_23  and  O2*_24
REMARK    8  A    between atoms: C3*_25  and  O3*_26
REMARK                            x       y       z     vdW  Elec       q    Type
REMARK                         _______ _______ _______ _____ _____    ______ ____
ROOT
ATOM      1  N   UNL     1       1.283   9.406  19.323  0.00  0.00    +0.000 N 
ATOM      2  C   UNL     1       1.801   9.645  18.077  0.00  0.00    +0.000 A 
ATOM      3  N   UNL     1       2.469   8.611  17.614  0.00  0.00    +0.000 NA
ATOM      4  C   UNL     1       2.352   7.648  18.597  0.00  0.00    +0.000 A 
ATOM      5  C   UNL     1       2.727   6.295  18.643  0.00  0.00    +0.000 A 
ATOM      6  N   UNL     1       3.314   5.683  17.540  0.00  0.00    +0.000 N 
ATOM      7  N   UNL     1       2.447   5.595  19.772  0.00  0.00    +0.000 NA
ATOM      8  C   UNL     1       1.823   6.225  20.788  0.00  0.00    +0.000 A 
ATOM      9  N   UNL     1       1.369   7.491  20.831  0.00  0.00    +0.000 NA
ATOM     10  C   UNL     1       1.662   8.145  19.686  0.00  0.00    +0.000 A 
ATOM     11  H   UNL     1       4.208   6.114  17.322  0.00  0.00    +0.000 HD
ENDROOT
BRANCH   1  14
ATOM     12  C4* UNL     1      -1.538  11.432  19.344  0.00  0.00    +0.000 C 
ATOM     13  O4* UNL     1      -0.954  10.125  19.552  0.00  0.00    +0.000 OA
ATOM     14  C1* UNL     1       0.396  10.304  20.032  0.00  0.00    +0.000 C 
ATOM     15  C2* UNL     1       0.753  11.789  19.921  0.00  0.00    +0.000 C 
ATOM     16  C3* UNL     1      -0.618  12.434  20.042  0.00  0.00    +0.000 C 
BRANCH  15  17
ATOM     17  O2* UNL     1       1.624  12.216  20.971  0.00  0.00    +0.000 OA
ATOM     18  H2* UNL     1       2.278  11.493  21.084  0.00  0.00    +0.000 HD
ENDBRANCH  15  17
BRANCH  16  19
ATOM     19  O3* UNL     1      -0.907  12.539  21.454  0.00  0.00    +0.000 OA
ATOM     20  H3* UNL     1      -0.262  12.000  21.947  0.00  0.00    +0.000 HD
ENDBRANCH  16  19
BRANCH  12  21
ATOM     21  C5* UNL     1      -1.710  11.691  17.846  0.00  0.00    +0.000 C 
BRANCH  21  22
ATOM     22  O5* UNL     1      -1.115  12.929  17.484  0.00  0.00    +0.000 OA
ATOM     23  H5* UNL     1      -0.503  12.742  16.750  0.00  0.00    +0.000 HD
ENDBRANCH  21  22
ENDBRANCH  12  21
ENDBRANCH   1  14
BRANCH   6  24
ATOM     24  C   UNL     1       3.233   4.235  17.483  0.00  0.00    +0.000 C 
BRANCH  24  25
ATOM     25  C   UNL     1       4.637   3.630  17.575  0.00  0.00    +0.000 C 
BRANCH  25  26
ATOM     26  C   UNL     1       5.490   4.087  16.431  0.00  0.00    +0.000 A 
ATOM     27  C   UNL     1       5.228   3.985  15.079  0.00  0.00    +0.000 A 
ATOM     28  C   UNL     1       6.309   4.461  14.284  0.00  0.00    +0.000 A 
ATOM     29  C   UNL     1       7.349   4.927  15.054  0.00  0.00    +0.000 A 
ATOM     30  S   UNL     1       7.017   4.805  16.727  0.00  0.00    +0.000 S 
ENDBRANCH  25  26
ENDBRANCH  24  25
ENDBRANCH   6  24
TORSDOF 8
ENDMDL
MODEL 9
REMARK VINA RESULT:      -7.0      5.713      7.710
REMARK  Name = 
REMARK  8 active torsions:
REMARK  status: ('A' for Active; 'I' for Inactive)
REMARK    1  A    between atoms: O5*_1  and  C5*_2
REMARK    2  A    between atoms: C5*_2  and  C4*_3
REMARK    3  A    between atoms: C1*_5  and  N_6
REMARK    4  A    between atoms: N_11  and  C_12
REMARK    5  A    between atoms: C_12  and  C_13
REMARK    6  A    between atoms: C_13  and  C_14
REMARK    7  A    between atoms: C2*_23  and  O2*_24
REMARK    8  A    between atoms: C3*_25  and  O3*_26
REMARK                            x       y       z     vdW  Elec       q    Type
REMARK                         _______ _______ _______ _____ _____    ______ ____
ROOT
ATOM      1  N   UNL     1       0.872   9.547  19.785  0.00  0.00    +0.000 N 
ATOM      2  C   UNL     1       0.720   8.853  20.957  0.00  0.00    +0.000 A 
ATOM      3  N   UNL     1       1.385   7.719  20.947  0.00  0.00    +0.000 NA
ATOM      4  C   UNL     1       2.022   7.695  19.723  0.00  0.00    +0.000 A 
ATOM      5  C   UNL     1       2.977   6.823  19.171  0.00  0.00    +0.000 A 
ATOM      6  N   UNL     1       3.477   5.757  19.913  0.00  0.00    +0.000 N 
ATOM      7  N   UNL     1       3.435   7.090  17.921  0.00  0.00    +0.000 NA
ATOM      8  C   UNL     1       2.958   8.171  17.273  0.00  0.00    +0.000 A 
ATOM      9  N   UNL     1       2.093   9.100  17.721  0.00  0.00    +0.000 NA
ATOM     10  C   UNL     1       1.672   8.799  18.969  0.00  0.00    +0.000 A 
ATOM     11  H   UNL     1       2.737   5.099  20.141  0.00  0.00    +0.000 HD
ENDROOT
BRANCH   1  14
ATOM     12  C4* UNL     1      -0.740  12.392  20.957  0.00  0.00    +0.000 C 
ATOM     13  O4* UNL     1       0.496  11.668  20.754  0.00  0.00    +0.000 OA
ATOM     14  C1* UNL     1       0.368  10.883  19.548  0.00  0.00    +0.000 C 
ATOM     15  C2* UNL     1      -1.090  10.952  19.083  0.00  0.00    +0.000 C 
ATOM     16  C3* UNL     1      -1.518  12.298  19.644  0.00  0.00    +0.000 C 
BRANCH  15  17
ATOM     17  O2* UNL     1      -1.204  10.922  17.658  0.00  0.00    +0.000 OA
ATOM     18  H2* UNL     1      -1.368  11.850  17.385  0.00  0.00    +0.000 HD
ENDBRANCH  15  17
BRANCH  16  19
ATOM     19  O3* UNL     1      -1.095  13.301  18.693  0.00  0.00    +0.000 OA
ATOM     20  H3* UNL     1      -1.489  14.156  18.943  0.00  0.00    +0.000 HD
ENDBRANCH  16  19
BRANCH  12  21
ATOM     21  C5* UNL     1      -1.487  11.817  22.161  0.00  0.00    +0.000 C 
BRANCH  21  22
ATOM     22  O5* UNL     1      -0.569  11.322  23.125  0.00  0.00    +0.000 OA
ATOM     23  H5* UNL     1      -0.285  10.443  22.817  0.00  0.00    +0.000 HD
ENDBRANCH  21  22
ENDBRANCH  12  21
ENDBRANCH   1  14
BRANCH   6  24
ATOM     24  C   UNL     1       4.754   5.215  19.488  0.00  0.00    +0.000 C 
BRANCH  24  25
ATOM     25  C   UNL     1       4.529   4.035  18.538  0.00  0.00    +0.000 C 
BRANCH  25  26
ATOM     26  C   UNL     1       5.288   4.226  17.261  0.00  0.00    +0.000 A 
ATOM     27  C   UNL     1       4.848   4.013  15.969  0.00  0.00    +0.000 A 
ATOM     28  C   UNL     1       5.878   4.228  15.009  0.00  0.00    +0.000 A 
ATOM     29  C   UNL     1       7.060   4.615  15.598  0.00  0.00    +0.000 A 
ATOM     30  S   UNL     1       6.924   4.733  17.298  0.00  0.00    +0.000 S 
ENDBRANCH  25  26
ENDBRANCH  24  25
ENDBRANCH   6  24
TORSDOF 8
ENDMDL
