MODEL 1
REMARK VINA RESULT:      -7.9      0.000      0.000
REMARK  Name = 
REMARK  5 active torsions:
REMARK  status: ('A' for Active; 'I' for Inactive)
REMARK    1  A    between atoms: C_1  and  C_2
REMARK    2  A    between atoms: C_2  and  C_3
REMARK    3  A    between atoms: C_8  and  C_9
REMARK    4  A    between atoms: C_8  and  C_10
REMARK    5  A    between atoms: N_12  and  C_13
REMARK                            x       y       z     vdW  Elec       q    Type
REMARK                         _______ _______ _______ _____ _____    ______ ____
ROOT
ATOM      1  C   UNL     1       2.586   6.021  18.783  0.00  0.00    +0.000 C 
ATOM      2  O   UNL     1       1.846   5.979  17.802  0.00  0.00    +0.000 OA
ATOM      3  N   UNL     1       2.645   7.086  19.665  0.00  0.00    +0.000 N 
ATOM      4  H   UNL     1       3.550   7.294  20.065  0.00  0.00    +0.000 HD
ENDROOT
BRANCH   3   5
ATOM      5  C   UNL     1       1.920   8.268  19.450  0.00  0.00    +0.000 A 
ATOM      6  N   UNL     1       2.101   8.768  18.206  0.00  0.00    +0.000 NA
ATOM      7  C   UNL     1       1.372   9.849  17.875  0.00  0.00    +0.000 A 
ATOM      8  C   UNL     1       0.509  10.496  18.743  0.00  0.00    +0.000 A 
ATOM      9  C   UNL     1       0.402  10.032  20.058  0.00  0.00    +0.000 A 
ATOM     10  C   UNL     1      -0.407  10.701  20.992  0.00  0.00    +0.000 A 
ATOM     11  C   UNL     1      -0.476  10.275  22.319  0.00  0.00    +0.000 A 
ATOM     12  C   UNL     1       0.267   9.176  22.731  0.00  0.00    +0.000 A 
ATOM     13  C   UNL     1       1.061   8.491  21.809  0.00  0.00    +0.000 A 
ATOM     14  C   UNL     1       1.132   8.888  20.450  0.00  0.00    +0.000 A 
ENDBRANCH   3   5
BRANCH   1  20
ATOM     15  C   UNL     1       7.005   5.080  17.883  0.00  0.00    +0.000 C 
ATOM     16  O   UNL     1       7.562   4.477  16.967  0.00  0.00    +0.000 OA
ATOM     17  N   UNL     1       5.754   4.715  18.333  0.00  0.00    +0.000 N 
ATOM     18  C   UNL     1       5.112   3.501  17.882  0.00  0.00    +0.000 C 
ATOM     19  C   UNL     1       3.631   3.815  17.967  0.00  0.00    +0.000 C 
ATOM     20  C   UNL     1       3.513   4.841  19.122  0.00  0.00    +0.000 C 
ATOM     21  C   UNL     1       3.017   4.127  20.390  0.00  0.00    +0.000 C 
ATOM     22  C   UNL     1       4.942   5.385  19.334  0.00  0.00    +0.000 C 
BRANCH  15  24
ATOM     23  C   UNL     1       7.695   7.502  17.744  0.00  0.00    +0.000 C 
ATOM     24  C   UNL     1       7.667   6.247  18.600  0.00  0.00    +0.000 C 
ENDBRANCH  15  24
ENDBRANCH   1  20
TORSDOF 3
ENDMDL
MODEL 2
REMARK VINA RESULT:      -7.8      1.392      2.501
REMARK  Name = 
REMARK  5 active torsions:
REMARK  status: ('A' for Active; 'I' for Inactive)
REMARK    1  A    between atoms: C_1  and  C_2
REMARK    2  A    between atoms: C_2  and  C_3
REMARK    3  A    between atoms: C_8  and  C_9
REMARK    4  A    between atoms: C_8  and  C_10
REMARK    5  A    between atoms: N_12  and  C_13
REMARK                            x       y       z     vdW  Elec       q    Type
REMARK                         _______ _______ _______ _____ _____    ______ ____
ROOT
ATOM      1  C   UNL     1       2.888   5.057  18.722  0.00  0.00    +0.000 C 
ATOM      2  O   UNL     1       1.762   4.837  18.279  0.00  0.00    +0.000 OA
ATOM      3  N   UNL     1       3.185   6.067  19.620  0.00  0.00    +0.000 N 
ATOM      4  H   UNL     1       4.088   6.511  19.522  0.00  0.00    +0.000 HD
ENDROOT
BRANCH   3   5
ATOM      5  C   UNL     1       2.220   7.000  20.031  0.00  0.00    +0.000 A 
ATOM      6  N   UNL     1       1.511   6.575  21.102  0.00  0.00    +0.000 NA
ATOM      7  C   UNL     1       0.627   7.442  21.627  0.00  0.00    +0.000 A 
ATOM      8  C   UNL     1       0.370   8.698  21.102  0.00  0.00    +0.000 A 
ATOM      9  C   UNL     1       1.036   9.091  19.937  0.00  0.00    +0.000 A 
ATOM     10  C   UNL     1       0.753  10.327  19.330  0.00  0.00    +0.000 A 
ATOM     11  C   UNL     1       1.374  10.701  18.138  0.00  0.00    +0.000 A 
ATOM     12  C   UNL     1       2.283   9.843  17.534  0.00  0.00    +0.000 A 
ATOM     13  C   UNL     1       2.587   8.619  18.135  0.00  0.00    +0.000 A 
ATOM     14  C   UNL     1       1.988   8.224  19.358  0.00  0.00    +0.000 A 
ENDBRANCH   3   5
BRANCH   1  20
ATOM     15  C   UNL     1       7.056   5.959  16.980  0.00  0.00    +0.000 C 
ATOM     16  O   UNL     1       7.483   6.035  15.829  0.00  0.00    +0.000 OA
ATOM     17  N   UNL     1       6.047   5.084  17.320  0.00  0.00    +0.000 N 
ATOM     18  C   UNL     1       5.567   4.086  16.392  0.00  0.00    +0.000 C 
ATOM     19  C   UNL     1       4.117   3.882  16.789  0.00  0.00    +0.000 C 
ATOM     20  C   UNL     1       4.082   4.178  18.310  0.00  0.00    +0.000 C 
ATOM     21  C   UNL     1       4.056   2.853  19.088  0.00  0.00    +0.000 C 
ATOM     22  C   UNL     1       5.385   4.952  18.607  0.00  0.00    +0.000 C 
BRANCH  15  24
ATOM     23  C   UNL     1       7.845   8.247  17.693  0.00  0.00    +0.000 C 
ATOM     24  C   UNL     1       7.629   6.802  18.110  0.00  0.00    +0.000 C 
ENDBRANCH  15  24
ENDBRANCH   1  20
TORSDOF 3
ENDMDL
MODEL 3
REMARK VINA RESULT:      -7.5      3.566      6.046
REMARK  Name = 
REMARK  5 active torsions:
REMARK  status: ('A' for Active; 'I' for Inactive)
REMARK    1  A    between atoms: C_1  and  C_2
REMARK    2  A    between atoms: C_2  and  C_3
REMARK    3  A    between atoms: C_8  and  C_9
REMARK    4  A    between atoms: C_8  and  C_10
REMARK    5  A    between atoms: N_12  and  C_13
REMARK                            x       y       z     vdW  Elec       q    Type
REMARK                         _______ _______ _______ _____ _____    ______ ____
ROOT
ATOM      1  C   UNL     1       5.314   4.525  16.514  0.00  0.00    +0.000 C 
ATOM      2  O   UNL     1       6.117   4.152  17.367  0.00  0.00    +0.000 OA
ATOM      3  N   UNL     1       3.943   4.364  16.616  0.00  0.00    +0.000 N 
ATOM      4  H   UNL     1       3.442   4.187  15.756  0.00  0.00    +0.000 HD
ENDROOT
BRANCH   3   5
ATOM      5  C   UNL     1       3.357   3.660  17.679  0.00  0.00    +0.000 A 
ATOM      6  N   UNL     1       3.367   2.322  17.483  0.00  0.00    +0.000 NA
ATOM      7  C   UNL     1       2.910   1.558  18.492  0.00  0.00    +0.000 A 
ATOM      8  C   UNL     1       2.388   2.063  19.671  0.00  0.00    +0.000 A 
ATOM      9  C   UNL     1       2.291   3.450  19.824  0.00  0.00    +0.000 A 
ATOM     10  C   UNL     1       1.702   4.005  20.974  0.00  0.00    +0.000 A 
ATOM     11  C   UNL     1       1.552   5.386  21.109  0.00  0.00    +0.000 A 
ATOM     12  C   UNL     1       1.985   6.230  20.095  0.00  0.00    +0.000 A 
ATOM     13  C   UNL     1       2.588   5.693  18.955  0.00  0.00    +0.000 A 
ATOM     14  C   UNL     1       2.774   4.296  18.802  0.00  0.00    +0.000 A 
ENDBRANCH   3   5
BRANCH   1  20
ATOM     15  C   UNL     1       6.076   3.155  12.182  0.00  0.00    +0.000 C 
ATOM     16  O   UNL     1       7.075   2.735  11.601  0.00  0.00    +0.000 OA
ATOM     17  N   UNL     1       6.166   4.087  13.193  0.00  0.00    +0.000 N 
ATOM     18  C   UNL     1       7.413   4.753  13.499  0.00  0.00    +0.000 C 
ATOM     19  C   UNL     1       7.311   5.061  14.981  0.00  0.00    +0.000 C 
ATOM     20  C   UNL     1       5.794   5.243  15.240  0.00  0.00    +0.000 C 
ATOM     21  C   UNL     1       5.465   6.741  15.322  0.00  0.00    +0.000 C 
ATOM     22  C   UNL     1       5.091   4.602  14.023  0.00  0.00    +0.000 C 
BRANCH  15  24
ATOM     23  C   UNL     1       4.056   3.577  10.731  0.00  0.00    +0.000 C 
ATOM     24  C   UNL     1       4.674   2.700  11.807  0.00  0.00    +0.000 C 
ENDBRANCH  15  24
ENDBRANCH   1  20
TORSDOF 3
ENDMDL
MODEL 4
REMARK VINA RESULT:      -7.4      2.652      7.512
REMARK  Name = 
REMARK  5 active torsions:
REMARK  status: ('A' for Active; 'I' for Inactive)
REMARK    1  A    between atoms: C_1  and  C_2
REMARK    2  A    between atoms: C_2  and  C_3
REMARK    3  A    between atoms: C_8  and  C_9
REMARK    4  A    between atoms: C_8  and  C_10
REMARK    5  A    between atoms: N_12  and  C_13
REMARK                            x       y       z     vdW  Elec       q    Type
REMARK                         _______ _______ _______ _____ _____    ______ ____
ROOT
ATOM      1  C   UNL     1       1.867   8.695  18.532  0.00  0.00    +0.000 C 
ATOM      2  O   UNL     1       2.053   9.102  17.388  0.00  0.00    +0.000 OA
ATOM      3  N   UNL     1       2.407   7.526  19.037  0.00  0.00    +0.000 N 
ATOM      4  H   UNL     1       1.840   7.011  19.697  0.00  0.00    +0.000 HD
ENDROOT
BRANCH   3   5
ATOM      5  C   UNL     1       3.149   6.645  18.234  0.00  0.00    +0.000 A 
ATOM      6  N   UNL     1       4.146   7.268  17.566  0.00  0.00    +0.000 NA
ATOM      7  C   UNL     1       4.971   6.489  16.842  0.00  0.00    +0.000 A 
ATOM      8  C   UNL     1       4.818   5.120  16.704  0.00  0.00    +0.000 A 
ATOM      9  C   UNL     1       3.727   4.498  17.319  0.00  0.00    +0.000 A 
ATOM     10  C   UNL     1       3.494   3.122  17.147  0.00  0.00    +0.000 A 
ATOM     11  C   UNL     1       2.377   2.506  17.712  0.00  0.00    +0.000 A 
ATOM     12  C   UNL     1       1.476   3.257  18.454  0.00  0.00    +0.000 A 
ATOM     13  C   UNL     1       1.704   4.622  18.649  0.00  0.00    +0.000 A 
ATOM     14  C   UNL     1       2.843   5.268  18.105  0.00  0.00    +0.000 A 
ENDBRANCH   3   5
BRANCH   1  20
ATOM     15  C   UNL     1      -2.031  11.120  18.135  0.00  0.00    +0.000 C 
ATOM     16  O   UNL     1      -2.258  12.305  17.902  0.00  0.00    +0.000 OA
ATOM     17  N   UNL     1      -0.916  10.722  18.841  0.00  0.00    +0.000 N 
ATOM     18  C   UNL     1      -0.058  11.680  19.501  0.00  0.00    +0.000 C 
ATOM     19  C   UNL     1       1.307  11.018  19.490  0.00  0.00    +0.000 C 
ATOM     20  C   UNL     1       1.007   9.498  19.525  0.00  0.00    +0.000 C 
ATOM     21  C   UNL     1       1.214   8.969  20.952  0.00  0.00    +0.000 C 
ATOM     22  C   UNL     1      -0.474   9.364  19.110  0.00  0.00    +0.000 C 
BRANCH  15  24
ATOM     23  C   UNL     1      -2.910   9.782  16.185  0.00  0.00    +0.000 C 
ATOM     24  C   UNL     1      -2.975  10.015  17.685  0.00  0.00    +0.000 C 
ENDBRANCH  15  24
ENDBRANCH   1  20
TORSDOF 3
ENDMDL
MODEL 5
REMARK VINA RESULT:      -7.2      2.030      3.846
REMARK  Name = 
REMARK  5 active torsions:
REMARK  status: ('A' for Active; 'I' for Inactive)
REMARK    1  A    between atoms: C_1  and  C_2
REMARK    2  A    between atoms: C_2  and  C_3
REMARK    3  A    between atoms: C_8  and  C_9
REMARK    4  A    between atoms: C_8  and  C_10
REMARK    5  A    between atoms: N_12  and  C_13
REMARK                            x       y       z     vdW  Elec       q    Type
REMARK                         _______ _______ _______ _____ _____    ______ ____
ROOT
ATOM      1  C   UNL     1       2.286   6.861  19.772  0.00  0.00    +0.000 C 
ATOM      2  O   UNL     1       1.723   6.185  20.631  0.00  0.00    +0.000 OA
ATOM      3  N   UNL     1       2.140   8.231  19.644  0.00  0.00    +0.000 N 
ATOM      4  H   UNL     1       2.160   8.604  18.705  0.00  0.00    +0.000 HD
ENDROOT
BRANCH   3   5
ATOM      5  C   UNL     1       1.242   8.958  20.442  0.00  0.00    +0.000 A 
ATOM      6  N   UNL     1       1.389   8.693  21.760  0.00  0.00    +0.000 NA
ATOM      7  C   UNL     1       0.635   9.413  22.611  0.00  0.00    +0.000 A 
ATOM      8  C   UNL     1      -0.304  10.349  22.211  0.00  0.00    +0.000 A 
ATOM      9  C   UNL     1      -0.519  10.546  20.843  0.00  0.00    +0.000 A 
ATOM     10  C   UNL     1      -1.512  11.434  20.392  0.00  0.00    +0.000 A 
ATOM     11  C   UNL     1      -1.769  11.594  19.031  0.00  0.00    +0.000 A 
ATOM     12  C   UNL     1      -1.039  10.865  18.100  0.00  0.00    +0.000 A 
ATOM     13  C   UNL     1      -0.038   9.993  18.533  0.00  0.00    +0.000 A 
ATOM     14  C   UNL     1       0.260   9.828  19.909  0.00  0.00    +0.000 A 
ENDBRANCH   3   5
BRANCH   1  20
ATOM     15  C   UNL     1       3.154   2.503  18.555  0.00  0.00    +0.000 C 
ATOM     16  O   UNL     1       3.965   1.669  18.954  0.00  0.00    +0.000 OA
ATOM     17  N   UNL     1       3.450   3.849  18.539  0.00  0.00    +0.000 N 
ATOM     18  C   UNL     1       4.784   4.333  18.812  0.00  0.00    +0.000 C 
ATOM     19  C   UNL     1       4.560   5.710  19.409  0.00  0.00    +0.000 C 
ATOM     20  C   UNL     1       3.244   6.210  18.760  0.00  0.00    +0.000 C 
ATOM     21  C   UNL     1       3.575   7.200  17.632  0.00  0.00    +0.000 C 
ATOM     22  C   UNL     1       2.566   4.947  18.186  0.00  0.00    +0.000 C 
BRANCH  15  24
ATOM     23  C   UNL     1       0.696   2.278  19.076  0.00  0.00    +0.000 C 
ATOM     24  C   UNL     1       1.783   2.106  18.028  0.00  0.00    +0.000 C 
ENDBRANCH  15  24
ENDBRANCH   1  20
TORSDOF 3
ENDMDL
MODEL 6
REMARK VINA RESULT:      -7.2      1.778      2.986
REMARK  Name = 
REMARK  5 active torsions:
REMARK  status: ('A' for Active; 'I' for Inactive)
REMARK    1  A    between atoms: C_1  and  C_2
REMARK    2  A    between atoms: C_2  and  C_3
REMARK    3  A    between atoms: C_8  and  C_9
REMARK    4  A    between atoms: C_8  and  C_10
REMARK    5  A    between atoms: N_12  and  C_13
REMARK                            x       y       z     vdW  Elec       q    Type
REMARK                         _______ _______ _______ _____ _____    ______ ____
ROOT
ATOM      1  C   UNL     1       2.580   6.694  18.199  0.00  0.00    +0.000 C 
ATOM      2  O   UNL     1       1.507   6.119  18.021  0.00  0.00    +0.000 OA
ATOM      3  N   UNL     1       2.697   7.991  18.664  0.00  0.00    +0.000 N 
ATOM      4  H   UNL     1       3.463   8.538  18.296  0.00  0.00    +0.000 HD
ENDROOT
BRANCH   3   5
ATOM      5  C   UNL     1       1.574   8.805  18.883  0.00  0.00    +0.000 A 
ATOM      6  N   UNL     1       1.082   9.327  17.736  0.00  0.00    +0.000 NA
ATOM      7  C   UNL     1      -0.052  10.045  17.834  0.00  0.00    +0.000 A 
ATOM      8  C   UNL     1      -0.692  10.319  19.031  0.00  0.00    +0.000 A 
ATOM      9  C   UNL     1      -0.122   9.859  20.222  0.00  0.00    +0.000 A 
ATOM     10  C   UNL     1      -0.700  10.175  21.464  0.00  0.00    +0.000 A 
ATOM     11  C   UNL     1      -0.106   9.766  22.658  0.00  0.00    +0.000 A 
ATOM     12  C   UNL     1       1.076   9.037  22.627  0.00  0.00    +0.000 A 
ATOM     13  C   UNL     1       1.652   8.701  21.400  0.00  0.00    +0.000 A 
ATOM     14  C   UNL     1       1.057   9.084  20.171  0.00  0.00    +0.000 A 
ENDBRANCH   3   5
BRANCH   1  20
ATOM     15  C   UNL     1       4.214   2.515  19.243  0.00  0.00    +0.000 C 
ATOM     16  O   UNL     1       4.863   2.084  20.195  0.00  0.00    +0.000 OA
ATOM     17  N   UNL     1       4.381   3.801  18.777  0.00  0.00    +0.000 N 
ATOM     18  C   UNL     1       5.450   4.647  19.259  0.00  0.00    +0.000 C 
ATOM     19  C   UNL     1       4.894   6.052  19.125  0.00  0.00    +0.000 C 
ATOM     20  C   UNL     1       3.913   5.974  17.928  0.00  0.00    +0.000 C 
ATOM     21  C   UNL     1       4.586   6.561  16.678  0.00  0.00    +0.000 C 
ATOM     22  C   UNL     1       3.627   4.470  17.731  0.00  0.00    +0.000 C 
BRANCH  15  24
ATOM     23  C   UNL     1       1.794   1.836  19.027  0.00  0.00    +0.000 C 
ATOM     24  C   UNL     1       3.207   1.652  18.498  0.00  0.00    +0.000 C 
ENDBRANCH  15  24
ENDBRANCH   1  20
TORSDOF 3
ENDMDL
MODEL 7
REMARK VINA RESULT:      -7.2      1.320      1.566
REMARK  Name = 
REMARK  5 active torsions:
REMARK  status: ('A' for Active; 'I' for Inactive)
REMARK    1  A    between atoms: C_1  and  C_2
REMARK    2  A    between atoms: C_2  and  C_3
REMARK    3  A    between atoms: C_8  and  C_9
REMARK    4  A    between atoms: C_8  and  C_10
REMARK    5  A    between atoms: N_12  and  C_13
REMARK                            x       y       z     vdW  Elec       q    Type
REMARK                         _______ _______ _______ _____ _____    ______ ____
ROOT
ATOM      1  C   UNL     1       2.166   7.119  18.742  0.00  0.00    +0.000 C 
ATOM      2  O   UNL     1       2.131   7.643  17.631  0.00  0.00    +0.000 OA
ATOM      3  N   UNL     1       1.735   7.735  19.904  0.00  0.00    +0.000 N 
ATOM      4  H   UNL     1       2.247   7.520  20.749  0.00  0.00    +0.000 HD
ENDROOT
BRANCH   3   5
ATOM      5  C   UNL     1       1.304   9.071  19.919  0.00  0.00    +0.000 A 
ATOM      6  N   UNL     1       1.727   9.764  18.836  0.00  0.00    +0.000 NA
ATOM      7  C   UNL     1       1.285  11.029  18.715  0.00  0.00    +0.000 A 
ATOM      8  C   UNL     1       0.484  11.662  19.651  0.00  0.00    +0.000 A 
ATOM      9  C   UNL     1       0.133  10.970  20.815  0.00  0.00    +0.000 A 
ATOM     10  C   UNL     1      -0.619  11.598  21.824  0.00  0.00    +0.000 A 
ATOM     11  C   UNL     1      -0.926  10.933  23.011  0.00  0.00    +0.000 A 
ATOM     12  C   UNL     1      -0.483   9.631  23.208  0.00  0.00    +0.000 A 
ATOM     13  C   UNL     1       0.250   8.989  22.206  0.00  0.00    +0.000 A 
ATOM     14  C   UNL     1       0.556   9.634  20.981  0.00  0.00    +0.000 A 
ENDBRANCH   3   5
BRANCH   1  20
ATOM     15  C   UNL     1       5.441   4.640  16.656  0.00  0.00    +0.000 C 
ATOM     16  O   UNL     1       5.425   3.876  15.693  0.00  0.00    +0.000 OA
ATOM     17  N   UNL     1       4.362   4.754  17.506  0.00  0.00    +0.000 N 
ATOM     18  C   UNL     1       3.233   3.854  17.420  0.00  0.00    +0.000 C 
ATOM     19  C   UNL     1       2.064   4.684  17.915  0.00  0.00    +0.000 C 
ATOM     20  C   UNL     1       2.689   5.683  18.921  0.00  0.00    +0.000 C 
ATOM     21  C   UNL     1       2.424   5.198  20.354  0.00  0.00    +0.000 C 
ATOM     22  C   UNL     1       4.204   5.673  18.620  0.00  0.00    +0.000 C 
BRANCH  15  24
ATOM     23  C   UNL     1       7.667   4.731  17.839  0.00  0.00    +0.000 C 
ATOM     24  C   UNL     1       6.658   5.488  16.992  0.00  0.00    +0.000 C 
ENDBRANCH  15  24
ENDBRANCH   1  20
TORSDOF 3
ENDMDL
MODEL 8
REMARK VINA RESULT:      -7.2      1.895      3.454
REMARK  Name = 
REMARK  5 active torsions:
REMARK  status: ('A' for Active; 'I' for Inactive)
REMARK    1  A    between atoms: C_1  and  C_2
REMARK    2  A    between atoms: C_2  and  C_3
REMARK    3  A    between atoms: C_8  and  C_9
REMARK    4  A    between atoms: C_8  and  C_10
REMARK    5  A    between atoms: N_12  and  C_13
REMARK                            x       y       z     vdW  Elec       q    Type
REMARK                         _______ _______ _______ _____ _____    ______ ____
ROOT
ATOM      1  C   UNL     1       3.725   6.668  17.988  0.00  0.00    +0.000 C 
ATOM      2  O   UNL     1       4.508   7.517  17.568  0.00  0.00    +0.000 OA
ATOM      3  N   UNL     1       2.471   6.952  18.496  0.00  0.00    +0.000 N 
ATOM      4  H   UNL     1       2.144   6.368  19.254  0.00  0.00    +0.000 HD
ENDROOT
BRANCH   3   5
ATOM      5  C   UNL     1       2.021   8.272  18.666  0.00  0.00    +0.000 A 
ATOM      6  N   UNL     1       2.292   9.052  17.594  0.00  0.00    +0.000 NA
ATOM      7  C   UNL     1       1.815  10.310  17.625  0.00  0.00    +0.000 A 
ATOM      8  C   UNL     1       1.129  10.851  18.699  0.00  0.00    +0.000 A 
ATOM      9  C   UNL     1       0.940  10.068  19.842  0.00  0.00    +0.000 A 
ATOM     10  C   UNL     1       0.312  10.601  20.982  0.00  0.00    +0.000 A 
ATOM     11  C   UNL     1       0.169   9.843  22.144  0.00  0.00    +0.000 A 
ATOM     12  C   UNL     1       0.657   8.543  22.185  0.00  0.00    +0.000 A 
ATOM     13  C   UNL     1       1.267   7.995  21.054  0.00  0.00    +0.000 A 
ATOM     14  C   UNL     1       1.404   8.735  19.853  0.00  0.00    +0.000 A 
ENDBRANCH   3   5
BRANCH   1  20
ATOM     15  C   UNL     1       2.522   3.033  20.551  0.00  0.00    +0.000 C 
ATOM     16  O   UNL     1       3.013   2.517  21.552  0.00  0.00    +0.000 OA
ATOM     17  N   UNL     1       3.305   3.633  19.588  0.00  0.00    +0.000 N 
ATOM     18  C   UNL     1       4.747   3.527  19.613  0.00  0.00    +0.000 C 
ATOM     19  C   UNL     1       5.221   4.806  18.950  0.00  0.00    +0.000 C 
ATOM     20  C   UNL     1       4.092   5.173  17.954  0.00  0.00    +0.000 C 
ATOM     21  C   UNL     1       4.511   4.764  16.533  0.00  0.00    +0.000 C 
ATOM     22  C   UNL     1       2.863   4.357  18.409  0.00  0.00    +0.000 C 
BRANCH  15  24
ATOM     23  C   UNL     1       0.665   2.219  19.049  0.00  0.00    +0.000 C 
ATOM     24  C   UNL     1       1.023   3.021  20.289  0.00  0.00    +0.000 C 
ENDBRANCH  15  24
ENDBRANCH   1  20
TORSDOF 3
ENDMDL
MODEL 9
REMARK VINA RESULT:      -7.1      2.832      6.904
REMARK  Name = 
REMARK  5 active torsions:
REMARK  status: ('A' for Active; 'I' for Inactive)
REMARK    1  A    between atoms: C_1  and  C_2
REMARK    2  A    between atoms: C_2  and  C_3
REMARK    3  A    between atoms: C_8  and  C_9
REMARK    4  A    between atoms: C_8  and  C_10
REMARK    5  A    between atoms: N_12  and  C_13
REMARK                            x       y       z     vdW  Elec       q    Type
REMARK                         _______ _______ _______ _____ _____    ______ ____
ROOT
ATOM      1  C   UNL     1       1.557   9.118  18.426  0.00  0.00    +0.000 C 
ATOM      2  O   UNL     1       1.985   9.207  17.277  0.00  0.00    +0.000 OA
ATOM      3  N   UNL     1       1.875   8.090  19.295  0.00  0.00    +0.000 N 
ATOM      4  H   UNL     1       1.149   7.793  19.933  0.00  0.00    +0.000 HD
ENDROOT
BRANCH   3   5
ATOM      5  C   UNL     1       2.653   6.993  18.893  0.00  0.00    +0.000 A 
ATOM      6  N   UNL     1       3.479   7.293  17.864  0.00  0.00    +0.000 NA
ATOM      7  C   UNL     1       4.333   6.330  17.471  0.00  0.00    +0.000 A 
ATOM      8  C   UNL     1       4.366   5.057  18.014  0.00  0.00    +0.000 A 
ATOM      9  C   UNL     1       3.442   4.724  19.009  0.00  0.00    +0.000 A 
ATOM     10  C   UNL     1       3.394   3.422  19.538  0.00  0.00    +0.000 A 
ATOM     11  C   UNL     1       2.439   3.069  20.491  0.00  0.00    +0.000 A 
ATOM     12  C   UNL     1       1.516   4.011  20.926  0.00  0.00    +0.000 A 
ATOM     13  C   UNL     1       1.563   5.313  20.423  0.00  0.00    +0.000 A 
ATOM     14  C   UNL     1       2.538   5.705  19.471  0.00  0.00    +0.000 A 
ENDBRANCH   3   5
BRANCH   1  20
ATOM     15  C   UNL     1       2.254  13.246  20.348  0.00  0.00    +0.000 C 
ATOM     16  O   UNL     1       2.412  13.611  21.511  0.00  0.00    +0.000 OA
ATOM     17  N   UNL     1       1.444  12.178  20.029  0.00  0.00    +0.000 N 
ATOM     18  C   UNL     1       0.598  11.549  21.018  0.00  0.00    +0.000 C 
ATOM     19  C   UNL     1       0.485  10.112  20.545  0.00  0.00    +0.000 C 
ATOM     20  C   UNL     1       0.621  10.194  19.003  0.00  0.00    +0.000 C 
ATOM     21  C   UNL     1      -0.771  10.085  18.362  0.00  0.00    +0.000 C 
ATOM     22  C   UNL     1       1.237  11.582  18.720  0.00  0.00    +0.000 C 
BRANCH  15  24
ATOM     23  C   UNL     1       2.185  15.240  18.805  0.00  0.00    +0.000 C 
ATOM     24  C   UNL     1       2.917  13.963  19.181  0.00  0.00    +0.000 C 
ENDBRANCH  15  24
ENDBRANCH   1  20
TORSDOF 3
ENDMDL
