MODEL 1
REMARK VINA RESULT:      -8.5      0.000      0.000
REMARK  Name = 
REMARK  11 active torsions:
REMARK  status: ('A' for Active; 'I' for Inactive)
REMARK    1  A    between atoms: C_1  and  C_2
REMARK    2  A    between atoms: C_2  and  N_3
REMARK    3  A    between atoms: C_7  and  C_8
REMARK    4  A    between atoms: C_8  and  C_9
REMARK    5  A    between atoms: C_8  and  N_10
REMARK    6  A    between atoms: C_11  and  C_13
REMARK    7  A    between atoms: C_15  and  C_16
REMARK    8  A    between atoms: C_20  and  O_21
REMARK    9  A    between atoms: O_21  and  C_22
REMARK   10  A    between atoms: C_27  and  C_28
REMARK   11  A    between atoms: N_30  and  C_31
REMARK                            x       y       z     vdW  Elec       q    Type
REMARK                         _______ _______ _______ _____ _____    ______ ____
ROOT
ATOM      1  C   UNL     1       2.928   6.740  18.191  0.00  0.00    +0.000 A 
ATOM      2  C   UNL     1       4.259   6.784  18.647  0.00  0.00    +0.000 A 
ATOM      3  C   UNL     1       4.844   5.596  18.668  0.00  0.00    +0.000 A 
ATOM      4  N   UNL     1       4.341   4.800  19.636  0.00  0.00    +0.000 NA
ATOM      5  C   UNL     1       3.000   4.870  19.640  0.00  0.00    +0.000 A 
ATOM      6  C   UNL     1       2.190   5.585  18.703  0.00  0.00    +0.000 A 
ATOM      7  C   UNL     1       1.571   4.303  18.308  0.00  0.00    +0.000 A 
ATOM      8  C   UNL     1       2.107   3.178  17.392  0.00  0.00    +0.000 C 
ATOM      9  N   UNL     1       1.052   3.782  19.458  0.00  0.00    +0.000 NA
ATOM     10  N   UNL     1       2.062   4.083  20.301  0.00  0.00    +0.000 N 
ATOM     11  C   UNL     1       2.170   3.483  21.597  0.00  0.00    +0.000 C 
ENDROOT
BRANCH   3  12
ATOM     12  C   UNL     1       5.245   4.987  17.350  0.00  0.00    +0.000 A 
ATOM     13  C   UNL     1       4.783   3.712  16.912  0.00  0.00    +0.000 A 
ATOM     14  C   UNL     1       5.264   3.123  15.740  0.00  0.00    +0.000 A 
ATOM     15  C   UNL     1       6.204   3.801  14.973  0.00  0.00    +0.000 A 
ATOM     16  C   UNL     1       6.658   5.057  15.378  0.00  0.00    +0.000 A 
ATOM     17  C   UNL     1       6.175   5.629  16.556  0.00  0.00    +0.000 A 
BRANCH  16  18
ATOM     18  O   UNL     1       7.590   5.651  14.569  0.00  0.00    +0.000 OA
ATOM     19  C   UNL     1       7.674   5.101  13.257  0.00  0.00    +0.000 C 
ENDBRANCH  16  18
ENDBRANCH   3  12
BRANCH   1  21
ATOM     20  N   UNL     1       1.750   8.659  19.221  0.00  0.00    +0.000 N 
ATOM     21  C   UNL     1       2.431   8.197  18.071  0.00  0.00    +0.000 C 
ATOM     22  O   UNL     1       2.591   8.859  17.051  0.00  0.00    +0.000 OA
ATOM     23  H   UNL     1       1.840   8.111  20.066  0.00  0.00    +0.000 HD
BRANCH  20  24
ATOM     24  C   UNL     1       0.917   9.850  19.426  0.00  0.00    +0.000 C 
ATOM     25  C   UNL     1      -0.357   9.856  18.578  0.00  0.00    +0.000 C 
BRANCH  24  30
ATOM     26  N   UNL     1       0.236  11.065  21.607  0.00  0.00    +0.000 N 
ATOM     27  N   UNL     1      -0.245  10.854  22.850  0.00  0.00    +0.000 NA
ATOM     28  C   UNL     1      -0.361   9.531  22.935  0.00  0.00    +0.000 A 
ATOM     29  C   UNL     1       0.094   8.892  21.769  0.00  0.00    +0.000 A 
ATOM     30  C   UNL     1       0.487   9.905  20.897  0.00  0.00    +0.000 A 
BRANCH  26  32
ATOM     31  C   UNL     1      -0.932  12.970  20.562  0.00  0.00    +0.000 C 
ATOM     32  C   UNL     1       0.359  12.442  21.166  0.00  0.00    +0.000 C 
ENDBRANCH  26  32
ENDBRANCH  24  30
ENDBRANCH  20  24
ENDBRANCH   1  21
TORSDOF 6
ENDMDL
MODEL 2
REMARK VINA RESULT:      -8.5      0.931      1.177
REMARK  Name = 
REMARK  11 active torsions:
REMARK  status: ('A' for Active; 'I' for Inactive)
REMARK    1  A    between atoms: C_1  and  C_2
REMARK    2  A    between atoms: C_2  and  N_3
REMARK    3  A    between atoms: C_7  and  C_8
REMARK    4  A    between atoms: C_8  and  C_9
REMARK    5  A    between atoms: C_8  and  N_10
REMARK    6  A    between atoms: C_11  and  C_13
REMARK    7  A    between atoms: C_15  and  C_16
REMARK    8  A    between atoms: C_20  and  O_21
REMARK    9  A    between atoms: O_21  and  C_22
REMARK   10  A    between atoms: C_27  and  C_28
REMARK   11  A    between atoms: N_30  and  C_31
REMARK                            x       y       z     vdW  Elec       q    Type
REMARK                         _______ _______ _______ _____ _____    ______ ____
ROOT
ATOM      1  C   UNL     1       2.779   6.683  18.328  0.00  0.00    +0.000 A 
ATOM      2  C   UNL     1       3.847   6.757  19.243  0.00  0.00    +0.000 A 
ATOM      3  C   UNL     1       4.489   5.609  19.388  0.00  0.00    +0.000 A 
ATOM      4  N   UNL     1       3.747   4.690  20.042  0.00  0.00    +0.000 NA
ATOM      5  C   UNL     1       2.493   4.682  19.558  0.00  0.00    +0.000 A 
ATOM      6  C   UNL     1       2.014   5.442  18.445  0.00  0.00    +0.000 A 
ATOM      7  C   UNL     1       1.698   4.174  17.756  0.00  0.00    +0.000 A 
ATOM      8  C   UNL     1       2.629   3.181  17.020  0.00  0.00    +0.000 C 
ATOM      9  N   UNL     1       0.850   3.509  18.593  0.00  0.00    +0.000 NA
ATOM     10  N   UNL     1       1.455   3.779  19.768  0.00  0.00    +0.000 N 
ATOM     11  C   UNL     1       1.143   3.057  20.964  0.00  0.00    +0.000 C 
ENDROOT
BRANCH   3  12
ATOM     12  C   UNL     1       5.392   5.161  18.268  0.00  0.00    +0.000 A 
ATOM     13  C   UNL     1       6.757   4.804  18.467  0.00  0.00    +0.000 A 
ATOM     14  C   UNL     1       7.600   4.506  17.393  0.00  0.00    +0.000 A 
ATOM     15  C   UNL     1       7.094   4.543  16.099  0.00  0.00    +0.000 A 
ATOM     16  C   UNL     1       5.755   4.877  15.885  0.00  0.00    +0.000 A 
ATOM     17  C   UNL     1       4.928   5.181  16.967  0.00  0.00    +0.000 A 
BRANCH  16  18
ATOM     18  O   UNL     1       5.341   4.898  14.580  0.00  0.00    +0.000 OA
ATOM     19  C   UNL     1       6.119   4.094  13.697  0.00  0.00    +0.000 C 
ENDBRANCH  16  18
ENDBRANCH   3  12
BRANCH   1  21
ATOM     20  N   UNL     1       1.664   8.660  19.318  0.00  0.00    +0.000 N 
ATOM     21  C   UNL     1       2.230   8.114  18.142  0.00  0.00    +0.000 C 
ATOM     22  O   UNL     1       2.258   8.690  17.058  0.00  0.00    +0.000 OA
ATOM     23  H   UNL     1       1.862   8.188  20.191  0.00  0.00    +0.000 HD
BRANCH  20  24
ATOM     24  C   UNL     1       0.824   9.847  19.515  0.00  0.00    +0.000 C 
ATOM     25  C   UNL     1      -0.458   9.831  18.679  0.00  0.00    +0.000 C 
BRANCH  24  30
ATOM     26  N   UNL     1       0.137  11.087  21.680  0.00  0.00    +0.000 N 
ATOM     27  N   UNL     1      -0.327  10.888  22.931  0.00  0.00    +0.000 NA
ATOM     28  C   UNL     1      -0.411   9.565  23.041  0.00  0.00    +0.000 A 
ATOM     29  C   UNL     1       0.046   8.914  21.883  0.00  0.00    +0.000 A 
ATOM     30  C   UNL     1       0.408   9.919  20.989  0.00  0.00    +0.000 A 
BRANCH  26  32
ATOM     31  C   UNL     1      -0.434  13.436  22.171  0.00  0.00    +0.000 C 
ATOM     32  C   UNL     1       0.225  12.457  21.212  0.00  0.00    +0.000 C 
ENDBRANCH  26  32
ENDBRANCH  24  30
ENDBRANCH  20  24
ENDBRANCH   1  21
TORSDOF 6
ENDMDL
MODEL 3
REMARK VINA RESULT:      -8.2      1.321      1.629
REMARK  Name = 
REMARK  11 active torsions:
REMARK  status: ('A' for Active; 'I' for Inactive)
REMARK    1  A    between atoms: C_1  and  C_2
REMARK    2  A    between atoms: C_2  and  N_3
REMARK    3  A    between atoms: C_7  and  C_8
REMARK    4  A    between atoms: C_8  and  C_9
REMARK    5  A    between atoms: C_8  and  N_10
REMARK    6  A    between atoms: C_11  and  C_13
REMARK    7  A    between atoms: C_15  and  C_16
REMARK    8  A    between atoms: C_20  and  O_21
REMARK    9  A    between atoms: O_21  and  C_22
REMARK   10  A    between atoms: C_27  and  C_28
REMARK   11  A    between atoms: N_30  and  C_31
REMARK                            x       y       z     vdW  Elec       q    Type
REMARK                         _______ _______ _______ _____ _____    ______ ____
ROOT
ATOM      1  C   UNL     1       2.539   6.873  18.367  0.00  0.00    +0.000 A 
ATOM      2  C   UNL     1       3.463   6.917  19.428  0.00  0.00    +0.000 A 
ATOM      3  C   UNL     1       4.161   5.800  19.559  0.00  0.00    +0.000 A 
ATOM      4  N   UNL     1       3.404   4.779  20.014  0.00  0.00    +0.000 NA
ATOM      5  C   UNL     1       2.232   4.746  19.357  0.00  0.00    +0.000 A 
ATOM      6  C   UNL     1       1.856   5.584  18.261  0.00  0.00    +0.000 A 
ATOM      7  C   UNL     1       1.729   4.375  17.422  0.00  0.00    +0.000 A 
ATOM      8  C   UNL     1       2.820   3.516  16.739  0.00  0.00    +0.000 C 
ATOM      9  N   UNL     1       0.824   3.581  18.065  0.00  0.00    +0.000 NA
ATOM     10  N   UNL     1       1.243   3.767  19.334  0.00  0.00    +0.000 N 
ATOM     11  C   UNL     1       0.823   2.912  20.403  0.00  0.00    +0.000 C 
ENDROOT
BRANCH   3  12
ATOM     12  C   UNL     1       5.238   5.520  18.543  0.00  0.00    +0.000 A 
ATOM     13  C   UNL     1       5.587   4.204  18.125  0.00  0.00    +0.000 A 
ATOM     14  C   UNL     1       6.668   3.970  17.270  0.00  0.00    +0.000 A 
ATOM     15  C   UNL     1       7.413   5.046  16.803  0.00  0.00    +0.000 A 
ATOM     16  C   UNL     1       7.077   6.345  17.190  0.00  0.00    +0.000 A 
ATOM     17  C   UNL     1       6.000   6.562  18.052  0.00  0.00    +0.000 A 
BRANCH  16  18
ATOM     18  O   UNL     1       7.867   7.346  16.692  0.00  0.00    +0.000 OA
ATOM     19  C   UNL     1       8.018   8.470  17.556  0.00  0.00    +0.000 C 
ENDBRANCH  16  18
ENDBRANCH   3  12
BRANCH   1  21
ATOM     20  N   UNL     1       1.443   8.806  19.461  0.00  0.00    +0.000 N 
ATOM     21  C   UNL     1       1.918   8.281  18.236  0.00  0.00    +0.000 C 
ATOM     22  O   UNL     1       1.824   8.855  17.156  0.00  0.00    +0.000 OA
ATOM     23  H   UNL     1       1.738   8.344  20.310  0.00  0.00    +0.000 HD
BRANCH  20  24
ATOM     24  C   UNL     1       0.577   9.959  19.736  0.00  0.00    +0.000 C 
ATOM     25  C   UNL     1      -0.750   9.920  18.974  0.00  0.00    +0.000 C 
BRANCH  24  30
ATOM     26  N   UNL     1      -0.132  11.106  21.944  0.00  0.00    +0.000 N 
ATOM     27  N   UNL     1      -0.489  10.852  23.220  0.00  0.00    +0.000 NA
ATOM     28  C   UNL     1      -0.395   9.530  23.329  0.00  0.00    +0.000 A 
ATOM     29  C   UNL     1       0.072   8.940  22.142  0.00  0.00    +0.000 A 
ATOM     30  C   UNL     1       0.245   9.981  21.232  0.00  0.00    +0.000 A 
BRANCH  26  32
ATOM     31  C   UNL     1      -0.797  13.403  22.552  0.00  0.00    +0.000 C 
ATOM     32  C   UNL     1      -0.250  12.475  21.479  0.00  0.00    +0.000 C 
ENDBRANCH  26  32
ENDBRANCH  24  30
ENDBRANCH  20  24
ENDBRANCH   1  21
TORSDOF 6
ENDMDL
MODEL 4
REMARK VINA RESULT:      -8.2      2.123      4.251
REMARK  Name = 
REMARK  11 active torsions:
REMARK  status: ('A' for Active; 'I' for Inactive)
REMARK    1  A    between atoms: C_1  and  C_2
REMARK    2  A    between atoms: C_2  and  N_3
REMARK    3  A    between atoms: C_7  and  C_8
REMARK    4  A    between atoms: C_8  and  C_9
REMARK    5  A    between atoms: C_8  and  N_10
REMARK    6  A    between atoms: C_11  and  C_13
REMARK    7  A    between atoms: C_15  and  C_16
REMARK    8  A    between atoms: C_20  and  O_21
REMARK    9  A    between atoms: O_21  and  C_22
REMARK   10  A    between atoms: C_27  and  C_28
REMARK   11  A    between atoms: N_30  and  C_31
REMARK                            x       y       z     vdW  Elec       q    Type
REMARK                         _______ _______ _______ _____ _____    ______ ____
ROOT
ATOM      1  C   UNL     1       3.025   6.852  18.130  0.00  0.00    +0.000 A 
ATOM      2  C   UNL     1       2.043   5.975  17.633  0.00  0.00    +0.000 A 
ATOM      3  C   UNL     1       2.376   4.699  17.749  0.00  0.00    +0.000 A 
ATOM      4  N   UNL     1       3.374   4.356  16.908  0.00  0.00    +0.000 NA
ATOM      5  C   UNL     1       4.340   5.289  16.935  0.00  0.00    +0.000 A 
ATOM      6  C   UNL     1       4.385   6.432  17.795  0.00  0.00    +0.000 A 
ATOM      7  C   UNL     1       5.641   5.908  18.370  0.00  0.00    +0.000 A 
ATOM      8  C   UNL     1       5.869   4.784  19.409  0.00  0.00    +0.000 C 
ATOM      9  N   UNL     1       6.494   5.767  17.313  0.00  0.00    +0.000 NA
ATOM     10  N   UNL     1       5.629   5.263  16.409  0.00  0.00    +0.000 N 
ATOM     11  C   UNL     1       6.076   4.641  15.199  0.00  0.00    +0.000 C 
ENDROOT
BRANCH   3  12
ATOM     12  C   UNL     1       2.327   4.082  19.123  0.00  0.00    +0.000 A 
ATOM     13  C   UNL     1       1.353   4.438  20.099  0.00  0.00    +0.000 A 
ATOM     14  C   UNL     1       1.405   3.935  21.402  0.00  0.00    +0.000 A 
ATOM     15  C   UNL     1       2.422   3.054  21.753  0.00  0.00    +0.000 A 
ATOM     16  C   UNL     1       3.377   2.682  20.806  0.00  0.00    +0.000 A 
ATOM     17  C   UNL     1       3.317   3.200  19.510  0.00  0.00    +0.000 A 
BRANCH  16  18
ATOM     18  O   UNL     1       4.348   1.818  21.236  0.00  0.00    +0.000 OA
ATOM     19  C   UNL     1       5.012   1.105  20.196  0.00  0.00    +0.000 C 
ENDBRANCH  16  18
ENDBRANCH   3  12
BRANCH   1  21
ATOM     20  N   UNL     1       1.775   8.665  19.261  0.00  0.00    +0.000 N 
ATOM     21  C   UNL     1       2.441   8.280  18.074  0.00  0.00    +0.000 C 
ATOM     22  O   UNL     1       2.526   8.983  17.072  0.00  0.00    +0.000 OA
ATOM     23  H   UNL     1       1.926   8.097  20.084  0.00  0.00    +0.000 HD
BRANCH  20  24
ATOM     24  C   UNL     1       0.882   9.798  19.533  0.00  0.00    +0.000 C 
ATOM     25  C   UNL     1      -0.428   9.744  18.743  0.00  0.00    +0.000 C 
BRANCH  24  30
ATOM     26  N   UNL     1       0.166  10.911  21.757  0.00  0.00    +0.000 N 
ATOM     27  N   UNL     1      -0.229  10.637  23.018  0.00  0.00    +0.000 NA
ATOM     28  C   UNL     1      -0.187   9.310  23.092  0.00  0.00    +0.000 A 
ATOM     29  C   UNL     1       0.285   8.735  21.900  0.00  0.00    +0.000 A 
ATOM     30  C   UNL     1       0.517   9.792  21.023  0.00  0.00    +0.000 A 
BRANCH  26  32
ATOM     31  C   UNL     1      -0.613  13.181  22.330  0.00  0.00    +0.000 C 
ATOM     32  C   UNL     1       0.110  12.296  21.327  0.00  0.00    +0.000 C 
ENDBRANCH  26  32
ENDBRANCH  24  30
ENDBRANCH  20  24
ENDBRANCH   1  21
TORSDOF 6
ENDMDL
MODEL 5
REMARK VINA RESULT:      -7.9      1.677      2.313
REMARK  Name = 
REMARK  11 active torsions:
REMARK  status: ('A' for Active; 'I' for Inactive)
REMARK    1  A    between atoms: C_1  and  C_2
REMARK    2  A    between atoms: C_2  and  N_3
REMARK    3  A    between atoms: C_7  and  C_8
REMARK    4  A    between atoms: C_8  and  C_9
REMARK    5  A    between atoms: C_8  and  N_10
REMARK    6  A    between atoms: C_11  and  C_13
REMARK    7  A    between atoms: C_15  and  C_16
REMARK    8  A    between atoms: C_20  and  O_21
REMARK    9  A    between atoms: O_21  and  C_22
REMARK   10  A    between atoms: C_27  and  C_28
REMARK   11  A    between atoms: N_30  and  C_31
REMARK                            x       y       z     vdW  Elec       q    Type
REMARK                         _______ _______ _______ _____ _____    ______ ____
ROOT
ATOM      1  C   UNL     1       2.444   6.472  19.293  0.00  0.00    +0.000 A 
ATOM      2  C   UNL     1       3.781   6.498  19.732  0.00  0.00    +0.000 A 
ATOM      3  C   UNL     1       4.514   5.515  19.232  0.00  0.00    +0.000 A 
ATOM      4  N   UNL     1       4.172   4.315  19.746  0.00  0.00    +0.000 NA
ATOM      5  C   UNL     1       2.835   4.188  19.771  0.00  0.00    +0.000 A 
ATOM      6  C   UNL     1       1.889   5.120  19.238  0.00  0.00    +0.000 A 
ATOM      7  C   UNL     1       1.420   4.067  18.315  0.00  0.00    +0.000 A 
ATOM      8  C   UNL     1       2.045   3.542  17.001  0.00  0.00    +0.000 C 
ATOM      9  N   UNL     1       1.036   3.029  19.114  0.00  0.00    +0.000 NA
ATOM     10  N   UNL     1       2.043   3.069  20.011  0.00  0.00    +0.000 N 
ATOM     11  C   UNL     1       2.298   1.985  20.911  0.00  0.00    +0.000 C 
ENDROOT
BRANCH   3  12
ATOM     12  C   UNL     1       4.917   5.606  17.783  0.00  0.00    +0.000 A 
ATOM     13  C   UNL     1       4.728   6.778  16.996  0.00  0.00    +0.000 A 
ATOM     14  C   UNL     1       5.004   6.793  15.626  0.00  0.00    +0.000 A 
ATOM     15  C   UNL     1       5.490   5.643  15.017  0.00  0.00    +0.000 A 
ATOM     16  C   UNL     1       5.696   4.488  15.774  0.00  0.00    +0.000 A 
ATOM     17  C   UNL     1       5.407   4.485  17.139  0.00  0.00    +0.000 A 
BRANCH  16  18
ATOM     18  O   UNL     1       6.168   3.398  15.093  0.00  0.00    +0.000 OA
ATOM     19  C   UNL     1       6.305   3.589  13.687  0.00  0.00    +0.000 C 
ENDBRANCH  16  18
ENDBRANCH   3  12
BRANCH   1  21
ATOM     20  N   UNL     1       1.694   8.794  18.870  0.00  0.00    +0.000 N 
ATOM     21  C   UNL     1       1.759   7.750  19.823  0.00  0.00    +0.000 C 
ATOM     22  O   UNL     1       1.350   7.843  20.976  0.00  0.00    +0.000 OA
ATOM     23  H   UNL     1       1.881   8.555  17.905  0.00  0.00    +0.000 HD
BRANCH  20  24
ATOM     24  C   UNL     1       1.371  10.217  19.030  0.00  0.00    +0.000 C 
ATOM     25  C   UNL     1       2.105  11.123  18.038  0.00  0.00    +0.000 C 
BRANCH  24  30
ATOM     26  N   UNL     1      -0.953  11.223  19.562  0.00  0.00    +0.000 N 
ATOM     27  N   UNL     1      -2.214  11.325  19.092  0.00  0.00    +0.000 NA
ATOM     28  C   UNL     1      -2.203  10.608  17.972  0.00  0.00    +0.000 A 
ATOM     29  C   UNL     1      -0.953  10.005  17.750  0.00  0.00    +0.000 A 
ATOM     30  C   UNL     1      -0.133  10.411  18.800  0.00  0.00    +0.000 A 
BRANCH  26  32
ATOM     31  C   UNL     1      -0.904  11.267  22.029  0.00  0.00    +0.000 C 
ATOM     32  C   UNL     1      -0.613  12.009  20.734  0.00  0.00    +0.000 C 
ENDBRANCH  26  32
ENDBRANCH  24  30
ENDBRANCH  20  24
ENDBRANCH   1  21
TORSDOF 6
ENDMDL
MODEL 6
REMARK VINA RESULT:      -7.8      2.400      4.669
REMARK  Name = 
REMARK  11 active torsions:
REMARK  status: ('A' for Active; 'I' for Inactive)
REMARK    1  A    between atoms: C_1  and  C_2
REMARK    2  A    between atoms: C_2  and  N_3
REMARK    3  A    between atoms: C_7  and  C_8
REMARK    4  A    between atoms: C_8  and  C_9
REMARK    5  A    between atoms: C_8  and  N_10
REMARK    6  A    between atoms: C_11  and  C_13
REMARK    7  A    between atoms: C_15  and  C_16
REMARK    8  A    between atoms: C_20  and  O_21
REMARK    9  A    between atoms: O_21  and  C_22
REMARK   10  A    between atoms: C_27  and  C_28
REMARK   11  A    between atoms: N_30  and  C_31
REMARK                            x       y       z     vdW  Elec       q    Type
REMARK                         _______ _______ _______ _____ _____    ______ ____
ROOT
ATOM      1  C   UNL     1       2.893   6.600  18.387  0.00  0.00    +0.000 A 
ATOM      2  C   UNL     1       2.053   5.608  17.845  0.00  0.00    +0.000 A 
ATOM      3  C   UNL     1       2.633   4.421  17.760  0.00  0.00    +0.000 A 
ATOM      4  N   UNL     1       3.593   4.392  16.811  0.00  0.00    +0.000 NA
ATOM      5  C   UNL     1       4.360   5.491  16.898  0.00  0.00    +0.000 A 
ATOM      6  C   UNL     1       4.269   6.507  17.901  0.00  0.00    +0.000 A 
ATOM      7  C   UNL     1       5.652   6.182  18.308  0.00  0.00    +0.000 A 
ATOM      8  C   UNL     1       6.190   5.010  19.163  0.00  0.00    +0.000 C 
ATOM      9  N   UNL     1       6.409   6.346  17.184  0.00  0.00    +0.000 NA
ATOM     10  N   UNL     1       5.573   5.791  16.283  0.00  0.00    +0.000 N 
ATOM     11  C   UNL     1       6.011   5.423  14.970  0.00  0.00    +0.000 C 
ENDROOT
BRANCH   3  12
ATOM     12  C   UNL     1       2.837   3.646  19.035  0.00  0.00    +0.000 A 
ATOM     13  C   UNL     1       2.024   3.825  20.192  0.00  0.00    +0.000 A 
ATOM     14  C   UNL     1       2.311   3.177  21.396  0.00  0.00    +0.000 A 
ATOM     15  C   UNL     1       3.406   2.324  21.467  0.00  0.00    +0.000 A 
ATOM     16  C   UNL     1       4.206   2.124  20.340  0.00  0.00    +0.000 A 
ATOM     17  C   UNL     1       3.912   2.785  19.147  0.00  0.00    +0.000 A 
BRANCH  16  18
ATOM     18  O   UNL     1       5.268   1.274  20.499  0.00  0.00    +0.000 OA
ATOM     19  C   UNL     1       5.491   0.846  21.840  0.00  0.00    +0.000 C 
ENDBRANCH  16  18
ENDBRANCH   3  12
BRANCH   1  21
ATOM     20  N   UNL     1       1.721   8.151  19.921  0.00  0.00    +0.000 N 
ATOM     21  C   UNL     1       2.044   7.876  18.571  0.00  0.00    +0.000 C 
ATOM     22  O   UNL     1       1.665   8.551  17.619  0.00  0.00    +0.000 OA
ATOM     23  H   UNL     1       2.236   7.650  20.633  0.00  0.00    +0.000 HD
BRANCH  20  24
ATOM     24  C   UNL     1       0.749   9.085  20.501  0.00  0.00    +0.000 C 
ATOM     25  C   UNL     1       1.018   9.408  21.973  0.00  0.00    +0.000 C 
BRANCH  24  30
ATOM     26  N   UNL     1      -0.228  10.931  18.973  0.00  0.00    +0.000 N 
ATOM     27  N   UNL     1       0.021  12.162  18.481  0.00  0.00    +0.000 NA
ATOM     28  C   UNL     1       1.222  12.470  18.965  0.00  0.00    +0.000 A 
ATOM     29  C   UNL     1       1.765  11.418  19.722  0.00  0.00    +0.000 A 
ATOM     30  C   UNL     1       0.808  10.406  19.724  0.00  0.00    +0.000 A 
BRANCH  26  32
ATOM     31  C   UNL     1      -1.690   9.904  17.271  0.00  0.00    +0.000 C 
ATOM     32  C   UNL     1      -1.537  10.362  18.713  0.00  0.00    +0.000 C 
ENDBRANCH  26  32
ENDBRANCH  24  30
ENDBRANCH  20  24
ENDBRANCH   1  21
TORSDOF 6
ENDMDL
MODEL 7
REMARK VINA RESULT:      -7.6      1.620      2.502
REMARK  Name = 
REMARK  11 active torsions:
REMARK  status: ('A' for Active; 'I' for Inactive)
REMARK    1  A    between atoms: C_1  and  C_2
REMARK    2  A    between atoms: C_2  and  N_3
REMARK    3  A    between atoms: C_7  and  C_8
REMARK    4  A    between atoms: C_8  and  C_9
REMARK    5  A    between atoms: C_8  and  N_10
REMARK    6  A    between atoms: C_11  and  C_13
REMARK    7  A    between atoms: C_15  and  C_16
REMARK    8  A    between atoms: C_20  and  O_21
REMARK    9  A    between atoms: O_21  and  C_22
REMARK   10  A    between atoms: C_27  and  C_28
REMARK   11  A    between atoms: N_30  and  C_31
REMARK                            x       y       z     vdW  Elec       q    Type
REMARK                         _______ _______ _______ _____ _____    ______ ____
ROOT
ATOM      1  C   UNL     1       2.499   6.507  18.698  0.00  0.00    +0.000 A 
ATOM      2  C   UNL     1       3.580   6.517  19.600  0.00  0.00    +0.000 A 
ATOM      3  C   UNL     1       4.359   5.452  19.492  0.00  0.00    +0.000 A 
ATOM      4  N   UNL     1       3.753   4.332  19.939  0.00  0.00    +0.000 NA
ATOM      5  C   UNL     1       2.495   4.271  19.473  0.00  0.00    +0.000 A 
ATOM      6  C   UNL     1       1.892   5.185  18.551  0.00  0.00    +0.000 A 
ATOM      7  C   UNL     1       1.708   4.062  17.609  0.00  0.00    +0.000 A 
ATOM      8  C   UNL     1       2.725   3.370  16.672  0.00  0.00    +0.000 C 
ATOM      9  N   UNL     1       0.972   3.135  18.290  0.00  0.00    +0.000 NA
ATOM     10  N   UNL     1       1.580   3.223  19.491  0.00  0.00    +0.000 N 
ATOM     11  C   UNL     1       1.395   2.231  20.508  0.00  0.00    +0.000 C 
ENDROOT
BRANCH   3  12
ATOM     12  C   UNL     1       5.272   5.367  18.297  0.00  0.00    +0.000 A 
ATOM     13  C   UNL     1       5.396   4.195  17.497  0.00  0.00    +0.000 A 
ATOM     14  C   UNL     1       6.336   4.108  16.466  0.00  0.00    +0.000 A 
ATOM     15  C   UNL     1       7.161   5.195  16.203  0.00  0.00    +0.000 A 
ATOM     16  C   UNL     1       7.044   6.358  16.966  0.00  0.00    +0.000 A 
ATOM     17  C   UNL     1       6.107   6.427  17.999  0.00  0.00    +0.000 A 
BRANCH  16  18
ATOM     18  O   UNL     1       7.901   7.377  16.646  0.00  0.00    +0.000 OA
ATOM     19  C   UNL     1       7.946   8.436  17.600  0.00  0.00    +0.000 C 
ENDBRANCH  16  18
ENDBRANCH   3  12
BRANCH   1  21
ATOM     20  N   UNL     1       1.425   8.196  20.156  0.00  0.00    +0.000 N 
ATOM     21  C   UNL     1       1.777   7.866  18.826  0.00  0.00    +0.000 C 
ATOM     22  O   UNL     1       1.511   8.560  17.849  0.00  0.00    +0.000 OA
ATOM     23  H   UNL     1       1.853   7.657  20.897  0.00  0.00    +0.000 HD
BRANCH  20  24
ATOM     24  C   UNL     1       0.527   9.233  20.679  0.00  0.00    +0.000 C 
ATOM     25  C   UNL     1       0.860   9.660  22.111  0.00  0.00    +0.000 C 
BRANCH  24  30
ATOM     26  N   UNL     1      -0.330  10.915  18.910  0.00  0.00    +0.000 N 
ATOM     27  N   UNL     1      -0.050  12.101  18.330  0.00  0.00    +0.000 NA
ATOM     28  C   UNL     1       1.101  12.471  18.884  0.00  0.00    +0.000 A 
ATOM     29  C   UNL     1       1.586  11.502  19.778  0.00  0.00    +0.000 A 
ATOM     30  C   UNL     1       0.642  10.478  19.792  0.00  0.00    +0.000 A 
BRANCH  26  32
ATOM     31  C   UNL     1      -1.786  10.085  17.099  0.00  0.00    +0.000 C 
ATOM     32  C   UNL     1      -1.607  10.303  18.593  0.00  0.00    +0.000 C 
ENDBRANCH  26  32
ENDBRANCH  24  30
ENDBRANCH  20  24
ENDBRANCH   1  21
TORSDOF 6
ENDMDL
MODEL 8
REMARK VINA RESULT:      -7.6      5.718      8.886
REMARK  Name = 
REMARK  11 active torsions:
REMARK  status: ('A' for Active; 'I' for Inactive)
REMARK    1  A    between atoms: C_1  and  C_2
REMARK    2  A    between atoms: C_2  and  N_3
REMARK    3  A    between atoms: C_7  and  C_8
REMARK    4  A    between atoms: C_8  and  C_9
REMARK    5  A    between atoms: C_8  and  N_10
REMARK    6  A    between atoms: C_11  and  C_13
REMARK    7  A    between atoms: C_15  and  C_16
REMARK    8  A    between atoms: C_20  and  O_21
REMARK    9  A    between atoms: O_21  and  C_22
REMARK   10  A    between atoms: C_27  and  C_28
REMARK   11  A    between atoms: N_30  and  C_31
REMARK                            x       y       z     vdW  Elec       q    Type
REMARK                         _______ _______ _______ _____ _____    ______ ____
ROOT
ATOM      1  C   UNL     1      -1.736  11.604  19.060  0.00  0.00    +0.000 A 
ATOM      2  C   UNL     1      -1.899  12.300  20.272  0.00  0.00    +0.000 A 
ATOM      3  C   UNL     1      -0.751  12.653  20.829  0.00  0.00    +0.000 A 
ATOM      4  N   UNL     1      -0.074  11.591  21.314  0.00  0.00    +0.000 NA
ATOM      5  C   UNL     1      -0.087  10.589  20.419  0.00  0.00    +0.000 A 
ATOM      6  C   UNL     1      -0.633  10.645  19.098  0.00  0.00    +0.000 A 
ATOM      7  C   UNL     1       0.716  10.366  18.564  0.00  0.00    +0.000 A 
ATOM      8  C   UNL     1       1.933  11.306  18.390  0.00  0.00    +0.000 C 
ATOM      9  N   UNL     1       1.097   9.187  19.137  0.00  0.00    +0.000 NA
ATOM     10  N   UNL     1       0.641   9.403  20.388  0.00  0.00    +0.000 N 
ATOM     11  C   UNL     1       1.053   8.591  21.494  0.00  0.00    +0.000 C 
ENDROOT
BRANCH   3  12
ATOM     12  C   UNL     1       0.016  13.788  20.202  0.00  0.00    +0.000 A 
ATOM     13  C   UNL     1       1.384  14.056  20.494  0.00  0.00    +0.000 A 
ATOM     14  C   UNL     1       2.034  15.184  19.986  0.00  0.00    +0.000 A 
ATOM     15  C   UNL     1       1.336  16.060  19.164  0.00  0.00    +0.000 A 
ATOM     16  C   UNL     1      -0.001  15.807  18.854  0.00  0.00    +0.000 A 
ATOM     17  C   UNL     1      -0.640  14.681  19.376  0.00  0.00    +0.000 A 
BRANCH  16  18
ATOM     18  O   UNL     1      -0.617  16.725  18.045  0.00  0.00    +0.000 OA
ATOM     19  C   UNL     1       0.029  17.995  17.989  0.00  0.00    +0.000 C 
ENDBRANCH  16  18
ENDBRANCH   3  12
BRANCH   1  21
ATOM     20  N   UNL     1      -4.020  12.483  18.682  0.00  0.00    +0.000 N 
ATOM     21  C   UNL     1      -3.141  11.398  18.452  0.00  0.00    +0.000 C 
ATOM     22  O   UNL     1      -3.454  10.369  17.863  0.00  0.00    +0.000 OA
ATOM     23  H   UNL     1      -3.613  13.351  19.004  0.00  0.00    +0.000 HD
BRANCH  20  24
ATOM     24  C   UNL     1      -5.475  12.588  18.511  0.00  0.00    +0.000 C 
ATOM     25  C   UNL     1      -5.936  12.368  17.068  0.00  0.00    +0.000 C 
BRANCH  24  30
ATOM     26  N   UNL     1      -6.521  11.684  20.698  0.00  0.00    +0.000 N 
ATOM     27  N   UNL     1      -7.209  10.642  21.210  0.00  0.00    +0.000 NA
ATOM     28  C   UNL     1      -7.338   9.802  20.187  0.00  0.00    +0.000 A 
ATOM     29  C   UNL     1      -6.690  10.278  19.035  0.00  0.00    +0.000 A 
ATOM     30  C   UNL     1      -6.152  11.518  19.375  0.00  0.00    +0.000 A 
BRANCH  26  32
ATOM     31  C   UNL     1      -4.969  12.812  22.249  0.00  0.00    +0.000 C 
ATOM     32  C   UNL     1      -6.322  12.837  21.556  0.00  0.00    +0.000 C 
ENDBRANCH  26  32
ENDBRANCH  24  30
ENDBRANCH  20  24
ENDBRANCH   1  21
TORSDOF 6
ENDMDL
MODEL 9
REMARK VINA RESULT:      -7.4      5.943      8.910
REMARK  Name = 
REMARK  11 active torsions:
REMARK  status: ('A' for Active; 'I' for Inactive)
REMARK    1  A    between atoms: C_1  and  C_2
REMARK    2  A    between atoms: C_2  and  N_3
REMARK    3  A    between atoms: C_7  and  C_8
REMARK    4  A    between atoms: C_8  and  C_9
REMARK    5  A    between atoms: C_8  and  N_10
REMARK    6  A    between atoms: C_11  and  C_13
REMARK    7  A    between atoms: C_15  and  C_16
REMARK    8  A    between atoms: C_20  and  O_21
REMARK    9  A    between atoms: O_21  and  C_22
REMARK   10  A    between atoms: C_27  and  C_28
REMARK   11  A    between atoms: N_30  and  C_31
REMARK                            x       y       z     vdW  Elec       q    Type
REMARK                         _______ _______ _______ _____ _____    ______ ____
ROOT
ATOM      1  C   UNL     1      -1.928  11.846  19.175  0.00  0.00    +0.000 A 
ATOM      2  C   UNL     1      -2.147  12.490  20.408  0.00  0.00    +0.000 A 
ATOM      3  C   UNL     1      -1.027  12.830  21.026  0.00  0.00    +0.000 A 
ATOM      4  N   UNL     1      -0.359  11.754  21.494  0.00  0.00    +0.000 NA
ATOM      5  C   UNL     1      -0.324  10.791  20.559  0.00  0.00    +0.000 A 
ATOM      6  C   UNL     1      -0.816  10.897  19.220  0.00  0.00    +0.000 A 
ATOM      7  C   UNL     1       0.557  10.654  18.731  0.00  0.00    +0.000 A 
ATOM      8  C   UNL     1       1.769  11.612  18.646  0.00  0.00    +0.000 C 
ATOM      9  N   UNL     1       0.927   9.455  19.270  0.00  0.00    +0.000 NA
ATOM     10  N   UNL     1       0.418   9.614  20.509  0.00  0.00    +0.000 N 
ATOM     11  C   UNL     1       0.793   8.761  21.596  0.00  0.00    +0.000 C 
ENDROOT
BRANCH   3  12
ATOM     12  C   UNL     1      -0.248  13.997  20.478  0.00  0.00    +0.000 A 
ATOM     13  C   UNL     1      -0.720  14.812  19.409  0.00  0.00    +0.000 A 
ATOM     14  C   UNL     1       0.075  15.814  18.846  0.00  0.00    +0.000 A 
ATOM     15  C   UNL     1       1.352  16.033  19.349  0.00  0.00    +0.000 A 
ATOM     16  C   UNL     1       1.826  15.256  20.407  0.00  0.00    +0.000 A 
ATOM     17  C   UNL     1       1.024  14.253  20.953  0.00  0.00    +0.000 A 
BRANCH  16  18
ATOM     18  O   UNL     1       3.097  15.533  20.836  0.00  0.00    +0.000 OA
ATOM     19  C   UNL     1       3.733  16.609  20.152  0.00  0.00    +0.000 C 
ENDBRANCH  16  18
ENDBRANCH   3  12
BRANCH   1  21
ATOM     20  N   UNL     1      -4.264  12.616  18.892  0.00  0.00    +0.000 N 
ATOM     21  C   UNL     1      -3.304  11.653  18.502  0.00  0.00    +0.000 C 
ATOM     22  O   UNL     1      -3.531  10.724  17.734  0.00  0.00    +0.000 OA
ATOM     23  H   UNL     1      -3.927  13.440  19.372  0.00  0.00    +0.000 HD
BRANCH  20  24
ATOM     24  C   UNL     1      -5.719  12.648  18.701  0.00  0.00    +0.000 C 
ATOM     25  C   UNL     1      -6.146  12.477  17.242  0.00  0.00    +0.000 C 
BRANCH  24  30
ATOM     26  N   UNL     1      -6.821  11.599  20.795  0.00  0.00    +0.000 N 
ATOM     27  N   UNL     1      -7.438  10.485  21.240  0.00  0.00    +0.000 NA
ATOM     28  C   UNL     1      -7.414   9.659  20.198  0.00  0.00    +0.000 A 
ATOM     29  C   UNL     1      -6.737  10.221  19.102  0.00  0.00    +0.000 A 
ATOM     30  C   UNL     1      -6.347  11.498  19.499  0.00  0.00    +0.000 A 
BRANCH  26  32
ATOM     31  C   UNL     1      -5.429  12.951  22.318  0.00  0.00    +0.000 C 
ATOM     32  C   UNL     1      -6.795  12.747  21.682  0.00  0.00    +0.000 C 
ENDBRANCH  26  32
ENDBRANCH  24  30
ENDBRANCH  20  24
ENDBRANCH   1  21
TORSDOF 6
ENDMDL
