MODEL 1
REMARK VINA RESULT:      -7.9      0.000      0.000
REMARK  Name = 
REMARK  16 active torsions:
REMARK  status: ('A' for Active; 'I' for Inactive)
REMARK    1  A    between atoms: C_1  and  O_2
REMARK    2  A    between atoms: O_2  and  N_3
REMARK    3  A    between atoms: C_4  and  C_6
REMARK    4  A    between atoms: C_6  and  C_8
REMARK    5  A    between atoms: C_8  and  C_9
REMARK    6  A    between atoms: C_8  and  N_16
REMARK    7  A    between atoms: C_9  and  C_10
REMARK    8  A    between atoms: C_17  and  C_19
REMARK    9  A    between atoms: C_19  and  C_20
REMARK   10  A    between atoms: C_19  and  N_24
REMARK   11  A    between atoms: C_20  and  C_21
REMARK   12  A    between atoms: C_21  and  C_22
REMARK   13  A    between atoms: C_21  and  C_23
REMARK   14  A    between atoms: C_25  and  O_27
REMARK   15  A    between atoms: O_27  and  C_28
REMARK   16  A    between atoms: C_28  and  C_29
REMARK                            x       y       z     vdW  Elec       q    Type
REMARK                         _______ _______ _______ _____ _____    ______ ____
ROOT
ATOM      1  N   UNL     1       4.924   5.316  17.882  0.00  0.00    +0.000 N 
ATOM      2  C   UNL     1       3.644   4.810  17.922  0.00  0.00    +0.000 C 
ATOM      3  O   UNL     1       3.274   3.977  17.094  0.00  0.00    +0.000 OA
ATOM      4  H   UNL     1       5.280   5.810  18.701  0.00  0.00    +0.000 HD
ENDROOT
BRANCH   1   5
ATOM      5  C   UNL     1       5.850   4.859  16.834  0.00  0.00    +0.000 C 
BRANCH   5   6
ATOM      6  C   UNL     1       7.286   4.851  17.357  0.00  0.00    +0.000 C 
ATOM      7  O   UNL     1       8.154   4.039  17.040  0.00  0.00    +0.000 OA
BRANCH   6   9
ATOM      8  N   UNL     1       8.197   7.021  17.913  0.00  0.00    +0.000 N 
ATOM      9  C   UNL     1       7.608   5.890  18.432  0.00  0.00    +0.000 C 
ATOM     10  O   UNL     1       7.376   5.654  19.607  0.00  0.00    +0.000 OA
ATOM     11  H   UNL     1       8.068   7.228  16.926  0.00  0.00    +0.000 HD
BRANCH   8  13
ATOM     12  C   UNL     1       8.269   9.316  18.005  0.00  0.00    +0.000 C 
ATOM     13  O   UNL     1       8.294   8.125  18.791  0.00  0.00    +0.000 OA
ENDBRANCH   8  13
ENDBRANCH   6   9
ENDBRANCH   5   6
BRANCH   5  14
ATOM     14  C   UNL     1       5.793   5.729  15.567  0.00  0.00    +0.000 C 
BRANCH  14  15
ATOM     15  C   UNL     1       6.153   4.972  14.310  0.00  0.00    +0.000 A 
ATOM     16  C   UNL     1       7.352   5.238  13.639  0.00  0.00    +0.000 A 
ATOM     17  C   UNL     1       7.666   4.564  12.458  0.00  0.00    +0.000 A 
ATOM     18  C   UNL     1       6.788   3.613  11.941  0.00  0.00    +0.000 A 
ATOM     19  C   UNL     1       5.604   3.322  12.613  0.00  0.00    +0.000 A 
ATOM     20  C   UNL     1       5.292   3.990  13.798  0.00  0.00    +0.000 A 
ENDBRANCH  14  15
ENDBRANCH   5  14
ENDBRANCH   1   5
BRANCH   2  21
ATOM     21  C   UNL     1       2.765   5.237  19.129  0.00  0.00    +0.000 C 
BRANCH  21  22
ATOM     22  N   UNL     1       2.593   6.689  19.183  0.00  0.00    +0.000 N 
ATOM     23  C   UNL     1       1.911   7.324  20.181  0.00  0.00    +0.000 C 
ATOM     24  O   UNL     1       1.434   6.749  21.153  0.00  0.00    +0.000 OA
ATOM     25  H   UNL     1       3.005   7.278  18.472  0.00  0.00    +0.000 HD
BRANCH  23  26
ATOM     26  O   UNL     1       1.797   8.647  19.905  0.00  0.00    +0.000 OA
BRANCH  26  27
ATOM     27  C   UNL     1       1.429   8.969  18.551  0.00  0.00    +0.000 C 
BRANCH  27  28
ATOM     28  C   UNL     1       0.596  10.224  18.431  0.00  0.00    +0.000 A 
ATOM     29  C   UNL     1      -0.763  10.161  18.097  0.00  0.00    +0.000 A 
ATOM     30  C   UNL     1      -1.543  11.323  18.067  0.00  0.00    +0.000 A 
ATOM     31  C   UNL     1      -0.972  12.560  18.370  0.00  0.00    +0.000 A 
ATOM     32  C   UNL     1       0.376  12.633  18.710  0.00  0.00    +0.000 A 
ATOM     33  C   UNL     1       1.155  11.474  18.741  0.00  0.00    +0.000 A 
ENDBRANCH  27  28
ENDBRANCH  26  27
ENDBRANCH  23  26
ENDBRANCH  21  22
BRANCH  21  34
ATOM     34  C   UNL     1       1.414   4.486  19.052  0.00  0.00    +0.000 C 
BRANCH  34  35
ATOM     35  C   UNL     1       1.200   3.323  20.040  0.00  0.00    +0.000 C 
ATOM     36  C   UNL     1       1.455   1.978  19.340  0.00  0.00    +0.000 C 
ATOM     37  C   UNL     1       2.107   3.419  21.265  0.00  0.00    +0.000 C 
ENDBRANCH  34  35
ENDBRANCH  21  34
ENDBRANCH   2  21
TORSDOF 13
ENDMDL
MODEL 2
REMARK VINA RESULT:      -7.7      3.296      8.608
REMARK  Name = 
REMARK  16 active torsions:
REMARK  status: ('A' for Active; 'I' for Inactive)
REMARK    1  A    between atoms: C_1  and  O_2
REMARK    2  A    between atoms: O_2  and  N_3
REMARK    3  A    between atoms: C_4  and  C_6
REMARK    4  A    between atoms: C_6  and  C_8
REMARK    5  A    between atoms: C_8  and  C_9
REMARK    6  A    between atoms: C_8  and  N_16
REMARK    7  A    between atoms: C_9  and  C_10
REMARK    8  A    between atoms: C_17  and  C_19
REMARK    9  A    between atoms: C_19  and  C_20
REMARK   10  A    between atoms: C_19  and  N_24
REMARK   11  A    between atoms: C_20  and  C_21
REMARK   12  A    between atoms: C_21  and  C_22
REMARK   13  A    between atoms: C_21  and  C_23
REMARK   14  A    between atoms: C_25  and  O_27
REMARK   15  A    between atoms: O_27  and  C_28
REMARK   16  A    between atoms: C_28  and  C_29
REMARK                            x       y       z     vdW  Elec       q    Type
REMARK                         _______ _______ _______ _____ _____    ______ ____
ROOT
ATOM      1  N   UNL     1       1.204   9.187  19.105  0.00  0.00    +0.000 N 
ATOM      2  C   UNL     1       2.047   8.540  18.231  0.00  0.00    +0.000 C 
ATOM      3  O   UNL     1       2.186   8.949  17.077  0.00  0.00    +0.000 OA
ATOM      4  H   UNL     1       1.285   8.985  20.102  0.00  0.00    +0.000 HD
ENDROOT
BRANCH   1   5
ATOM      5  C   UNL     1       0.459  10.371  18.650  0.00  0.00    +0.000 C 
BRANCH   5   6
ATOM      6  C   UNL     1       1.171  11.651  19.088  0.00  0.00    +0.000 C 
ATOM      7  O   UNL     1       1.931  12.317  18.386  0.00  0.00    +0.000 OA
BRANCH   6   9
ATOM      8  N   UNL     1       0.477  13.328  20.685  0.00  0.00    +0.000 N 
ATOM      9  C   UNL     1       0.977  12.053  20.550  0.00  0.00    +0.000 C 
ATOM     10  O   UNL     1       1.292  11.287  21.447  0.00  0.00    +0.000 OA
ATOM     11  H   UNL     1      -0.017  13.743  19.898  0.00  0.00    +0.000 HD
BRANCH   8  13
ATOM     12  C   UNL     1       0.502  15.002  22.260  0.00  0.00    +0.000 C 
ATOM     13  O   UNL     1       0.031  13.684  21.979  0.00  0.00    +0.000 OA
ENDBRANCH   8  13
ENDBRANCH   6   9
ENDBRANCH   5   6
BRANCH   5  14
ATOM     14  C   UNL     1      -0.985  10.406  19.179  0.00  0.00    +0.000 C 
BRANCH  14  15
ATOM     15  C   UNL     1      -2.015  10.546  18.082  0.00  0.00    +0.000 A 
ATOM     16  C   UNL     1      -1.861   9.861  16.871  0.00  0.00    +0.000 A 
ATOM     17  C   UNL     1      -2.795  10.019  15.846  0.00  0.00    +0.000 A 
ATOM     18  C   UNL     1      -3.893  10.858  16.024  0.00  0.00    +0.000 A 
ATOM     19  C   UNL     1      -4.070  11.525  17.233  0.00  0.00    +0.000 A 
ATOM     20  C   UNL     1      -3.142  11.362  18.262  0.00  0.00    +0.000 A 
ENDBRANCH  14  15
ENDBRANCH   5  14
ENDBRANCH   1   5
BRANCH   2  21
ATOM     21  C   UNL     1       2.899   7.380  18.814  0.00  0.00    +0.000 C 
BRANCH  21  22
ATOM     22  N   UNL     1       2.060   6.264  19.252  0.00  0.00    +0.000 N 
ATOM     23  C   UNL     1       1.502   6.191  20.496  0.00  0.00    +0.000 C 
ATOM     24  O   UNL     1       1.598   7.078  21.338  0.00  0.00    +0.000 OA
ATOM     25  H   UNL     1       1.850   5.504  18.618  0.00  0.00    +0.000 HD
BRANCH  23  26
ATOM     26  O   UNL     1       0.892   4.993  20.669  0.00  0.00    +0.000 OA
BRANCH  26  27
ATOM     27  C   UNL     1       1.736   3.930  21.144  0.00  0.00    +0.000 C 
BRANCH  27  28
ATOM     28  C   UNL     1       2.434   3.168  20.040  0.00  0.00    +0.000 A 
ATOM     29  C   UNL     1       3.699   2.600  20.241  0.00  0.00    +0.000 A 
ATOM     30  C   UNL     1       4.299   1.830  19.239  0.00  0.00    +0.000 A 
ATOM     31  C   UNL     1       3.643   1.620  18.026  0.00  0.00    +0.000 A 
ATOM     32  C   UNL     1       2.383   2.174  17.819  0.00  0.00    +0.000 A 
ATOM     33  C   UNL     1       1.781   2.942  18.818  0.00  0.00    +0.000 A 
ENDBRANCH  27  28
ENDBRANCH  26  27
ENDBRANCH  23  26
ENDBRANCH  21  22
BRANCH  21  34
ATOM     34  C   UNL     1       3.947   6.951  17.759  0.00  0.00    +0.000 C 
BRANCH  34  35
ATOM     35  C   UNL     1       4.450   5.495  17.822  0.00  0.00    +0.000 C 
ATOM     36  C   UNL     1       4.825   5.003  16.415  0.00  0.00    +0.000 C 
ATOM     37  C   UNL     1       5.661   5.331  18.739  0.00  0.00    +0.000 C 
ENDBRANCH  34  35
ENDBRANCH  21  34
ENDBRANCH   2  21
TORSDOF 13
ENDMDL
MODEL 3
REMARK VINA RESULT:      -7.6      3.388      8.648
REMARK  Name = 
REMARK  16 active torsions:
REMARK  status: ('A' for Active; 'I' for Inactive)
REMARK    1  A    between atoms: C_1  and  O_2
REMARK    2  A    between atoms: O_2  and  N_3
REMARK    3  A    between atoms: C_4  and  C_6
REMARK    4  A    between atoms: C_6  and  C_8
REMARK    5  A    between atoms: C_8  and  C_9
REMARK    6  A    between atoms: C_8  and  N_16
REMARK    7  A    between atoms: C_9  and  C_10
REMARK    8  A    between atoms: C_17  and  C_19
REMARK    9  A    between atoms: C_19  and  C_20
REMARK   10  A    between atoms: C_19  and  N_24
REMARK   11  A    between atoms: C_20  and  C_21
REMARK   12  A    between atoms: C_21  and  C_22
REMARK   13  A    between atoms: C_21  and  C_23
REMARK   14  A    between atoms: C_25  and  O_27
REMARK   15  A    between atoms: O_27  and  C_28
REMARK   16  A    between atoms: C_28  and  C_29
REMARK                            x       y       z     vdW  Elec       q    Type
REMARK                         _______ _______ _______ _____ _____    ______ ____
ROOT
ATOM      1  N   UNL     1       1.067   9.073  19.097  0.00  0.00    +0.000 N 
ATOM      2  C   UNL     1       2.029   8.682  18.193  0.00  0.00    +0.000 C 
ATOM      3  O   UNL     1       2.271   9.370  17.200  0.00  0.00    +0.000 OA
ATOM      4  H   UNL     1       1.051   8.628  20.016  0.00  0.00    +0.000 HD
ENDROOT
BRANCH   1   5
ATOM      5  C   UNL     1       0.320  10.319  18.866  0.00  0.00    +0.000 C 
BRANCH   5   6
ATOM      6  C   UNL     1       0.929  11.464  19.673  0.00  0.00    +0.000 C 
ATOM      7  O   UNL     1       1.639  12.358  19.215  0.00  0.00    +0.000 OA
BRANCH   6   9
ATOM      8  N   UNL     1      -0.040  12.480  21.642  0.00  0.00    +0.000 N 
ATOM      9  C   UNL     1       0.696  11.412  21.183  0.00  0.00    +0.000 C 
ATOM     10  O   UNL     1       1.177  10.509  21.850  0.00  0.00    +0.000 OA
ATOM     11  H   UNL     1      -0.625  12.988  20.981  0.00  0.00    +0.000 HD
BRANCH   8  13
ATOM     12  C   UNL     1      -1.280  13.551  23.254  0.00  0.00    +0.000 C 
ATOM     13  O   UNL     1      -0.515  12.380  22.970  0.00  0.00    +0.000 OA
ENDBRANCH   8  13
ENDBRANCH   6   9
ENDBRANCH   5   6
BRANCH   5  14
ATOM     14  C   UNL     1      -1.169  10.197  19.231  0.00  0.00    +0.000 C 
BRANCH  14  15
ATOM     15  C   UNL     1      -2.089  10.402  18.050  0.00  0.00    +0.000 A 
ATOM     16  C   UNL     1      -1.837   9.758  16.833  0.00  0.00    +0.000 A 
ATOM     17  C   UNL     1      -2.667   9.978  15.732  0.00  0.00    +0.000 A 
ATOM     18  C   UNL     1      -3.759  10.837  15.840  0.00  0.00    +0.000 A 
ATOM     19  C   UNL     1      -4.033  11.465  17.052  0.00  0.00    +0.000 A 
ATOM     20  C   UNL     1      -3.209  11.241  18.155  0.00  0.00    +0.000 A 
ENDBRANCH  14  15
ENDBRANCH   5  14
ENDBRANCH   1   5
BRANCH   2  21
ATOM     21  C   UNL     1       2.867   7.429  18.567  0.00  0.00    +0.000 C 
BRANCH  21  22
ATOM     22  N   UNL     1       2.023   6.351  19.083  0.00  0.00    +0.000 N 
ATOM     23  C   UNL     1       1.614   6.280  20.383  0.00  0.00    +0.000 C 
ATOM     24  O   UNL     1       1.861   7.139  21.223  0.00  0.00    +0.000 OA
ATOM     25  H   UNL     1       1.696   5.620  18.466  0.00  0.00    +0.000 HD
BRANCH  23  26
ATOM     26  O   UNL     1       0.961   5.114  20.608  0.00  0.00    +0.000 OA
BRANCH  26  27
ATOM     27  C   UNL     1       1.763   4.046  21.144  0.00  0.00    +0.000 C 
BRANCH  27  28
ATOM     28  C   UNL     1       2.353   3.140  20.087  0.00  0.00    +0.000 A 
ATOM     29  C   UNL     1       1.676   2.893  18.886  0.00  0.00    +0.000 A 
ATOM     30  C   UNL     1       2.268   2.117  17.883  0.00  0.00    +0.000 A 
ATOM     31  C   UNL     1       3.542   1.580  18.070  0.00  0.00    +0.000 A 
ATOM     32  C   UNL     1       4.226   1.825  19.257  0.00  0.00    +0.000 A 
ATOM     33  C   UNL     1       3.637   2.600  20.259  0.00  0.00    +0.000 A 
ENDBRANCH  27  28
ENDBRANCH  26  27
ENDBRANCH  23  26
ENDBRANCH  21  22
BRANCH  21  34
ATOM     34  C   UNL     1       3.690   6.993  17.330  0.00  0.00    +0.000 C 
BRANCH  34  35
ATOM     35  C   UNL     1       4.880   6.046  17.578  0.00  0.00    +0.000 C 
ATOM     36  C   UNL     1       4.968   5.683  19.070  0.00  0.00    +0.000 C 
ATOM     37  C   UNL     1       4.784   4.756  16.764  0.00  0.00    +0.000 C 
ENDBRANCH  34  35
ENDBRANCH  21  34
ENDBRANCH   2  21
TORSDOF 13
ENDMDL
MODEL 4
REMARK VINA RESULT:      -7.5      2.561      7.677
REMARK  Name = 
REMARK  16 active torsions:
REMARK  status: ('A' for Active; 'I' for Inactive)
REMARK    1  A    between atoms: C_1  and  O_2
REMARK    2  A    between atoms: O_2  and  N_3
REMARK    3  A    between atoms: C_4  and  C_6
REMARK    4  A    between atoms: C_6  and  C_8
REMARK    5  A    between atoms: C_8  and  C_9
REMARK    6  A    between atoms: C_8  and  N_16
REMARK    7  A    between atoms: C_9  and  C_10
REMARK    8  A    between atoms: C_17  and  C_19
REMARK    9  A    between atoms: C_19  and  C_20
REMARK   10  A    between atoms: C_19  and  N_24
REMARK   11  A    between atoms: C_20  and  C_21
REMARK   12  A    between atoms: C_21  and  C_22
REMARK   13  A    between atoms: C_21  and  C_23
REMARK   14  A    between atoms: C_25  and  O_27
REMARK   15  A    between atoms: O_27  and  C_28
REMARK   16  A    between atoms: C_28  and  C_29
REMARK                            x       y       z     vdW  Elec       q    Type
REMARK                         _______ _______ _______ _____ _____    ______ ____
ROOT
ATOM      1  N   UNL     1       4.535   5.103  18.881  0.00  0.00    +0.000 N 
ATOM      2  C   UNL     1       5.901   5.171  19.038  0.00  0.00    +0.000 C 
ATOM      3  O   UNL     1       6.438   4.703  20.044  0.00  0.00    +0.000 OA
ATOM      4  H   UNL     1       4.142   5.273  17.954  0.00  0.00    +0.000 HD
ENDROOT
BRANCH   1   5
ATOM      5  C   UNL     1       3.715   4.473  19.927  0.00  0.00    +0.000 C 
BRANCH   5   6
ATOM      6  C   UNL     1       3.056   3.202  19.395  0.00  0.00    +0.000 C 
ATOM      7  O   UNL     1       1.870   3.092  19.087  0.00  0.00    +0.000 OA
BRANCH   6   9
ATOM      8  N   UNL     1       4.918   1.967  20.320  0.00  0.00    +0.000 N 
ATOM      9  C   UNL     1       3.947   1.961  19.344  0.00  0.00    +0.000 C 
ATOM     10  O   UNL     1       3.781   1.117  18.477  0.00  0.00    +0.000 OA
ATOM     11  H   UNL     1       4.775   2.547  21.144  0.00  0.00    +0.000 HD
BRANCH   8  13
ATOM     12  C   UNL     1       5.785   0.552  21.909  0.00  0.00    +0.000 C 
ATOM     13  O   UNL     1       5.616   0.752  20.506  0.00  0.00    +0.000 OA
ENDBRANCH   8  13
ENDBRANCH   6   9
ENDBRANCH   5   6
BRANCH   5  14
ATOM     14  C   UNL     1       2.619   5.407  20.468  0.00  0.00    +0.000 C 
BRANCH  14  15
ATOM     15  C   UNL     1       2.362   6.599  19.576  0.00  0.00    +0.000 A 
ATOM     16  C   UNL     1       2.607   6.523  18.199  0.00  0.00    +0.000 A 
ATOM     17  C   UNL     1       2.403   7.636  17.382  0.00  0.00    +0.000 A 
ATOM     18  C   UNL     1       1.947   8.833  17.932  0.00  0.00    +0.000 A 
ATOM     19  C   UNL     1       1.677   8.914  19.295  0.00  0.00    +0.000 A 
ATOM     20  C   UNL     1       1.873   7.799  20.112  0.00  0.00    +0.000 A 
ENDBRANCH  14  15
ENDBRANCH   5  14
ENDBRANCH   1   5
BRANCH   2  21
ATOM     21  C   UNL     1       6.714   5.729  17.839  0.00  0.00    +0.000 C 
BRANCH  21  22
ATOM     22  N   UNL     1       7.702   6.718  18.272  0.00  0.00    +0.000 N 
ATOM     23  C   UNL     1       7.785   7.973  17.742  0.00  0.00    +0.000 C 
ATOM     24  O   UNL     1       7.006   8.411  16.903  0.00  0.00    +0.000 OA
ATOM     25  H   UNL     1       8.355   6.496  19.012  0.00  0.00    +0.000 HD
BRANCH  23  26
ATOM     26  O   UNL     1       8.869   8.621  18.234  0.00  0.00    +0.000 OA
BRANCH  26  27
ATOM     27  C   UNL     1       8.588   9.789  19.026  0.00  0.00    +0.000 C 
BRANCH  27  28
ATOM     28  C   UNL     1       9.728  10.780  19.073  0.00  0.00    +0.000 A 
ATOM     29  C   UNL     1      10.165  11.323  20.289  0.00  0.00    +0.000 A 
ATOM     30  C   UNL     1      11.273  12.177  20.328  0.00  0.00    +0.000 A 
ATOM     31  C   UNL     1      11.955  12.499  19.154  0.00  0.00    +0.000 A 
ATOM     32  C   UNL     1      11.534  11.959  17.942  0.00  0.00    +0.000 A 
ATOM     33  C   UNL     1      10.429  11.105  17.901  0.00  0.00    +0.000 A 
ENDBRANCH  27  28
ENDBRANCH  26  27
ENDBRANCH  23  26
ENDBRANCH  21  22
BRANCH  21  34
ATOM     34  C   UNL     1       7.359   4.546  17.079  0.00  0.00    +0.000 C 
BRANCH  34  35
ATOM     35  C   UNL     1       6.783   4.206  15.691  0.00  0.00    +0.000 C 
ATOM     36  C   UNL     1       5.265   3.980  15.787  0.00  0.00    +0.000 C 
ATOM     37  C   UNL     1       7.053   5.299  14.659  0.00  0.00    +0.000 C 
ENDBRANCH  34  35
ENDBRANCH  21  34
ENDBRANCH   2  21
TORSDOF 13
ENDMDL
MODEL 5
REMARK VINA RESULT:      -7.5      1.246      1.590
REMARK  Name = 
REMARK  16 active torsions:
REMARK  status: ('A' for Active; 'I' for Inactive)
REMARK    1  A    between atoms: C_1  and  O_2
REMARK    2  A    between atoms: O_2  and  N_3
REMARK    3  A    between atoms: C_4  and  C_6
REMARK    4  A    between atoms: C_6  and  C_8
REMARK    5  A    between atoms: C_8  and  C_9
REMARK    6  A    between atoms: C_8  and  N_16
REMARK    7  A    between atoms: C_9  and  C_10
REMARK    8  A    between atoms: C_17  and  C_19
REMARK    9  A    between atoms: C_19  and  C_20
REMARK   10  A    between atoms: C_19  and  N_24
REMARK   11  A    between atoms: C_20  and  C_21
REMARK   12  A    between atoms: C_21  and  C_22
REMARK   13  A    between atoms: C_21  and  C_23
REMARK   14  A    between atoms: C_25  and  O_27
REMARK   15  A    between atoms: O_27  and  C_28
REMARK   16  A    between atoms: C_28  and  C_29
REMARK                            x       y       z     vdW  Elec       q    Type
REMARK                         _______ _______ _______ _____ _____    ______ ____
ROOT
ATOM      1  N   UNL     1       5.157   5.809  17.178  0.00  0.00    +0.000 N 
ATOM      2  C   UNL     1       4.460   4.955  18.001  0.00  0.00    +0.000 C 
ATOM      3  O   UNL     1       5.018   3.980  18.508  0.00  0.00    +0.000 OA
ATOM      4  H   UNL     1       4.752   6.723  16.967  0.00  0.00    +0.000 HD
ENDROOT
BRANCH   1   5
ATOM      5  C   UNL     1       6.577   5.548  16.898  0.00  0.00    +0.000 C 
BRANCH   5   6
ATOM      6  C   UNL     1       7.461   6.224  17.946  0.00  0.00    +0.000 C 
ATOM      7  O   UNL     1       7.995   5.656  18.897  0.00  0.00    +0.000 OA
BRANCH   6   9
ATOM      8  N   UNL     1       8.589   8.251  18.628  0.00  0.00    +0.000 N 
ATOM      9  C   UNL     1       7.591   7.743  17.828  0.00  0.00    +0.000 C 
ATOM     10  O   UNL     1       6.829   8.372  17.111  0.00  0.00    +0.000 OA
ATOM     11  H   UNL     1       9.331   7.627  18.936  0.00  0.00    +0.000 HD
BRANCH   8  13
ATOM     12  C   UNL     1       9.287  10.190  19.644  0.00  0.00    +0.000 C 
ATOM     13  O   UNL     1       8.945   9.599  18.391  0.00  0.00    +0.000 OA
ENDBRANCH   8  13
ENDBRANCH   6   9
ENDBRANCH   5   6
BRANCH   5  14
ATOM     14  C   UNL     1       7.009   6.034  15.504  0.00  0.00    +0.000 C 
BRANCH  14  15
ATOM     15  C   UNL     1       6.651   5.065  14.401  0.00  0.00    +0.000 A 
ATOM     16  C   UNL     1       7.491   4.910  13.291  0.00  0.00    +0.000 A 
ATOM     17  C   UNL     1       7.140   4.041  12.256  0.00  0.00    +0.000 A 
ATOM     18  C   UNL     1       5.953   3.315  12.324  0.00  0.00    +0.000 A 
ATOM     19  C   UNL     1       5.122   3.443  13.434  0.00  0.00    +0.000 A 
ATOM     20  C   UNL     1       5.475   4.305  14.473  0.00  0.00    +0.000 A 
ENDBRANCH  14  15
ENDBRANCH   5  14
ENDBRANCH   1   5
BRANCH   2  21
ATOM     21  C   UNL     1       3.004   5.362  18.357  0.00  0.00    +0.000 C 
BRANCH  21  22
ATOM     22  N   UNL     1       2.715   6.737  17.947  0.00  0.00    +0.000 N 
ATOM     23  C   UNL     1       2.233   7.686  18.802  0.00  0.00    +0.000 C 
ATOM     24  O   UNL     1       2.058   7.496  20.001  0.00  0.00    +0.000 OA
ATOM     25  H   UNL     1       2.888   7.032  16.996  0.00  0.00    +0.000 HD
BRANCH  23  26
ATOM     26  O   UNL     1       1.933   8.821  18.124  0.00  0.00    +0.000 OA
BRANCH  26  27
ATOM     27  C   UNL     1       1.424   9.904  18.923  0.00  0.00    +0.000 C 
BRANCH  27  28
ATOM     28  C   UNL     1       0.009  10.304  18.572  0.00  0.00    +0.000 A 
ATOM     29  C   UNL     1      -0.702   9.641  17.563  0.00  0.00    +0.000 A 
ATOM     30  C   UNL     1      -2.037   9.967  17.302  0.00  0.00    +0.000 A 
ATOM     31  C   UNL     1      -2.677  10.959  18.047  0.00  0.00    +0.000 A 
ATOM     32  C   UNL     1      -1.982  11.619  19.057  0.00  0.00    +0.000 A 
ATOM     33  C   UNL     1      -0.649  11.294  19.319  0.00  0.00    +0.000 A 
ENDBRANCH  27  28
ENDBRANCH  26  27
ENDBRANCH  23  26
ENDBRANCH  21  22
BRANCH  21  34
ATOM     34  C   UNL     1       2.031   4.341  17.721  0.00  0.00    +0.000 C 
BRANCH  34  35
ATOM     35  C   UNL     1       1.260   3.415  18.682  0.00  0.00    +0.000 C 
ATOM     36  C   UNL     1       1.999   2.075  18.836  0.00  0.00    +0.000 C 
ATOM     37  C   UNL     1       1.069   4.032  20.066  0.00  0.00    +0.000 C 
ENDBRANCH  34  35
ENDBRANCH  21  34
ENDBRANCH   2  21
TORSDOF 13
ENDMDL
MODEL 6
REMARK VINA RESULT:      -7.5      2.337      4.912
REMARK  Name = 
REMARK  16 active torsions:
REMARK  status: ('A' for Active; 'I' for Inactive)
REMARK    1  A    between atoms: C_1  and  O_2
REMARK    2  A    between atoms: O_2  and  N_3
REMARK    3  A    between atoms: C_4  and  C_6
REMARK    4  A    between atoms: C_6  and  C_8
REMARK    5  A    between atoms: C_8  and  C_9
REMARK    6  A    between atoms: C_8  and  N_16
REMARK    7  A    between atoms: C_9  and  C_10
REMARK    8  A    between atoms: C_17  and  C_19
REMARK    9  A    between atoms: C_19  and  C_20
REMARK   10  A    between atoms: C_19  and  N_24
REMARK   11  A    between atoms: C_20  and  C_21
REMARK   12  A    between atoms: C_21  and  C_22
REMARK   13  A    between atoms: C_21  and  C_23
REMARK   14  A    between atoms: C_25  and  O_27
REMARK   15  A    between atoms: O_27  and  C_28
REMARK   16  A    between atoms: C_28  and  C_29
REMARK                            x       y       z     vdW  Elec       q    Type
REMARK                         _______ _______ _______ _____ _____    ______ ____
ROOT
ATOM      1  N   UNL     1       3.970   6.246  18.934  0.00  0.00    +0.000 N 
ATOM      2  C   UNL     1       2.846   6.389  19.715  0.00  0.00    +0.000 C 
ATOM      3  O   UNL     1       2.602   5.582  20.613  0.00  0.00    +0.000 OA
ATOM      4  H   UNL     1       4.277   7.040  18.369  0.00  0.00    +0.000 HD
ENDROOT
BRANCH   1   5
ATOM      5  C   UNL     1       4.879   5.114  19.172  0.00  0.00    +0.000 C 
BRANCH   5   6
ATOM      6  C   UNL     1       6.332   5.546  18.977  0.00  0.00    +0.000 C 
ATOM      7  O   UNL     1       7.204   5.518  19.844  0.00  0.00    +0.000 OA
BRANCH   6   9
ATOM      8  N   UNL     1       7.463   5.315  16.853  0.00  0.00    +0.000 N 
ATOM      9  C   UNL     1       6.670   6.146  17.612  0.00  0.00    +0.000 C 
ATOM     10  O   UNL     1       6.276   7.262  17.314  0.00  0.00    +0.000 OA
ATOM     11  H   UNL     1       7.476   4.322  17.070  0.00  0.00    +0.000 HD
BRANCH   8  13
ATOM     12  C   UNL     1       6.920   4.707  14.704  0.00  0.00    +0.000 C 
ATOM     13  O   UNL     1       7.612   5.674  15.493  0.00  0.00    +0.000 OA
ENDBRANCH   8  13
ENDBRANCH   6   9
ENDBRANCH   5   6
BRANCH   5  14
ATOM     14  C   UNL     1       4.593   3.917  18.250  0.00  0.00    +0.000 C 
BRANCH  14  15
ATOM     15  C   UNL     1       3.228   3.309  18.472  0.00  0.00    +0.000 A 
ATOM     16  C   UNL     1       2.153   3.655  17.643  0.00  0.00    +0.000 A 
ATOM     17  C   UNL     1       0.884   3.121  17.872  0.00  0.00    +0.000 A 
ATOM     18  C   UNL     1       0.679   2.232  18.926  0.00  0.00    +0.000 A 
ATOM     19  C   UNL     1       1.745   1.862  19.741  0.00  0.00    +0.000 A 
ATOM     20  C   UNL     1       3.016   2.389  19.509  0.00  0.00    +0.000 A 
ENDBRANCH  14  15
ENDBRANCH   5  14
ENDBRANCH   1   5
BRANCH   2  21
ATOM     21  C   UNL     1       2.003   7.675  19.496  0.00  0.00    +0.000 C 
BRANCH  21  22
ATOM     22  N   UNL     1       1.946   8.494  20.706  0.00  0.00    +0.000 N 
ATOM     23  C   UNL     1       0.875   8.503  21.553  0.00  0.00    +0.000 C 
ATOM     24  O   UNL     1      -0.108   7.782  21.416  0.00  0.00    +0.000 OA
ATOM     25  H   UNL     1       2.730   9.078  20.964  0.00  0.00    +0.000 HD
BRANCH  23  26
ATOM     26  O   UNL     1       1.040   9.448  22.511  0.00  0.00    +0.000 OA
BRANCH  26  27
ATOM     27  C   UNL     1      -0.156   9.838  23.209  0.00  0.00    +0.000 C 
BRANCH  27  28
ATOM     28  C   UNL     1      -0.853  11.033  22.599  0.00  0.00    +0.000 A 
ATOM     29  C   UNL     1      -0.441  11.561  21.369  0.00  0.00    +0.000 A 
ATOM     30  C   UNL     1      -1.144  12.615  20.776  0.00  0.00    +0.000 A 
ATOM     31  C   UNL     1      -2.266  13.154  21.407  0.00  0.00    +0.000 A 
ATOM     32  C   UNL     1      -2.689  12.632  22.626  0.00  0.00    +0.000 A 
ATOM     33  C   UNL     1      -1.988  11.578  23.219  0.00  0.00    +0.000 A 
ENDBRANCH  27  28
ENDBRANCH  26  27
ENDBRANCH  23  26
ENDBRANCH  21  22
BRANCH  21  34
ATOM     34  C   UNL     1       2.581   8.449  18.287  0.00  0.00    +0.000 C 
BRANCH  34  35
ATOM     35  C   UNL     1       1.738   9.613  17.731  0.00  0.00    +0.000 C 
ATOM     36  C   UNL     1       0.250   9.390  18.049  0.00  0.00    +0.000 C 
ATOM     37  C   UNL     1       2.162  10.968  18.295  0.00  0.00    +0.000 C 
ENDBRANCH  34  35
ENDBRANCH  21  34
ENDBRANCH   2  21
TORSDOF 13
ENDMDL
MODEL 7
REMARK VINA RESULT:      -7.4      1.169      1.584
REMARK  Name = 
REMARK  16 active torsions:
REMARK  status: ('A' for Active; 'I' for Inactive)
REMARK    1  A    between atoms: C_1  and  O_2
REMARK    2  A    between atoms: O_2  and  N_3
REMARK    3  A    between atoms: C_4  and  C_6
REMARK    4  A    between atoms: C_6  and  C_8
REMARK    5  A    between atoms: C_8  and  C_9
REMARK    6  A    between atoms: C_8  and  N_16
REMARK    7  A    between atoms: C_9  and  C_10
REMARK    8  A    between atoms: C_17  and  C_19
REMARK    9  A    between atoms: C_19  and  C_20
REMARK   10  A    between atoms: C_19  and  N_24
REMARK   11  A    between atoms: C_20  and  C_21
REMARK   12  A    between atoms: C_21  and  C_22
REMARK   13  A    between atoms: C_21  and  C_23
REMARK   14  A    between atoms: C_25  and  O_27
REMARK   15  A    between atoms: O_27  and  C_28
REMARK   16  A    between atoms: C_28  and  C_29
REMARK                            x       y       z     vdW  Elec       q    Type
REMARK                         _______ _______ _______ _____ _____    ______ ____
ROOT
ATOM      1  N   UNL     1       5.037   5.285  17.144  0.00  0.00    +0.000 N 
ATOM      2  C   UNL     1       4.005   4.410  17.393  0.00  0.00    +0.000 C 
ATOM      3  O   UNL     1       4.118   3.215  17.118  0.00  0.00    +0.000 OA
ATOM      4  H   UNL     1       5.018   6.204  17.590  0.00  0.00    +0.000 HD
ENDROOT
BRANCH   1   5
ATOM      5  C   UNL     1       6.281   4.785  16.537  0.00  0.00    +0.000 C 
BRANCH   5   6
ATOM      6  C   UNL     1       7.446   4.925  17.517  0.00  0.00    +0.000 C 
ATOM      7  O   UNL     1       8.314   4.076  17.714  0.00  0.00    +0.000 OA
BRANCH   6   9
ATOM      8  N   UNL     1       7.732   7.322  17.639  0.00  0.00    +0.000 N 
ATOM      9  C   UNL     1       7.448   6.192  18.372  0.00  0.00    +0.000 C 
ATOM     10  O   UNL     1       7.252   6.124  19.574  0.00  0.00    +0.000 OA
ATOM     11  H   UNL     1       7.582   7.301  16.633  0.00  0.00    +0.000 HD
BRANCH   8  13
ATOM     12  C   UNL     1       8.719   9.306  18.249  0.00  0.00    +0.000 C 
ATOM     13  O   UNL     1       7.506   8.556  18.293  0.00  0.00    +0.000 OA
ENDBRANCH   8  13
ENDBRANCH   6   9
ENDBRANCH   5   6
BRANCH   5  14
ATOM     14  C   UNL     1       6.644   5.516  15.233  0.00  0.00    +0.000 C 
BRANCH  14  15
ATOM     15  C   UNL     1       6.414   4.676  13.999  0.00  0.00    +0.000 A 
ATOM     16  C   UNL     1       5.225   3.953  13.842  0.00  0.00    +0.000 A 
ATOM     17  C   UNL     1       5.030   3.149  12.718  0.00  0.00    +0.000 A 
ATOM     18  C   UNL     1       6.018   3.065  11.738  0.00  0.00    +0.000 A 
ATOM     19  C   UNL     1       7.194   3.798  11.872  0.00  0.00    +0.000 A 
ATOM     20  C   UNL     1       7.387   4.608  12.991  0.00  0.00    +0.000 A 
ENDBRANCH  14  15
ENDBRANCH   5  14
ENDBRANCH   1   5
BRANCH   2  21
ATOM     21  C   UNL     1       2.776   4.980  18.152  0.00  0.00    +0.000 C 
BRANCH  21  22
ATOM     22  N   UNL     1       2.392   6.297  17.643  0.00  0.00    +0.000 N 
ATOM     23  C   UNL     1       2.240   7.392  18.443  0.00  0.00    +0.000 C 
ATOM     24  O   UNL     1       2.470   7.393  19.648  0.00  0.00    +0.000 OA
ATOM     25  H   UNL     1       2.245   6.438  16.653  0.00  0.00    +0.000 HD
BRANCH  23  26
ATOM     26  O   UNL     1       1.753   8.435  17.727  0.00  0.00    +0.000 OA
BRANCH  26  27
ATOM     27  C   UNL     1       1.992   9.738  18.287  0.00  0.00    +0.000 C 
BRANCH  27  28
ATOM     28  C   UNL     1       0.822  10.287  19.071  0.00  0.00    +0.000 A 
ATOM     29  C   UNL     1       0.863  10.371  20.469  0.00  0.00    +0.000 A 
ATOM     30  C   UNL     1      -0.193  10.954  21.178  0.00  0.00    +0.000 A 
ATOM     31  C   UNL     1      -1.302  11.458  20.498  0.00  0.00    +0.000 A 
ATOM     32  C   UNL     1      -1.350  11.386  19.108  0.00  0.00    +0.000 A 
ATOM     33  C   UNL     1      -0.296  10.805  18.399  0.00  0.00    +0.000 A 
ENDBRANCH  27  28
ENDBRANCH  26  27
ENDBRANCH  23  26
ENDBRANCH  21  22
BRANCH  21  34
ATOM     34  C   UNL     1       1.619   3.956  18.069  0.00  0.00    +0.000 C 
BRANCH  34  35
ATOM     35  C   UNL     1       1.112   3.360  19.397  0.00  0.00    +0.000 C 
ATOM     36  C   UNL     1       1.877   2.068  19.725  0.00  0.00    +0.000 C 
ATOM     37  C   UNL     1       1.258   4.329  20.569  0.00  0.00    +0.000 C 
ENDBRANCH  34  35
ENDBRANCH  21  34
ENDBRANCH   2  21
TORSDOF 13
ENDMDL
MODEL 8
REMARK VINA RESULT:      -7.3      2.503      7.659
REMARK  Name = 
REMARK  16 active torsions:
REMARK  status: ('A' for Active; 'I' for Inactive)
REMARK    1  A    between atoms: C_1  and  O_2
REMARK    2  A    between atoms: O_2  and  N_3
REMARK    3  A    between atoms: C_4  and  C_6
REMARK    4  A    between atoms: C_6  and  C_8
REMARK    5  A    between atoms: C_8  and  C_9
REMARK    6  A    between atoms: C_8  and  N_16
REMARK    7  A    between atoms: C_9  and  C_10
REMARK    8  A    between atoms: C_17  and  C_19
REMARK    9  A    between atoms: C_19  and  C_20
REMARK   10  A    between atoms: C_19  and  N_24
REMARK   11  A    between atoms: C_20  and  C_21
REMARK   12  A    between atoms: C_21  and  C_22
REMARK   13  A    between atoms: C_21  and  C_23
REMARK   14  A    between atoms: C_25  and  O_27
REMARK   15  A    between atoms: O_27  and  C_28
REMARK   16  A    between atoms: C_28  and  C_29
REMARK                            x       y       z     vdW  Elec       q    Type
REMARK                         _______ _______ _______ _____ _____    ______ ____
ROOT
ATOM      1  N   UNL     1       4.193   5.394  18.009  0.00  0.00    +0.000 N 
ATOM      2  C   UNL     1       5.541   5.666  18.049  0.00  0.00    +0.000 C 
ATOM      3  O   UNL     1       6.206   5.389  19.048  0.00  0.00    +0.000 OA
ATOM      4  H   UNL     1       3.718   5.407  17.105  0.00  0.00    +0.000 HD
ENDROOT
BRANCH   1   5
ATOM      5  C   UNL     1       3.544   4.776  19.175  0.00  0.00    +0.000 C 
BRANCH   5   6
ATOM      6  C   UNL     1       3.645   3.253  19.097  0.00  0.00    +0.000 C 
ATOM      7  O   UNL     1       3.433   2.578  18.091  0.00  0.00    +0.000 OA
BRANCH   6   9
ATOM      8  N   UNL     1       5.137   1.854  20.387  0.00  0.00    +0.000 N 
ATOM      9  C   UNL     1       3.943   2.537  20.415  0.00  0.00    +0.000 C 
ATOM     10  O   UNL     1       3.140   2.579  21.333  0.00  0.00    +0.000 OA
ATOM     11  H   UNL     1       5.840   2.130  19.705  0.00  0.00    +0.000 HD
BRANCH   8  13
ATOM     12  C   UNL     1       5.890  -0.012  21.497  0.00  0.00    +0.000 C 
ATOM     13  O   UNL     1       5.608   1.380  21.633  0.00  0.00    +0.000 OA
ENDBRANCH   8  13
ENDBRANCH   6   9
ENDBRANCH   5   6
BRANCH   5  14
ATOM     14  C   UNL     1       2.061   5.164  19.308  0.00  0.00    +0.000 C 
BRANCH  14  15
ATOM     15  C   UNL     1       1.846   6.655  19.418  0.00  0.00    +0.000 A 
ATOM     16  C   UNL     1       1.997   7.479  18.296  0.00  0.00    +0.000 A 
ATOM     17  C   UNL     1       1.833   8.861  18.408  0.00  0.00    +0.000 A 
ATOM     18  C   UNL     1       1.512   9.431  19.638  0.00  0.00    +0.000 A 
ATOM     19  C   UNL     1       1.335   8.619  20.755  0.00  0.00    +0.000 A 
ATOM     20  C   UNL     1       1.491   7.237  20.644  0.00  0.00    +0.000 A 
ENDBRANCH  14  15
ENDBRANCH   5  14
ENDBRANCH   1   5
BRANCH   2  21
ATOM     21  C   UNL     1       6.184   6.197  16.739  0.00  0.00    +0.000 C 
BRANCH  21  22
ATOM     22  N   UNL     1       6.725   7.546  16.912  0.00  0.00    +0.000 N 
ATOM     23  C   UNL     1       7.712   7.845  17.805  0.00  0.00    +0.000 C 
ATOM     24  O   UNL     1       8.282   7.009  18.498  0.00  0.00    +0.000 OA
ATOM     25  H   UNL     1       6.383   8.309  16.343  0.00  0.00    +0.000 HD
BRANCH  23  26
ATOM     26  O   UNL     1       7.919   9.184  17.846  0.00  0.00    +0.000 OA
BRANCH  26  27
ATOM     27  C   UNL     1       8.905   9.631  18.794  0.00  0.00    +0.000 C 
BRANCH  27  28
ATOM     28  C   UNL     1       9.520  10.968  18.447  0.00  0.00    +0.000 A 
ATOM     29  C   UNL     1      10.898  11.185  18.573  0.00  0.00    +0.000 A 
ATOM     30  C   UNL     1      11.467  12.399  18.173  0.00  0.00    +0.000 A 
ATOM     31  C   UNL     1      10.664  13.410  17.644  0.00  0.00    +0.000 A 
ATOM     32  C   UNL     1       9.293  13.203  17.508  0.00  0.00    +0.000 A 
ATOM     33  C   UNL     1       8.725  11.990  17.906  0.00  0.00    +0.000 A 
ENDBRANCH  27  28
ENDBRANCH  26  27
ENDBRANCH  23  26
ENDBRANCH  21  22
BRANCH  21  34
ATOM     34  C   UNL     1       7.258   5.188  16.265  0.00  0.00    +0.000 C 
BRANCH  34  35
ATOM     35  C   UNL     1       6.962   4.405  14.971  0.00  0.00    +0.000 C 
ATOM     36  C   UNL     1       5.453   4.136  14.847  0.00  0.00    +0.000 C 
ATOM     37  C   UNL     1       7.434   5.140  13.718  0.00  0.00    +0.000 C 
ENDBRANCH  34  35
ENDBRANCH  21  34
ENDBRANCH   2  21
TORSDOF 13
ENDMDL
MODEL 9
REMARK VINA RESULT:      -7.2      3.167      5.828
REMARK  Name = 
REMARK  16 active torsions:
REMARK  status: ('A' for Active; 'I' for Inactive)
REMARK    1  A    between atoms: C_1  and  O_2
REMARK    2  A    between atoms: O_2  and  N_3
REMARK    3  A    between atoms: C_4  and  C_6
REMARK    4  A    between atoms: C_6  and  C_8
REMARK    5  A    between atoms: C_8  and  C_9
REMARK    6  A    between atoms: C_8  and  N_16
REMARK    7  A    between atoms: C_9  and  C_10
REMARK    8  A    between atoms: C_17  and  C_19
REMARK    9  A    between atoms: C_19  and  C_20
REMARK   10  A    between atoms: C_19  and  N_24
REMARK   11  A    between atoms: C_20  and  C_21
REMARK   12  A    between atoms: C_21  and  C_22
REMARK   13  A    between atoms: C_21  and  C_23
REMARK   14  A    between atoms: C_25  and  O_27
REMARK   15  A    between atoms: O_27  and  C_28
REMARK   16  A    between atoms: C_28  and  C_29
REMARK                            x       y       z     vdW  Elec       q    Type
REMARK                         _______ _______ _______ _____ _____    ______ ____
ROOT
ATOM      1  N   UNL     1       2.157   7.517  19.990  0.00  0.00    +0.000 N 
ATOM      2  C   UNL     1       1.639   8.616  19.343  0.00  0.00    +0.000 C 
ATOM      3  O   UNL     1       1.475   8.603  18.123  0.00  0.00    +0.000 OA
ATOM      4  H   UNL     1       2.061   7.458  21.005  0.00  0.00    +0.000 HD
ENDROOT
BRANCH   1   5
ATOM      5  C   UNL     1       2.522   6.324  19.212  0.00  0.00    +0.000 C 
BRANCH   5   6
ATOM      6  C   UNL     1       1.727   5.110  19.692  0.00  0.00    +0.000 C 
ATOM      7  O   UNL     1       1.101   5.043  20.749  0.00  0.00    +0.000 OA
BRANCH   6   9
ATOM      8  N   UNL     1       2.506   2.838  19.414  0.00  0.00    +0.000 N 
ATOM      9  C   UNL     1       1.816   3.864  18.809  0.00  0.00    +0.000 C 
ATOM     10  O   UNL     1       1.338   3.869  17.686  0.00  0.00    +0.000 OA
ATOM     11  H   UNL     1       2.591   2.838  20.427  0.00  0.00    +0.000 HD
BRANCH   8  13
ATOM     12  C   UNL     1       3.707   1.253  18.262  0.00  0.00    +0.000 C 
ATOM     13  O   UNL     1       2.418   1.577  18.780  0.00  0.00    +0.000 OA
ENDBRANCH   8  13
ENDBRANCH   6   9
ENDBRANCH   5   6
BRANCH   5  14
ATOM     14  C   UNL     1       4.022   5.994  19.296  0.00  0.00    +0.000 C 
BRANCH  14  15
ATOM     15  C   UNL     1       4.654   5.756  17.944  0.00  0.00    +0.000 A 
ATOM     16  C   UNL     1       5.333   4.561  17.678  0.00  0.00    +0.000 A 
ATOM     17  C   UNL     1       5.947   4.358  16.440  0.00  0.00    +0.000 A 
ATOM     18  C   UNL     1       5.882   5.343  15.457  0.00  0.00    +0.000 A 
ATOM     19  C   UNL     1       5.189   6.525  15.702  0.00  0.00    +0.000 A 
ATOM     20  C   UNL     1       4.568   6.727  16.935  0.00  0.00    +0.000 A 
ENDBRANCH  14  15
ENDBRANCH   5  14
ENDBRANCH   1   5
BRANCH   2  21
ATOM     21  C   UNL     1       1.155   9.788  20.240  0.00  0.00    +0.000 C 
BRANCH  21  22
ATOM     22  N   UNL     1       1.114  11.050  19.500  0.00  0.00    +0.000 N 
ATOM     23  C   UNL     1       1.340  12.264  20.081  0.00  0.00    +0.000 C 
ATOM     24  O   UNL     1       1.658  12.409  21.257  0.00  0.00    +0.000 OA
ATOM     25  H   UNL     1       0.932  11.052  18.505  0.00  0.00    +0.000 HD
BRANCH  23  26
ATOM     26  O   UNL     1       1.107  13.262  19.193  0.00  0.00    +0.000 OA
BRANCH  26  27
ATOM     27  C   UNL     1       1.806  14.494  19.446  0.00  0.00    +0.000 C 
BRANCH  27  28
ATOM     28  C   UNL     1       1.233  15.681  18.705  0.00  0.00    +0.000 A 
ATOM     29  C   UNL     1      -0.146  15.924  18.685  0.00  0.00    +0.000 A 
ATOM     30  C   UNL     1      -0.657  17.069  18.064  0.00  0.00    +0.000 A 
ATOM     31  C   UNL     1       0.205  17.983  17.456  0.00  0.00    +0.000 A 
ATOM     32  C   UNL     1       1.578  17.754  17.477  0.00  0.00    +0.000 A 
ATOM     33  C   UNL     1       2.090  16.612  18.097  0.00  0.00    +0.000 A 
ENDBRANCH  27  28
ENDBRANCH  26  27
ENDBRANCH  23  26
ENDBRANCH  21  22
BRANCH  21  34
ATOM     34  C   UNL     1      -0.219   9.417  20.847  0.00  0.00    +0.000 C 
BRANCH  34  35
ATOM     35  C   UNL     1      -0.318   9.374  22.385  0.00  0.00    +0.000 C 
ATOM     36  C   UNL     1       1.086   9.270  23.004  0.00  0.00    +0.000 C 
ATOM     37  C   UNL     1      -1.019  10.601  22.963  0.00  0.00    +0.000 C 
ENDBRANCH  34  35
ENDBRANCH  21  34
ENDBRANCH   2  21
TORSDOF 13
ENDMDL
