MODEL 1
REMARK VINA RESULT:      -7.9      0.000      0.000
REMARK  Name = 
REMARK  6 active torsions:
REMARK  status: ('A' for Active; 'I' for Inactive)
REMARK    1  A    between atoms: C_2  and  C_3
REMARK    2  A    between atoms: C_3  and  N_4
REMARK    3  A    between atoms: N_9  and  C_10
REMARK    4  A    between atoms: C_10  and  C_11
REMARK    5  A    between atoms: N_14  and  C_15
REMARK    6  A    between atoms: C_15  and  C_16
REMARK                            x       y       z     vdW  Elec       q    Type
REMARK                         _______ _______ _______ _____ _____    ______ ____
ROOT
ATOM      1  C   UNL     1       7.894   5.710  18.239  0.00  0.00    +0.000 C 
ATOM      2  C   UNL     1       7.507   4.722  17.131  0.00  0.00    +0.000 C 
ATOM      3  C   UNL     1       5.999   4.710  16.872  0.00  0.00    +0.000 C 
ATOM      4  N   UNL     1       5.207   4.445  18.089  0.00  0.00    +0.000 NA
ATOM      5  C   UNL     1       5.573   5.336  19.202  0.00  0.00    +0.000 C 
ATOM      6  C   UNL     1       7.079   5.350  19.486  0.00  0.00    +0.000 C 
ENDROOT
BRANCH   1   7
ATOM      7  C   UNL     1       7.675   7.185  17.860  0.00  0.00    +0.000 C 
BRANCH   7  10
ATOM      8  O   UNL     1       7.846   9.987  17.515  0.00  0.00    +0.000 OA
ATOM      9  C   UNL     1       8.510   9.453  18.401  0.00  0.00    +0.000 C 
ATOM     10  N   UNL     1       8.499   8.090  18.634  0.00  0.00    +0.000 N 
ATOM     11  H   UNL     1       9.047   7.701  19.392  0.00  0.00    +0.000 HD
BRANCH   9  12
ATOM     12  C   UNL     1       9.396  10.253  19.323  0.00  0.00    +0.000 C 
BRANCH  12  13
ATOM     13  N   UNL     1       9.818  11.484  18.697  0.00  0.00    +0.000 N 
ATOM     14  C   UNL     1      10.798  11.663  17.770  0.00  0.00    +0.000 A 
ATOM     15  N   UNL     1      10.823  12.920  17.397  0.00  0.00    +0.000 NA
ATOM     16  C   UNL     1       9.818  13.481  18.134  0.00  0.00    +0.000 A 
ATOM     17  N   UNL     1       9.167  12.639  18.941  0.00  0.00    +0.000 NA
ENDBRANCH  12  13
ENDBRANCH   9  12
ENDBRANCH   7  10
ENDBRANCH   1   7
BRANCH   4  18
ATOM     18  C   UNL     1       3.767   4.574  17.744  0.00  0.00    +0.000 C 
BRANCH  18  19
ATOM     19  C   UNL     1       2.827   4.052  18.813  0.00  0.00    +0.000 A 
ATOM     20  C   UNL     1       2.073   4.978  19.558  0.00  0.00    +0.000 A 
ATOM     21  C   UNL     1       1.116   4.550  20.479  0.00  0.00    +0.000 A 
ATOM     22  C   UNL     1       0.897   3.189  20.673  0.00  0.00    +0.000 A 
ATOM     23  C   UNL     1       1.659   2.257  19.972  0.00  0.00    +0.000 A 
ATOM     24  C   UNL     1       2.627   2.682  19.055  0.00  0.00    +0.000 A 
ATOM     25 CL   UNL     1       3.532   1.452  18.246  0.00  0.00    +0.000 Cl
ENDBRANCH  18  19
ENDBRANCH   4  18
TORSDOF 6
ENDMDL
MODEL 2
REMARK VINA RESULT:      -7.9      1.291      1.692
REMARK  Name = 
REMARK  6 active torsions:
REMARK  status: ('A' for Active; 'I' for Inactive)
REMARK    1  A    between atoms: C_2  and  C_3
REMARK    2  A    between atoms: C_3  and  N_4
REMARK    3  A    between atoms: N_9  and  C_10
REMARK    4  A    between atoms: C_10  and  C_11
REMARK    5  A    between atoms: N_14  and  C_15
REMARK    6  A    between atoms: C_15  and  C_16
REMARK                            x       y       z     vdW  Elec       q    Type
REMARK                         _______ _______ _______ _____ _____    ______ ____
ROOT
ATOM      1  C   UNL     1       7.783   5.686  18.327  0.00  0.00    +0.000 C 
ATOM      2  C   UNL     1       7.430   4.650  17.252  0.00  0.00    +0.000 C 
ATOM      3  C   UNL     1       5.957   4.721  16.846  0.00  0.00    +0.000 C 
ATOM      4  N   UNL     1       5.036   4.599  17.992  0.00  0.00    +0.000 NA
ATOM      5  C   UNL     1       5.361   5.540  19.077  0.00  0.00    +0.000 C 
ATOM      6  C   UNL     1       6.830   5.472  19.507  0.00  0.00    +0.000 C 
ENDROOT
BRANCH   1   7
ATOM      7  C   UNL     1       7.712   7.142  17.834  0.00  0.00    +0.000 C 
BRANCH   7  10
ATOM      8  O   UNL     1       7.826   9.954  17.566  0.00  0.00    +0.000 OA
ATOM      9  C   UNL     1       8.514   9.408  18.426  0.00  0.00    +0.000 C 
ATOM     10  N   UNL     1       8.531   8.040  18.621  0.00  0.00    +0.000 N 
ATOM     11  H   UNL     1       9.097   7.640  19.360  0.00  0.00    +0.000 HD
BRANCH   9  12
ATOM     12  C   UNL     1       9.398  10.199  19.357  0.00  0.00    +0.000 C 
BRANCH  12  13
ATOM     13  N   UNL     1       9.791  11.453  18.759  0.00  0.00    +0.000 N 
ATOM     14  C   UNL     1       9.369  12.706  19.079  0.00  0.00    +0.000 A 
ATOM     15  N   UNL     1      10.018  13.585  18.352  0.00  0.00    +0.000 NA
ATOM     16  C   UNL     1      10.845  12.807  17.593  0.00  0.00    +0.000 A 
ATOM     17  N   UNL     1      10.749  11.493  17.811  0.00  0.00    +0.000 NA
ENDBRANCH  12  13
ENDBRANCH   9  12
ENDBRANCH   7  10
ENDBRANCH   1   7
BRANCH   4  18
ATOM     18  C   UNL     1       3.649   4.800  17.498  0.00  0.00    +0.000 C 
BRANCH  18  19
ATOM     19  C   UNL     1       2.584   4.167  18.373  0.00  0.00    +0.000 A 
ATOM     20  C   UNL     1       2.254   2.815  18.161  0.00  0.00    +0.000 A 
ATOM     21  C   UNL     1       1.361   2.154  19.004  0.00  0.00    +0.000 A 
ATOM     22  C   UNL     1       0.778   2.831  20.071  0.00  0.00    +0.000 A 
ATOM     23  C   UNL     1       1.064   4.179  20.275  0.00  0.00    +0.000 A 
ATOM     24  C   UNL     1       1.951   4.850  19.426  0.00  0.00    +0.000 A 
ATOM     25 CL   UNL     1       2.230   6.525  19.750  0.00  0.00    +0.000 Cl
ENDBRANCH  18  19
ENDBRANCH   4  18
TORSDOF 6
ENDMDL
MODEL 3
REMARK VINA RESULT:      -7.6      3.875      6.269
REMARK  Name = 
REMARK  6 active torsions:
REMARK  status: ('A' for Active; 'I' for Inactive)
REMARK    1  A    between atoms: C_2  and  C_3
REMARK    2  A    between atoms: C_3  and  N_4
REMARK    3  A    between atoms: N_9  and  C_10
REMARK    4  A    between atoms: C_10  and  C_11
REMARK    5  A    between atoms: N_14  and  C_15
REMARK    6  A    between atoms: C_15  and  C_16
REMARK                            x       y       z     vdW  Elec       q    Type
REMARK                         _______ _______ _______ _____ _____    ______ ____
ROOT
ATOM      1  C   UNL     1       1.955   2.423  19.348  0.00  0.00    +0.000 C 
ATOM      2  C   UNL     1       1.410   3.407  18.306  0.00  0.00    +0.000 C 
ATOM      3  C   UNL     1       2.017   4.803  18.460  0.00  0.00    +0.000 C 
ATOM      4  N   UNL     1       1.852   5.357  19.817  0.00  0.00    +0.000 NA
ATOM      5  C   UNL     1       2.315   4.430  20.863  0.00  0.00    +0.000 C 
ATOM      6  C   UNL     1       1.706   3.030  20.733  0.00  0.00    +0.000 C 
ENDROOT
BRANCH   1   7
ATOM      7  C   UNL     1       3.446   2.088  19.167  0.00  0.00    +0.000 C 
BRANCH   7  10
ATOM      8  O   UNL     1       5.514   4.016  19.144  0.00  0.00    +0.000 OA
ATOM      9  C   UNL     1       5.040   3.637  18.075  0.00  0.00    +0.000 C 
ATOM     10  N   UNL     1       4.020   2.708  17.990  0.00  0.00    +0.000 N 
ATOM     11  H   UNL     1       3.679   2.410  17.084  0.00  0.00    +0.000 HD
BRANCH   9  12
ATOM     12  C   UNL     1       5.547   4.154  16.752  0.00  0.00    +0.000 C 
BRANCH  12  13
ATOM     13  N   UNL     1       6.148   5.458  16.901  0.00  0.00    +0.000 N 
ATOM     14  C   UNL     1       5.532   6.671  16.914  0.00  0.00    +0.000 A 
ATOM     15  N   UNL     1       6.419   7.610  17.146  0.00  0.00    +0.000 NA
ATOM     16  C   UNL     1       7.584   6.908  17.276  0.00  0.00    +0.000 A 
ATOM     17  N   UNL     1       7.468   5.584  17.142  0.00  0.00    +0.000 NA
ENDBRANCH  12  13
ENDBRANCH   9  12
ENDBRANCH   7  10
ENDBRANCH   1   7
BRANCH   4  18
ATOM     18  C   UNL     1       2.578   6.653  19.883  0.00  0.00    +0.000 C 
BRANCH  18  19
ATOM     19  C   UNL     1       1.679   7.855  20.101  0.00  0.00    +0.000 A 
ATOM     20  C   UNL     1       1.020   7.986  21.338  0.00  0.00    +0.000 A 
ATOM     21  C   UNL     1       0.266   9.123  21.632  0.00  0.00    +0.000 A 
ATOM     22  C   UNL     1       0.155  10.147  20.695  0.00  0.00    +0.000 A 
ATOM     23  C   UNL     1       0.770  10.018  19.452  0.00  0.00    +0.000 A 
ATOM     24  C   UNL     1       1.518   8.875  19.148  0.00  0.00    +0.000 A 
ATOM     25 CL   UNL     1       2.229   8.800  17.575  0.00  0.00    +0.000 Cl
ENDBRANCH  18  19
ENDBRANCH   4  18
TORSDOF 6
ENDMDL
MODEL 4
REMARK VINA RESULT:      -7.6      4.270      6.508
REMARK  Name = 
REMARK  6 active torsions:
REMARK  status: ('A' for Active; 'I' for Inactive)
REMARK    1  A    between atoms: C_2  and  C_3
REMARK    2  A    between atoms: C_3  and  N_4
REMARK    3  A    between atoms: N_9  and  C_10
REMARK    4  A    between atoms: C_10  and  C_11
REMARK    5  A    between atoms: N_14  and  C_15
REMARK    6  A    between atoms: C_15  and  C_16
REMARK                            x       y       z     vdW  Elec       q    Type
REMARK                         _______ _______ _______ _____ _____    ______ ____
ROOT
ATOM      1  C   UNL     1       7.190   5.821  17.982  0.00  0.00    +0.000 C 
ATOM      2  C   UNL     1       6.441   5.528  19.288  0.00  0.00    +0.000 C 
ATOM      3  C   UNL     1       5.017   5.028  19.035  0.00  0.00    +0.000 C 
ATOM      4  N   UNL     1       4.227   5.943  18.189  0.00  0.00    +0.000 NA
ATOM      5  C   UNL     1       4.922   6.297  16.941  0.00  0.00    +0.000 C 
ATOM      6  C   UNL     1       6.346   6.814  17.177  0.00  0.00    +0.000 C 
ENDROOT
BRANCH   1   7
ATOM      7  C   UNL     1       7.492   4.566  17.144  0.00  0.00    +0.000 C 
BRANCH   7  10
ATOM      8  O   UNL     1       5.892   3.222  15.239  0.00  0.00    +0.000 OA
ATOM      9  C   UNL     1       6.639   4.122  14.862  0.00  0.00    +0.000 C 
ATOM     10  N   UNL     1       7.464   4.825  15.719  0.00  0.00    +0.000 N 
ATOM     11  H   UNL     1       8.044   5.576  15.363  0.00  0.00    +0.000 HD
BRANCH   9  12
ATOM     12  C   UNL     1       6.707   4.545  13.416  0.00  0.00    +0.000 C 
BRANCH  12  13
ATOM     13  N   UNL     1       5.985   3.623  12.572  0.00  0.00    +0.000 N 
ATOM     14  C   UNL     1       4.718   3.741  12.089  0.00  0.00    +0.000 A 
ATOM     15  N   UNL     1       4.455   2.728  11.298  0.00  0.00    +0.000 NA
ATOM     16  C   UNL     1       5.615   2.006  11.325  0.00  0.00    +0.000 A 
ATOM     17  N   UNL     1       6.586   2.519  12.086  0.00  0.00    +0.000 NA
ENDBRANCH  12  13
ENDBRANCH   9  12
ENDBRANCH   7  10
ENDBRANCH   1   7
BRANCH   4  18
ATOM     18  C   UNL     1       2.913   5.304  17.914  0.00  0.00    +0.000 C 
BRANCH  18  19
ATOM     19  C   UNL     1       2.453   4.345  18.994  0.00  0.00    +0.000 A 
ATOM     20  C   UNL     1       1.988   4.875  20.212  0.00  0.00    +0.000 A 
ATOM     21  C   UNL     1       1.454   4.045  21.199  0.00  0.00    +0.000 A 
ATOM     22  C   UNL     1       1.378   2.671  20.987  0.00  0.00    +0.000 A 
ATOM     23  C   UNL     1       1.867   2.125  19.802  0.00  0.00    +0.000 A 
ATOM     24  C   UNL     1       2.413   2.951  18.814  0.00  0.00    +0.000 A 
ATOM     25 CL   UNL     1       3.007   2.178  17.387  0.00  0.00    +0.000 Cl
ENDBRANCH  18  19
ENDBRANCH   4  18
TORSDOF 6
ENDMDL
MODEL 5
REMARK VINA RESULT:      -7.6      4.872      6.590
REMARK  Name = 
REMARK  6 active torsions:
REMARK  status: ('A' for Active; 'I' for Inactive)
REMARK    1  A    between atoms: C_2  and  C_3
REMARK    2  A    between atoms: C_3  and  N_4
REMARK    3  A    between atoms: N_9  and  C_10
REMARK    4  A    between atoms: C_10  and  C_11
REMARK    5  A    between atoms: N_14  and  C_15
REMARK    6  A    between atoms: C_15  and  C_16
REMARK                            x       y       z     vdW  Elec       q    Type
REMARK                         _______ _______ _______ _____ _____    ______ ____
ROOT
ATOM      1  C   UNL     1       2.615   3.233  18.851  0.00  0.00    +0.000 C 
ATOM      2  C   UNL     1       2.553   4.313  17.765  0.00  0.00    +0.000 C 
ATOM      3  C   UNL     1       2.868   5.704  18.318  0.00  0.00    +0.000 C 
ATOM      4  N   UNL     1       2.010   6.080  19.458  0.00  0.00    +0.000 NA
ATOM      5  C   UNL     1       1.994   5.052  20.512  0.00  0.00    +0.000 C 
ATOM      6  C   UNL     1       1.666   3.653  19.978  0.00  0.00    +0.000 C 
ENDROOT
BRANCH   1   7
ATOM      7  C   UNL     1       4.030   2.987  19.403  0.00  0.00    +0.000 C 
BRANCH   7  10
ATOM      8  O   UNL     1       6.028   4.931  19.878  0.00  0.00    +0.000 OA
ATOM      9  C   UNL     1       6.014   4.341  18.800  0.00  0.00    +0.000 C 
ATOM     10  N   UNL     1       5.069   3.385  18.475  0.00  0.00    +0.000 N 
ATOM     11  H   UNL     1       5.114   2.910  17.582  0.00  0.00    +0.000 HD
BRANCH   9  12
ATOM     12  C   UNL     1       7.046   4.609  17.733  0.00  0.00    +0.000 C 
BRANCH  12  13
ATOM     13  N   UNL     1       6.422   4.818  16.448  0.00  0.00    +0.000 N 
ATOM     14  C   UNL     1       5.925   5.975  15.933  0.00  0.00    +0.000 A 
ATOM     15  N   UNL     1       5.508   5.765  14.707  0.00  0.00    +0.000 NA
ATOM     16  C   UNL     1       5.782   4.440  14.511  0.00  0.00    +0.000 A 
ATOM     17  N   UNL     1       6.350   3.818  15.547  0.00  0.00    +0.000 NA
ENDBRANCH  12  13
ENDBRANCH   9  12
ENDBRANCH   7  10
ENDBRANCH   1   7
BRANCH   4  18
ATOM     18  C   UNL     1       2.481   7.387  19.985  0.00  0.00    +0.000 C 
BRANCH  18  19
ATOM     19  C   UNL     1       1.371   8.391  20.228  0.00  0.00    +0.000 A 
ATOM     20  C   UNL     1       0.687   8.354  21.458  0.00  0.00    +0.000 A 
ATOM     21  C   UNL     1      -0.269   9.319  21.778  0.00  0.00    +0.000 A 
ATOM     22  C   UNL     1      -0.560  10.336  20.874  0.00  0.00    +0.000 A 
ATOM     23  C   UNL     1       0.079  10.368  19.637  0.00  0.00    +0.000 A 
ATOM     24  C   UNL     1       1.031   9.397  19.307  0.00  0.00    +0.000 A 
ATOM     25 CL   UNL     1       1.758   9.511  17.744  0.00  0.00    +0.000 Cl
ENDBRANCH  18  19
ENDBRANCH   4  18
TORSDOF 6
ENDMDL
MODEL 6
REMARK VINA RESULT:      -7.5      4.740      6.470
REMARK  Name = 
REMARK  6 active torsions:
REMARK  status: ('A' for Active; 'I' for Inactive)
REMARK    1  A    between atoms: C_2  and  C_3
REMARK    2  A    between atoms: C_3  and  N_4
REMARK    3  A    between atoms: N_9  and  C_10
REMARK    4  A    between atoms: C_10  and  C_11
REMARK    5  A    between atoms: N_14  and  C_15
REMARK    6  A    between atoms: C_15  and  C_16
REMARK                            x       y       z     vdW  Elec       q    Type
REMARK                         _______ _______ _______ _____ _____    ______ ____
ROOT
ATOM      1  C   UNL     1       3.069   3.410  18.984  0.00  0.00    +0.000 C 
ATOM      2  C   UNL     1       2.820   4.570  18.012  0.00  0.00    +0.000 C 
ATOM      3  C   UNL     1       2.874   5.929  18.711  0.00  0.00    +0.000 C 
ATOM      4  N   UNL     1       1.954   6.023  19.861  0.00  0.00    +0.000 NA
ATOM      5  C   UNL     1       2.117   4.904  20.804  0.00  0.00    +0.000 C 
ATOM      6  C   UNL     1       2.051   3.533  20.122  0.00  0.00    +0.000 C 
ENDROOT
BRANCH   1   7
ATOM      7  C   UNL     1       4.502   3.366  19.545  0.00  0.00    +0.000 C 
BRANCH   7  10
ATOM      8  O   UNL     1       6.579   5.249  19.910  0.00  0.00    +0.000 OA
ATOM      9  C   UNL     1       6.488   4.663  18.834  0.00  0.00    +0.000 C 
ATOM     10  N   UNL     1       5.499   3.736  18.561  0.00  0.00    +0.000 N 
ATOM     11  H   UNL     1       5.481   3.261  17.666  0.00  0.00    +0.000 HD
BRANCH   9  12
ATOM     12  C   UNL     1       7.467   4.903  17.712  0.00  0.00    +0.000 C 
BRANCH  12  13
ATOM     13  N   UNL     1       6.784   5.041  16.448  0.00  0.00    +0.000 N 
ATOM     14  C   UNL     1       6.990   4.342  15.299  0.00  0.00    +0.000 A 
ATOM     15  N   UNL     1       6.115   4.716  14.396  0.00  0.00    +0.000 NA
ATOM     16  C   UNL     1       5.377   5.660  15.053  0.00  0.00    +0.000 A 
ATOM     17  N   UNL     1       5.744   5.889  16.317  0.00  0.00    +0.000 NA
ENDBRANCH  12  13
ENDBRANCH   9  12
ENDBRANCH   7  10
ENDBRANCH   1   7
BRANCH   4  18
ATOM     18  C   UNL     1       2.176   7.332  20.530  0.00  0.00    +0.000 C 
BRANCH  18  19
ATOM     19  C   UNL     1       1.387   8.477  19.926  0.00  0.00    +0.000 A 
ATOM     20  C   UNL     1       1.640   8.837  18.589  0.00  0.00    +0.000 A 
ATOM     21  C   UNL     1       0.871   9.810  17.949  0.00  0.00    +0.000 A 
ATOM     22  C   UNL     1      -0.162  10.442  18.635  0.00  0.00    +0.000 A 
ATOM     23  C   UNL     1      -0.403  10.126  19.970  0.00  0.00    +0.000 A 
ATOM     24  C   UNL     1       0.372   9.158  20.619  0.00  0.00    +0.000 A 
ATOM     25 CL   UNL     1       0.006   8.846  22.279  0.00  0.00    +0.000 Cl
ENDBRANCH  18  19
ENDBRANCH   4  18
TORSDOF 6
ENDMDL
MODEL 7
REMARK VINA RESULT:      -7.5      1.554      1.824
REMARK  Name = 
REMARK  6 active torsions:
REMARK  status: ('A' for Active; 'I' for Inactive)
REMARK    1  A    between atoms: C_2  and  C_3
REMARK    2  A    between atoms: C_3  and  N_4
REMARK    3  A    between atoms: N_9  and  C_10
REMARK    4  A    between atoms: C_10  and  C_11
REMARK    5  A    between atoms: N_14  and  C_15
REMARK    6  A    between atoms: C_15  and  C_16
REMARK                            x       y       z     vdW  Elec       q    Type
REMARK                         _______ _______ _______ _____ _____    ______ ____
ROOT
ATOM      1  C   UNL     1       7.214   6.140  17.297  0.00  0.00    +0.000 C 
ATOM      2  C   UNL     1       5.946   6.632  16.590  0.00  0.00    +0.000 C 
ATOM      3  C   UNL     1       4.781   6.823  17.563  0.00  0.00    +0.000 C 
ATOM      4  N   UNL     1       4.485   5.612  18.353  0.00  0.00    +0.000 NA
ATOM      5  C   UNL     1       5.681   5.068  19.016  0.00  0.00    +0.000 C 
ATOM      6  C   UNL     1       6.854   4.856  18.053  0.00  0.00    +0.000 C 
ENDROOT
BRANCH   1   7
ATOM      7  C   UNL     1       7.832   7.173  18.255  0.00  0.00    +0.000 C 
BRANCH   7  10
ATOM      8  O   UNL     1       9.125   9.424  19.377  0.00  0.00    +0.000 OA
ATOM      9  C   UNL     1       8.520   9.551  18.315  0.00  0.00    +0.000 C 
ATOM     10  N   UNL     1       7.849   8.511  17.700  0.00  0.00    +0.000 N 
ATOM     11  H   UNL     1       7.384   8.661  16.812  0.00  0.00    +0.000 HD
BRANCH   9  12
ATOM     12  C   UNL     1       8.467  10.869  17.583  0.00  0.00    +0.000 C 
BRANCH  12  13
ATOM     13  N   UNL     1       9.488  11.770  18.063  0.00  0.00    +0.000 N 
ATOM     14  C   UNL     1       9.369  12.758  18.991  0.00  0.00    +0.000 A 
ATOM     15  N   UNL     1      10.544  13.301  19.205  0.00  0.00    +0.000 NA
ATOM     16  C   UNL     1      11.366  12.596  18.373  0.00  0.00    +0.000 A 
ATOM     17  N   UNL     1      10.767  11.640  17.657  0.00  0.00    +0.000 NA
ENDBRANCH  12  13
ENDBRANCH   9  12
ENDBRANCH   7  10
ENDBRANCH   1   7
BRANCH   4  18
ATOM     18  C   UNL     1       3.424   5.947  19.340  0.00  0.00    +0.000 C 
BRANCH  18  19
ATOM     19  C   UNL     1       2.650   4.746  19.846  0.00  0.00    +0.000 A 
ATOM     20  C   UNL     1       2.850   4.328  21.175  0.00  0.00    +0.000 A 
ATOM     21  C   UNL     1       2.088   3.297  21.726  0.00  0.00    +0.000 A 
ATOM     22  C   UNL     1       1.115   2.664  20.958  0.00  0.00    +0.000 A 
ATOM     23  C   UNL     1       0.928   3.039  19.629  0.00  0.00    +0.000 A 
ATOM     24  C   UNL     1       1.697   4.065  19.069  0.00  0.00    +0.000 A 
ATOM     25 CL   UNL     1       1.403   4.448  17.410  0.00  0.00    +0.000 Cl
ENDBRANCH  18  19
ENDBRANCH   4  18
TORSDOF 6
ENDMDL
MODEL 8
REMARK VINA RESULT:      -7.4      4.776      7.927
REMARK  Name = 
REMARK  6 active torsions:
REMARK  status: ('A' for Active; 'I' for Inactive)
REMARK    1  A    between atoms: C_2  and  C_3
REMARK    2  A    between atoms: C_3  and  N_4
REMARK    3  A    between atoms: N_9  and  C_10
REMARK    4  A    between atoms: C_10  and  C_11
REMARK    5  A    between atoms: N_14  and  C_15
REMARK    6  A    between atoms: C_15  and  C_16
REMARK                            x       y       z     vdW  Elec       q    Type
REMARK                         _______ _______ _______ _____ _____    ______ ____
ROOT
ATOM      1  C   UNL     1       5.978   5.184  17.628  0.00  0.00    +0.000 C 
ATOM      2  C   UNL     1       5.337   5.410  19.003  0.00  0.00    +0.000 C 
ATOM      3  C   UNL     1       3.890   5.894  18.891  0.00  0.00    +0.000 C 
ATOM      4  N   UNL     1       3.750   7.104  18.059  0.00  0.00    +0.000 NA
ATOM      5  C   UNL     1       4.392   6.959  16.742  0.00  0.00    +0.000 C 
ATOM      6  C   UNL     1       5.848   6.489  16.836  0.00  0.00    +0.000 C 
ENDROOT
BRANCH   1   7
ATOM      7  C   UNL     1       5.364   4.013  16.841  0.00  0.00    +0.000 C 
BRANCH   7  10
ATOM      8  O   UNL     1       2.617   3.343  16.850  0.00  0.00    +0.000 OA
ATOM      9  C   UNL     1       3.375   2.764  17.626  0.00  0.00    +0.000 C 
ATOM     10  N   UNL     1       4.729   3.034  17.699  0.00  0.00    +0.000 N 
ATOM     11  H   UNL     1       5.316   2.512  18.339  0.00  0.00    +0.000 HD
BRANCH   9  12
ATOM     12  C   UNL     1       2.884   1.691  18.565  0.00  0.00    +0.000 C 
BRANCH  12  13
ATOM     13  N   UNL     1       2.422   2.261  19.808  0.00  0.00    +0.000 N 
ATOM     14  C   UNL     1       3.154   2.577  20.911  0.00  0.00    +0.000 A 
ATOM     15  N   UNL     1       2.377   3.143  21.804  0.00  0.00    +0.000 NA
ATOM     16  C   UNL     1       1.157   3.156  21.188  0.00  0.00    +0.000 A 
ATOM     17  N   UNL     1       1.135   2.633  19.959  0.00  0.00    +0.000 NA
ENDBRANCH  12  13
ENDBRANCH   9  12
ENDBRANCH   7  10
ENDBRANCH   1   7
BRANCH   4  18
ATOM     18  C   UNL     1       2.302   7.412  17.924  0.00  0.00    +0.000 C 
BRANCH  18  19
ATOM     19  C   UNL     1       1.857   8.644  18.687  0.00  0.00    +0.000 A 
ATOM     20  C   UNL     1       1.871   9.886  18.025  0.00  0.00    +0.000 A 
ATOM     21  C   UNL     1       1.373  11.034  18.643  0.00  0.00    +0.000 A 
ATOM     22  C   UNL     1       0.856  10.961  19.933  0.00  0.00    +0.000 A 
ATOM     23  C   UNL     1       0.868   9.748  20.617  0.00  0.00    +0.000 A 
ATOM     24  C   UNL     1       1.376   8.597  20.006  0.00  0.00    +0.000 A 
ATOM     25 CL   UNL     1       1.362   7.143  20.941  0.00  0.00    +0.000 Cl
ENDBRANCH  18  19
ENDBRANCH   4  18
TORSDOF 6
ENDMDL
MODEL 9
REMARK VINA RESULT:      -7.4      3.757      5.766
REMARK  Name = 
REMARK  6 active torsions:
REMARK  status: ('A' for Active; 'I' for Inactive)
REMARK    1  A    between atoms: C_2  and  C_3
REMARK    2  A    between atoms: C_3  and  N_4
REMARK    3  A    between atoms: N_9  and  C_10
REMARK    4  A    between atoms: C_10  and  C_11
REMARK    5  A    between atoms: N_14  and  C_15
REMARK    6  A    between atoms: C_15  and  C_16
REMARK                            x       y       z     vdW  Elec       q    Type
REMARK                         _______ _______ _______ _____ _____    ______ ____
ROOT
ATOM      1  C   UNL     1       2.894   2.284  17.937  0.00  0.00    +0.000 C 
ATOM      2  C   UNL     1       1.464   2.619  18.378  0.00  0.00    +0.000 C 
ATOM      3  C   UNL     1       1.392   3.945  19.138  0.00  0.00    +0.000 C 
ATOM      4  N   UNL     1       2.307   3.998  20.295  0.00  0.00    +0.000 NA
ATOM      5  C   UNL     1       3.688   3.636  19.936  0.00  0.00    +0.000 C 
ATOM      6  C   UNL     1       3.781   2.302  19.187  0.00  0.00    +0.000 C 
ENDROOT
BRANCH   1   7
ATOM      7  C   UNL     1       3.454   3.237  16.866  0.00  0.00    +0.000 C 
BRANCH   7  10
ATOM      8  O   UNL     1       5.087   4.674  15.059  0.00  0.00    +0.000 OA
ATOM      9  C   UNL     1       5.604   4.148  16.043  0.00  0.00    +0.000 C 
ATOM     10  N   UNL     1       4.887   3.417  16.972  0.00  0.00    +0.000 N 
ATOM     11  H   UNL     1       5.356   3.023  17.779  0.00  0.00    +0.000 HD
BRANCH   9  12
ATOM     12  C   UNL     1       7.081   4.268  16.324  0.00  0.00    +0.000 C 
BRANCH  12  13
ATOM     13  N   UNL     1       7.353   5.385  17.197  0.00  0.00    +0.000 N 
ATOM     14  C   UNL     1       7.617   5.365  18.532  0.00  0.00    +0.000 A 
ATOM     15  N   UNL     1       7.884   6.582  18.943  0.00  0.00    +0.000 NA
ATOM     16  C   UNL     1       7.774   7.325  17.802  0.00  0.00    +0.000 A 
ATOM     17  N   UNL     1       7.458   6.635  16.703  0.00  0.00    +0.000 NA
ENDBRANCH  12  13
ENDBRANCH   9  12
ENDBRANCH   7  10
ENDBRANCH   1   7
BRANCH   4  18
ATOM     18  C   UNL     1       2.240   5.363  20.880  0.00  0.00    +0.000 C 
BRANCH  18  19
ATOM     19  C   UNL     1       2.429   6.478  19.871  0.00  0.00    +0.000 A 
ATOM     20  C   UNL     1       3.326   6.277  18.805  0.00  0.00    +0.000 A 
ATOM     21  C   UNL     1       3.460   7.225  17.790  0.00  0.00    +0.000 A 
ATOM     22  C   UNL     1       2.702   8.392  17.824  0.00  0.00    +0.000 A 
ATOM     23  C   UNL     1       1.836   8.626  18.890  0.00  0.00    +0.000 A 
ATOM     24  C   UNL     1       1.707   7.683  19.915  0.00  0.00    +0.000 A 
ATOM     25 CL   UNL     1       0.620   8.070  21.202  0.00  0.00    +0.000 Cl
ENDBRANCH  18  19
ENDBRANCH   4  18
TORSDOF 6
ENDMDL
