MODEL 1
REMARK VINA RESULT:      -8.2      0.000      0.000
REMARK  Name = 
REMARK  10 active torsions:
REMARK  status: ('A' for Active; 'I' for Inactive)
REMARK    1  A    between atoms: C_1  and  C_2
REMARK    2  A    between atoms: C_5  and  S_6
REMARK    3  A    between atoms: S_6  and  N_9
REMARK    4  A    between atoms: N_9  and  C_10
REMARK    5  A    between atoms: N_9  and  C_11
REMARK    6  A    between atoms: C_14  and  O_15
REMARK    7  A    between atoms: O_15  and  C_16
REMARK    8  A    between atoms: C_16  and  C_18
REMARK    9  A    between atoms: C_18  and  O_19
REMARK   10  A    between atoms: O_19  and  C_20
REMARK                            x       y       z     vdW  Elec       q    Type
REMARK                         _______ _______ _______ _____ _____    ______ ____
ROOT
ATOM      1  C   UNL     1       4.968   3.724  18.314  0.00  0.00    +0.000 A 
ATOM      2  C   UNL     1       5.484   4.500  19.355  0.00  0.00    +0.000 A 
ATOM      3  C   UNL     1       6.437   5.479  19.082  0.00  0.00    +0.000 A 
ATOM      4  C   UNL     1       6.877   5.678  17.772  0.00  0.00    +0.000 A 
ATOM      5  C   UNL     1       6.341   4.937  16.723  0.00  0.00    +0.000 A 
ATOM      6  C   UNL     1       5.380   3.961  17.000  0.00  0.00    +0.000 A 
ENDROOT
BRANCH   1   7
ATOM      7  N   UNL     1       3.970   2.724  18.565  0.00  0.00    +0.000 N 
ATOM      8  C   UNL     1       4.144   1.892  19.769  0.00  0.00    +0.000 C 
BRANCH   7   9
ATOM      9  S   UNL     1       2.371   3.103  18.096  0.00  0.00    +0.000 S 
ATOM     10  O   UNL     1       1.482   2.141  18.719  0.00  0.00    +0.000 OA
ATOM     11  O   UNL     1       2.333   3.302  16.662  0.00  0.00    +0.000 OA
BRANCH   9  16
ATOM     12  C   UNL     1       1.708   8.481  20.860  0.00  0.00    +0.000 C 
ATOM     13  C   UNL     1       1.784   7.156  20.157  0.00  0.00    +0.000 A 
ATOM     14  C   UNL     1       1.497   5.966  20.837  0.00  0.00    +0.000 A 
ATOM     15  C   UNL     1       1.628   4.733  20.192  0.00  0.00    +0.000 A 
ATOM     16  C   UNL     1       2.034   4.686  18.854  0.00  0.00    +0.000 A 
ATOM     17  C   UNL     1       2.331   5.866  18.167  0.00  0.00    +0.000 A 
ATOM     18  C   UNL     1       2.202   7.097  18.820  0.00  0.00    +0.000 A 
ENDBRANCH   9  16
ENDBRANCH   7   9
ENDBRANCH   1   7
BRANCH   4  19
ATOM     19  O   UNL     1       7.922   6.613  17.662  0.00  0.00    +0.000 OA
BRANCH  19  20
ATOM     20  C   UNL     1       7.658   7.979  17.579  0.00  0.00    +0.000 C 
ATOM     21  O   UNL     1       6.837   8.520  16.853  0.00  0.00    +0.000 OA
BRANCH  20  22
ATOM     22  C   UNL     1       8.593   8.694  18.533  0.00  0.00    +0.000 C 
BRANCH  22  23
ATOM     23  O   UNL     1       8.612  10.074  18.216  0.00  0.00    +0.000 OA
BRANCH  23  24
ATOM     24  C   UNL     1       9.612  10.802  18.800  0.00  0.00    +0.000 A 
ATOM     25  C   UNL     1      10.552  11.323  17.910  0.00  0.00    +0.000 A 
ATOM     26  C   UNL     1      11.601  12.116  18.374  0.00  0.00    +0.000 A 
ATOM     27  C   UNL     1      11.705  12.404  19.732  0.00  0.00    +0.000 A 
ATOM     28  C   UNL     1      10.763  11.894  20.624  0.00  0.00    +0.000 A 
ATOM     29  C   UNL     1       9.715  11.092  20.162  0.00  0.00    +0.000 A 
ENDBRANCH  23  24
ENDBRANCH  22  23
ENDBRANCH  20  22
ENDBRANCH  19  20
ENDBRANCH   4  19
TORSDOF 8
ENDMDL
MODEL 2
REMARK VINA RESULT:      -7.8      3.778      7.833
REMARK  Name = 
REMARK  10 active torsions:
REMARK  status: ('A' for Active; 'I' for Inactive)
REMARK    1  A    between atoms: C_1  and  C_2
REMARK    2  A    between atoms: C_5  and  S_6
REMARK    3  A    between atoms: S_6  and  N_9
REMARK    4  A    between atoms: N_9  and  C_10
REMARK    5  A    between atoms: N_9  and  C_11
REMARK    6  A    between atoms: C_14  and  O_15
REMARK    7  A    between atoms: O_15  and  C_16
REMARK    8  A    between atoms: C_16  and  C_18
REMARK    9  A    between atoms: C_18  and  O_19
REMARK   10  A    between atoms: O_19  and  C_20
REMARK                            x       y       z     vdW  Elec       q    Type
REMARK                         _______ _______ _______ _____ _____    ______ ____
ROOT
ATOM      1  C   UNL     1       2.055   4.695  19.279  0.00  0.00    +0.000 A 
ATOM      2  C   UNL     1       1.933   5.414  20.471  0.00  0.00    +0.000 A 
ATOM      3  C   UNL     1       1.895   6.805  20.441  0.00  0.00    +0.000 A 
ATOM      4  C   UNL     1       1.984   7.479  19.221  0.00  0.00    +0.000 A 
ATOM      5  C   UNL     1       2.066   6.773  18.024  0.00  0.00    +0.000 A 
ATOM      6  C   UNL     1       2.097   5.376  18.059  0.00  0.00    +0.000 A 
ENDROOT
BRANCH   1   7
ATOM      7  N   UNL     1       2.075   3.261  19.280  0.00  0.00    +0.000 N 
ATOM      8  C   UNL     1       1.057   2.576  18.465  0.00  0.00    +0.000 C 
BRANCH   7   9
ATOM      9  S   UNL     1       3.608   2.517  19.410  0.00  0.00    +0.000 S 
ATOM     10  O   UNL     1       3.620   1.358  18.536  0.00  0.00    +0.000 OA
ATOM     11  O   UNL     1       3.946   2.371  20.810  0.00  0.00    +0.000 OA
BRANCH   9  16
ATOM     12  C   UNL     1       7.108   6.876  17.010  0.00  0.00    +0.000 C 
ATOM     13  C   UNL     1       6.314   5.744  17.598  0.00  0.00    +0.000 A 
ATOM     14  C   UNL     1       5.640   4.837  16.771  0.00  0.00    +0.000 A 
ATOM     15  C   UNL     1       4.855   3.822  17.326  0.00  0.00    +0.000 A 
ATOM     16  C   UNL     1       4.753   3.701  18.715  0.00  0.00    +0.000 A 
ATOM     17  C   UNL     1       5.416   4.604  19.551  0.00  0.00    +0.000 A 
ATOM     18  C   UNL     1       6.196   5.621  18.989  0.00  0.00    +0.000 A 
ENDBRANCH   9  16
ENDBRANCH   7   9
ENDBRANCH   1   7
BRANCH   4  19
ATOM     19  O   UNL     1       2.051   8.878  19.351  0.00  0.00    +0.000 OA
BRANCH  19  20
ATOM     20  C   UNL     1       1.613   9.717  18.328  0.00  0.00    +0.000 C 
ATOM     21  O   UNL     1       2.272  10.112  17.377  0.00  0.00    +0.000 OA
BRANCH  20  22
ATOM     22  C   UNL     1       0.171  10.085  18.611  0.00  0.00    +0.000 C 
BRANCH  22  23
ATOM     23  O   UNL     1      -0.650   9.565  17.580  0.00  0.00    +0.000 OA
BRANCH  23  24
ATOM     24  C   UNL     1      -1.834  10.220  17.380  0.00  0.00    +0.000 A 
ATOM     25  C   UNL     1      -2.400  10.034  16.119  0.00  0.00    +0.000 A 
ATOM     26  C   UNL     1      -3.626  10.617  15.800  0.00  0.00    +0.000 A 
ATOM     27  C   UNL     1      -4.300  11.378  16.751  0.00  0.00    +0.000 A 
ATOM     28  C   UNL     1      -3.744  11.560  18.017  0.00  0.00    +0.000 A 
ATOM     29  C   UNL     1      -2.510  10.983  18.335  0.00  0.00    +0.000 A 
ENDBRANCH  23  24
ENDBRANCH  22  23
ENDBRANCH  20  22
ENDBRANCH  19  20
ENDBRANCH   4  19
TORSDOF 8
ENDMDL
MODEL 3
REMARK VINA RESULT:      -7.7      0.781      1.530
REMARK  Name = 
REMARK  10 active torsions:
REMARK  status: ('A' for Active; 'I' for Inactive)
REMARK    1  A    between atoms: C_1  and  C_2
REMARK    2  A    between atoms: C_5  and  S_6
REMARK    3  A    between atoms: S_6  and  N_9
REMARK    4  A    between atoms: N_9  and  C_10
REMARK    5  A    between atoms: N_9  and  C_11
REMARK    6  A    between atoms: C_14  and  O_15
REMARK    7  A    between atoms: O_15  and  C_16
REMARK    8  A    between atoms: C_16  and  C_18
REMARK    9  A    between atoms: C_18  and  O_19
REMARK   10  A    between atoms: O_19  and  C_20
REMARK                            x       y       z     vdW  Elec       q    Type
REMARK                         _______ _______ _______ _____ _____    ______ ____
ROOT
ATOM      1  C   UNL     1       4.552   3.702  18.276  0.00  0.00    +0.000 A 
ATOM      2  C   UNL     1       5.066   4.256  19.452  0.00  0.00    +0.000 A 
ATOM      3  C   UNL     1       6.099   5.186  19.386  0.00  0.00    +0.000 A 
ATOM      4  C   UNL     1       6.624   5.560  18.147  0.00  0.00    +0.000 A 
ATOM      5  C   UNL     1       6.093   5.045  16.968  0.00  0.00    +0.000 A 
ATOM      6  C   UNL     1       5.051   4.116  17.038  0.00  0.00    +0.000 A 
ENDROOT
BRANCH   1   7
ATOM      7  N   UNL     1       3.473   2.758  18.315  0.00  0.00    +0.000 N 
ATOM      8  C   UNL     1       3.834   1.334  18.430  0.00  0.00    +0.000 C 
BRANCH   7   9
ATOM      9  S   UNL     1       2.036   3.268  19.086  0.00  0.00    +0.000 S 
ATOM     10  O   UNL     1       2.098   2.848  20.474  0.00  0.00    +0.000 OA
ATOM     11  O   UNL     1       0.902   2.895  18.267  0.00  0.00    +0.000 OA
BRANCH   9  16
ATOM     12  C   UNL     1       1.814   9.347  19.030  0.00  0.00    +0.000 C 
ATOM     13  C   UNL     1       1.958   7.852  19.041  0.00  0.00    +0.000 A 
ATOM     14  C   UNL     1       2.053   7.132  17.844  0.00  0.00    +0.000 A 
ATOM     15  C   UNL     1       2.128   5.736  17.861  0.00  0.00    +0.000 A 
ATOM     16  C   UNL     1       2.122   5.053  19.082  0.00  0.00    +0.000 A 
ATOM     17  C   UNL     1       2.022   5.760  20.283  0.00  0.00    +0.000 A 
ATOM     18  C   UNL     1       1.943   7.157  20.259  0.00  0.00    +0.000 A 
ENDBRANCH   9  16
ENDBRANCH   7   9
ENDBRANCH   1   7
BRANCH   4  19
ATOM     19  O   UNL     1       7.737   6.414  18.238  0.00  0.00    +0.000 OA
BRANCH  19  20
ATOM     20  C   UNL     1       7.680   7.723  17.761  0.00  0.00    +0.000 C 
ATOM     21  O   UNL     1       7.039   8.121  16.800  0.00  0.00    +0.000 OA
BRANCH  20  22
ATOM     22  C   UNL     1       8.582   8.575  18.630  0.00  0.00    +0.000 C 
BRANCH  22  23
ATOM     23  O   UNL     1       8.528   9.917  18.177  0.00  0.00    +0.000 OA
BRANCH  23  24
ATOM     24  C   UNL     1       9.534  10.731  18.618  0.00  0.00    +0.000 A 
ATOM     25  C   UNL     1       9.582  10.907  20.001  0.00  0.00    +0.000 A 
ATOM     26  C   UNL     1      10.584  11.684  20.582  0.00  0.00    +0.000 A 
ATOM     27  C   UNL     1      11.555  12.276  19.779  0.00  0.00    +0.000 A 
ATOM     28  C   UNL     1      11.519  12.095  18.397  0.00  0.00    +0.000 A 
ATOM     29  C   UNL     1      10.510  11.323  17.813  0.00  0.00    +0.000 A 
ENDBRANCH  23  24
ENDBRANCH  22  23
ENDBRANCH  20  22
ENDBRANCH  19  20
ENDBRANCH   4  19
TORSDOF 8
ENDMDL
MODEL 4
REMARK VINA RESULT:      -7.6      3.934      7.901
REMARK  Name = 
REMARK  10 active torsions:
REMARK  status: ('A' for Active; 'I' for Inactive)
REMARK    1  A    between atoms: C_1  and  C_2
REMARK    2  A    between atoms: C_5  and  S_6
REMARK    3  A    between atoms: S_6  and  N_9
REMARK    4  A    between atoms: N_9  and  C_10
REMARK    5  A    between atoms: N_9  and  C_11
REMARK    6  A    between atoms: C_14  and  O_15
REMARK    7  A    between atoms: O_15  and  C_16
REMARK    8  A    between atoms: C_16  and  C_18
REMARK    9  A    between atoms: C_18  and  O_19
REMARK   10  A    between atoms: O_19  and  C_20
REMARK                            x       y       z     vdW  Elec       q    Type
REMARK                         _______ _______ _______ _____ _____    ______ ____
ROOT
ATOM      1  C   UNL     1       2.113   4.608  19.334  0.00  0.00    +0.000 A 
ATOM      2  C   UNL     1       1.968   5.242  20.571  0.00  0.00    +0.000 A 
ATOM      3  C   UNL     1       1.840   6.627  20.629  0.00  0.00    +0.000 A 
ATOM      4  C   UNL     1       1.861   7.380  19.453  0.00  0.00    +0.000 A 
ATOM      5  C   UNL     1       1.965   6.756  18.213  0.00  0.00    +0.000 A 
ATOM      6  C   UNL     1       2.087   5.364  18.159  0.00  0.00    +0.000 A 
ENDROOT
BRANCH   1   7
ATOM      7  N   UNL     1       2.226   3.181  19.245  0.00  0.00    +0.000 N 
ATOM      8  C   UNL     1       1.113   2.461  18.602  0.00  0.00    +0.000 C 
BRANCH   7   9
ATOM      9  S   UNL     1       3.799   2.549  19.030  0.00  0.00    +0.000 S 
ATOM     10  O   UNL     1       3.757   1.610  17.924  0.00  0.00    +0.000 OA
ATOM     11  O   UNL     1       4.321   2.132  20.315  0.00  0.00    +0.000 OA
BRANCH   9  16
ATOM     12  C   UNL     1       7.557   6.971  17.205  0.00  0.00    +0.000 C 
ATOM     13  C   UNL     1       6.564   5.940  17.661  0.00  0.00    +0.000 A 
ATOM     14  C   UNL     1       6.346   5.708  19.025  0.00  0.00    +0.000 A 
ATOM     15  C   UNL     1       5.464   4.707  19.441  0.00  0.00    +0.000 A 
ATOM     16  C   UNL     1       4.782   3.940  18.490  0.00  0.00    +0.000 A 
ATOM     17  C   UNL     1       4.996   4.158  17.126  0.00  0.00    +0.000 A 
ATOM     18  C   UNL     1       5.883   5.158  16.716  0.00  0.00    +0.000 A 
ENDBRANCH   9  16
ENDBRANCH   7   9
ENDBRANCH   1   7
BRANCH   4  19
ATOM     19  O   UNL     1       1.841   8.769  19.670  0.00  0.00    +0.000 OA
BRANCH  19  20
ATOM     20  C   UNL     1       0.688   9.410  20.118  0.00  0.00    +0.000 C 
ATOM     21  O   UNL     1       0.125   9.232  21.189  0.00  0.00    +0.000 OA
BRANCH  20  22
ATOM     22  C   UNL     1       0.227  10.358  19.031  0.00  0.00    +0.000 C 
BRANCH  22  23
ATOM     23  O   UNL     1      -1.056  10.858  19.364  0.00  0.00    +0.000 OA
BRANCH  23  24
ATOM     24  C   UNL     1      -1.970  10.865  18.348  0.00  0.00    +0.000 A 
ATOM     25  C   UNL     1      -1.674  10.007  17.288  0.00  0.00    +0.000 A 
ATOM     26  C   UNL     1      -2.546   9.893  16.205  0.00  0.00    +0.000 A 
ATOM     27  C   UNL     1      -3.729  10.626  16.187  0.00  0.00    +0.000 A 
ATOM     28  C   UNL     1      -4.035  11.477  17.248  0.00  0.00    +0.000 A 
ATOM     29  C   UNL     1      -3.158  11.600  18.330  0.00  0.00    +0.000 A 
ENDBRANCH  23  24
ENDBRANCH  22  23
ENDBRANCH  20  22
ENDBRANCH  19  20
ENDBRANCH   4  19
TORSDOF 8
ENDMDL
MODEL 5
REMARK VINA RESULT:      -7.6      0.738      1.168
REMARK  Name = 
REMARK  10 active torsions:
REMARK  status: ('A' for Active; 'I' for Inactive)
REMARK    1  A    between atoms: C_1  and  C_2
REMARK    2  A    between atoms: C_5  and  S_6
REMARK    3  A    between atoms: S_6  and  N_9
REMARK    4  A    between atoms: N_9  and  C_10
REMARK    5  A    between atoms: N_9  and  C_11
REMARK    6  A    between atoms: C_14  and  O_15
REMARK    7  A    between atoms: O_15  and  C_16
REMARK    8  A    between atoms: C_16  and  C_18
REMARK    9  A    between atoms: C_18  and  O_19
REMARK   10  A    between atoms: O_19  and  C_20
REMARK                            x       y       z     vdW  Elec       q    Type
REMARK                         _______ _______ _______ _____ _____    ______ ____
ROOT
ATOM      1  C   UNL     1       5.010   3.892  18.293  0.00  0.00    +0.000 A 
ATOM      2  C   UNL     1       5.501   4.503  19.451  0.00  0.00    +0.000 A 
ATOM      3  C   UNL     1       6.466   5.502  19.351  0.00  0.00    +0.000 A 
ATOM      4  C   UNL     1       6.944   5.887  18.097  0.00  0.00    +0.000 A 
ATOM      5  C   UNL     1       6.433   5.314  16.936  0.00  0.00    +0.000 A 
ATOM      6  C   UNL     1       5.459   4.316  17.040  0.00  0.00    +0.000 A 
ENDROOT
BRANCH   1   7
ATOM      7  N   UNL     1       4.000   2.876  18.367  0.00  0.00    +0.000 N 
ATOM      8  C   UNL     1       4.228   1.774  19.319  0.00  0.00    +0.000 C 
BRANCH   7   9
ATOM      9  S   UNL     1       2.386   3.381  18.123  0.00  0.00    +0.000 S 
ATOM     10  O   UNL     1       1.516   2.460  18.830  0.00  0.00    +0.000 OA
ATOM     11  O   UNL     1       2.178   3.634  16.712  0.00  0.00    +0.000 OA
BRANCH   9  16
ATOM     12  C   UNL     1       1.482   8.756  20.825  0.00  0.00    +0.000 C 
ATOM     13  C   UNL     1       1.792   7.436  20.179  0.00  0.00    +0.000 A 
ATOM     14  C   UNL     1       2.205   7.371  18.842  0.00  0.00    +0.000 A 
ATOM     15  C   UNL     1       2.435   6.135  18.231  0.00  0.00    +0.000 A 
ATOM     16  C   UNL     1       2.265   4.954  18.961  0.00  0.00    +0.000 A 
ATOM     17  C   UNL     1       1.847   5.005  20.294  0.00  0.00    +0.000 A 
ATOM     18  C   UNL     1       1.615   6.245  20.899  0.00  0.00    +0.000 A 
ENDBRANCH   9  16
ENDBRANCH   7   9
ENDBRANCH   1   7
BRANCH   4  19
ATOM     19  O   UNL     1       7.996   6.818  18.154  0.00  0.00    +0.000 OA
BRANCH  19  20
ATOM     20  C   UNL     1       7.798   8.150  17.795  0.00  0.00    +0.000 C 
ATOM     21  O   UNL     1       7.058   8.566  16.915  0.00  0.00    +0.000 OA
BRANCH  20  22
ATOM     22  C   UNL     1       8.687   9.008  18.673  0.00  0.00    +0.000 C 
BRANCH  22  23
ATOM     23  O   UNL     1       9.053  10.176  17.961  0.00  0.00    +0.000 OA
BRANCH  23  24
ATOM     24  C   UNL     1       9.539  11.204  18.721  0.00  0.00    +0.000 A 
ATOM     25  C   UNL     1       9.238  12.479  18.242  0.00  0.00    +0.000 A 
ATOM     26  C   UNL     1       9.645  13.613  18.945  0.00  0.00    +0.000 A 
ATOM     27  C   UNL     1      10.341  13.474  20.142  0.00  0.00    +0.000 A 
ATOM     28  C   UNL     1      10.636  12.202  20.631  0.00  0.00    +0.000 A 
ATOM     29  C   UNL     1      10.237  11.064  19.923  0.00  0.00    +0.000 A 
ENDBRANCH  23  24
ENDBRANCH  22  23
ENDBRANCH  20  22
ENDBRANCH  19  20
ENDBRANCH   4  19
TORSDOF 8
ENDMDL
MODEL 6
REMARK VINA RESULT:      -7.6      4.522      8.387
REMARK  Name = 
REMARK  10 active torsions:
REMARK  status: ('A' for Active; 'I' for Inactive)
REMARK    1  A    between atoms: C_1  and  C_2
REMARK    2  A    between atoms: C_5  and  S_6
REMARK    3  A    between atoms: S_6  and  N_9
REMARK    4  A    between atoms: N_9  and  C_10
REMARK    5  A    between atoms: N_9  and  C_11
REMARK    6  A    between atoms: C_14  and  O_15
REMARK    7  A    between atoms: O_15  and  C_16
REMARK    8  A    between atoms: C_16  and  C_18
REMARK    9  A    between atoms: C_18  and  O_19
REMARK   10  A    between atoms: O_19  and  C_20
REMARK                            x       y       z     vdW  Elec       q    Type
REMARK                         _______ _______ _______ _____ _____    ______ ____
ROOT
ATOM      1  C   UNL     1       2.282   6.374  19.101  0.00  0.00    +0.000 A 
ATOM      2  C   UNL     1       1.857   6.785  20.367  0.00  0.00    +0.000 A 
ATOM      3  C   UNL     1       1.461   8.104  20.570  0.00  0.00    +0.000 A 
ATOM      4  C   UNL     1       1.495   9.014  19.512  0.00  0.00    +0.000 A 
ATOM      5  C   UNL     1       1.879   8.606  18.238  0.00  0.00    +0.000 A 
ATOM      6  C   UNL     1       2.269   7.279  18.036  0.00  0.00    +0.000 A 
ENDROOT
BRANCH   1   7
ATOM      7  N   UNL     1       2.675   5.016  18.859  0.00  0.00    +0.000 N 
ATOM      8  C   UNL     1       1.898   4.262  17.860  0.00  0.00    +0.000 C 
BRANCH   7   9
ATOM      9  S   UNL     1       4.344   4.668  18.983  0.00  0.00    +0.000 S 
ATOM     10  O   UNL     1       4.483   3.297  19.437  0.00  0.00    +0.000 OA
ATOM     11  O   UNL     1       4.998   5.740  19.703  0.00  0.00    +0.000 OA
BRANCH   9  16
ATOM     12  C   UNL     1       6.880   4.870  13.457  0.00  0.00    +0.000 C 
ATOM     13  C   UNL     1       6.174   4.825  14.781  0.00  0.00    +0.000 A 
ATOM     14  C   UNL     1       5.838   6.007  15.455  0.00  0.00    +0.000 A 
ATOM     15  C   UNL     1       5.234   5.957  16.714  0.00  0.00    +0.000 A 
ATOM     16  C   UNL     1       4.949   4.720  17.302  0.00  0.00    +0.000 A 
ATOM     17  C   UNL     1       5.284   3.534  16.643  0.00  0.00    +0.000 A 
ATOM     18  C   UNL     1       5.893   3.591  15.385  0.00  0.00    +0.000 A 
ENDBRANCH   9  16
ENDBRANCH   7   9
ENDBRANCH   1   7
BRANCH   4  19
ATOM     19  O   UNL     1       1.182  10.332  19.889  0.00  0.00    +0.000 OA
BRANCH  19  20
ATOM     20  C   UNL     1       1.257  11.379  18.971  0.00  0.00    +0.000 C 
ATOM     21  O   UNL     1       2.264  11.787  18.411  0.00  0.00    +0.000 OA
BRANCH  20  22
ATOM     22  C   UNL     1      -0.135  11.953  18.803  0.00  0.00    +0.000 C 
BRANCH  22  23
ATOM     23  O   UNL     1      -1.085  10.912  18.938  0.00  0.00    +0.000 OA
BRANCH  23  24
ATOM     24  C   UNL     1      -2.075  10.888  17.994  0.00  0.00    +0.000 A 
ATOM     25  C   UNL     1      -1.857  10.000  16.940  0.00  0.00    +0.000 A 
ATOM     26  C   UNL     1      -2.809   9.853  15.931  0.00  0.00    +0.000 A 
ATOM     27  C   UNL     1      -3.992  10.584  15.982  0.00  0.00    +0.000 A 
ATOM     28  C   UNL     1      -4.220  11.465  17.038  0.00  0.00    +0.000 A 
ATOM     29  C   UNL     1      -3.263  11.620  18.046  0.00  0.00    +0.000 A 
ENDBRANCH  23  24
ENDBRANCH  22  23
ENDBRANCH  20  22
ENDBRANCH  19  20
ENDBRANCH   4  19
TORSDOF 8
ENDMDL
MODEL 7
REMARK VINA RESULT:      -7.6      3.735      7.804
REMARK  Name = 
REMARK  10 active torsions:
REMARK  status: ('A' for Active; 'I' for Inactive)
REMARK    1  A    between atoms: C_1  and  C_2
REMARK    2  A    between atoms: C_5  and  S_6
REMARK    3  A    between atoms: S_6  and  N_9
REMARK    4  A    between atoms: N_9  and  C_10
REMARK    5  A    between atoms: N_9  and  C_11
REMARK    6  A    between atoms: C_14  and  O_15
REMARK    7  A    between atoms: O_15  and  C_16
REMARK    8  A    between atoms: C_16  and  C_18
REMARK    9  A    between atoms: C_18  and  O_19
REMARK   10  A    between atoms: O_19  and  C_20
REMARK                            x       y       z     vdW  Elec       q    Type
REMARK                         _______ _______ _______ _____ _____    ______ ____
ROOT
ATOM      1  C   UNL     1       2.051   4.583  19.395  0.00  0.00    +0.000 A 
ATOM      2  C   UNL     1       2.052   5.395  18.258  0.00  0.00    +0.000 A 
ATOM      3  C   UNL     1       1.979   6.779  18.395  0.00  0.00    +0.000 A 
ATOM      4  C   UNL     1       1.900   7.351  19.666  0.00  0.00    +0.000 A 
ATOM      5  C   UNL     1       1.939   6.554  20.807  0.00  0.00    +0.000 A 
ATOM      6  C   UNL     1       2.019   5.165  20.665  0.00  0.00    +0.000 A 
ENDROOT
BRANCH   1   7
ATOM      7  N   UNL     1       2.146   3.156  19.283  0.00  0.00    +0.000 N 
ATOM      8  C   UNL     1       1.046   2.464  18.588  0.00  0.00    +0.000 C 
BRANCH   7   9
ATOM      9  S   UNL     1       3.717   2.505  19.108  0.00  0.00    +0.000 S 
ATOM     10  O   UNL     1       3.676   1.513  18.050  0.00  0.00    +0.000 OA
ATOM     11  O   UNL     1       4.228   2.148  20.415  0.00  0.00    +0.000 OA
BRANCH   9  16
ATOM     12  C   UNL     1       7.510   6.805  17.077  0.00  0.00    +0.000 C 
ATOM     13  C   UNL     1       6.509   5.806  17.583  0.00  0.00    +0.000 A 
ATOM     14  C   UNL     1       6.320   5.615  18.957  0.00  0.00    +0.000 A 
ATOM     15  C   UNL     1       5.430   4.642  19.421  0.00  0.00    +0.000 A 
ATOM     16  C   UNL     1       4.712   3.862  18.509  0.00  0.00    +0.000 A 
ATOM     17  C   UNL     1       4.897   4.039  17.134  0.00  0.00    +0.000 A 
ATOM     18  C   UNL     1       5.793   5.011  16.677  0.00  0.00    +0.000 A 
ENDBRANCH   9  16
ENDBRANCH   7   9
ENDBRANCH   1   7
BRANCH   4  19
ATOM     19  O   UNL     1       1.714   8.744  19.650  0.00  0.00    +0.000 OA
BRANCH  19  20
ATOM     20  C   UNL     1       0.635   9.334  20.307  0.00  0.00    +0.000 C 
ATOM     21  O   UNL     1      -0.076   8.811  21.154  0.00  0.00    +0.000 OA
BRANCH  20  22
ATOM     22  C   UNL     1       0.473  10.740  19.770  0.00  0.00    +0.000 C 
BRANCH  22  23
ATOM     23  O   UNL     1       0.088  10.675  18.409  0.00  0.00    +0.000 OA
BRANCH  23  24
ATOM     24  C   UNL     1      -1.253  10.787  18.167  0.00  0.00    +0.000 A 
ATOM     25  C   UNL     1      -1.755   9.889  17.224  0.00  0.00    +0.000 A 
ATOM     26  C   UNL     1      -3.115   9.875  16.915  0.00  0.00    +0.000 A 
ATOM     27  C   UNL     1      -3.983  10.750  17.561  0.00  0.00    +0.000 A 
ATOM     28  C   UNL     1      -3.489  11.643  18.511  0.00  0.00    +0.000 A 
ATOM     29  C   UNL     1      -2.124  11.665  18.816  0.00  0.00    +0.000 A 
ENDBRANCH  23  24
ENDBRANCH  22  23
ENDBRANCH  20  22
ENDBRANCH  19  20
ENDBRANCH   4  19
TORSDOF 8
ENDMDL
MODEL 8
REMARK VINA RESULT:      -7.6      3.710      7.800
REMARK  Name = 
REMARK  10 active torsions:
REMARK  status: ('A' for Active; 'I' for Inactive)
REMARK    1  A    between atoms: C_1  and  C_2
REMARK    2  A    between atoms: C_5  and  S_6
REMARK    3  A    between atoms: S_6  and  N_9
REMARK    4  A    between atoms: N_9  and  C_10
REMARK    5  A    between atoms: N_9  and  C_11
REMARK    6  A    between atoms: C_14  and  O_15
REMARK    7  A    between atoms: O_15  and  C_16
REMARK    8  A    between atoms: C_16  and  C_18
REMARK    9  A    between atoms: C_18  and  O_19
REMARK   10  A    between atoms: O_19  and  C_20
REMARK                            x       y       z     vdW  Elec       q    Type
REMARK                         _______ _______ _______ _____ _____    ______ ____
ROOT
ATOM      1  C   UNL     1       2.098   5.001  19.373  0.00  0.00    +0.000 A 
ATOM      2  C   UNL     1       1.920   5.668  20.588  0.00  0.00    +0.000 A 
ATOM      3  C   UNL     1       1.770   7.052  20.604  0.00  0.00    +0.000 A 
ATOM      4  C   UNL     1       1.802   7.771  19.408  0.00  0.00    +0.000 A 
ATOM      5  C   UNL     1       1.939   7.114  18.188  0.00  0.00    +0.000 A 
ATOM      6  C   UNL     1       2.083   5.723  18.176  0.00  0.00    +0.000 A 
ENDROOT
BRANCH   1   7
ATOM      7  N   UNL     1       2.234   3.574  19.327  0.00  0.00    +0.000 N 
ATOM      8  C   UNL     1       1.077   2.777  19.770  0.00  0.00    +0.000 C 
BRANCH   7   9
ATOM      9  S   UNL     1       3.189   2.936  18.061  0.00  0.00    +0.000 S 
ATOM     10  O   UNL     1       2.443   3.073  16.824  0.00  0.00    +0.000 OA
ATOM     11  O   UNL     1       3.698   1.640  18.460  0.00  0.00    +0.000 OA
BRANCH   9  16
ATOM     12  C   UNL     1       7.634   7.076  17.740  0.00  0.00    +0.000 C 
ATOM     13  C   UNL     1       6.597   5.992  17.797  0.00  0.00    +0.000 A 
ATOM     14  C   UNL     1       5.892   5.613  16.647  0.00  0.00    +0.000 A 
ATOM     15  C   UNL     1       4.886   4.645  16.720  0.00  0.00    +0.000 A 
ATOM     16  C   UNL     1       4.591   4.037  17.945  0.00  0.00    +0.000 A 
ATOM     17  C   UNL     1       5.284   4.411  19.100  0.00  0.00    +0.000 A 
ATOM     18  C   UNL     1       6.285   5.384  19.022  0.00  0.00    +0.000 A 
ENDBRANCH   9  16
ENDBRANCH   7   9
ENDBRANCH   1   7
BRANCH   4  19
ATOM     19  O   UNL     1       1.756   9.165  19.584  0.00  0.00    +0.000 OA
BRANCH  19  20
ATOM     20  C   UNL     1       1.491  10.017  18.513  0.00  0.00    +0.000 C 
ATOM     21  O   UNL     1       2.100  10.069  17.454  0.00  0.00    +0.000 OA
BRANCH  20  22
ATOM     22  C   UNL     1       0.321  10.900  18.898  0.00  0.00    +0.000 C 
BRANCH  22  23
ATOM     23  O   UNL     1      -0.848  10.105  18.991  0.00  0.00    +0.000 OA
BRANCH  23  24
ATOM     24  C   UNL     1      -1.862  10.443  18.138  0.00  0.00    +0.000 A 
ATOM     25  C   UNL     1      -1.829   9.794  16.903  0.00  0.00    +0.000 A 
ATOM     26  C   UNL     1      -2.828  10.022  15.957  0.00  0.00    +0.000 A 
ATOM     27  C   UNL     1      -3.876  10.890  16.251  0.00  0.00    +0.000 A 
ATOM     28  C   UNL     1      -3.920  11.533  17.487  0.00  0.00    +0.000 A 
ATOM     29  C   UNL     1      -2.915  11.312  18.433  0.00  0.00    +0.000 A 
ENDBRANCH  23  24
ENDBRANCH  22  23
ENDBRANCH  20  22
ENDBRANCH  19  20
ENDBRANCH   4  19
TORSDOF 8
ENDMDL
MODEL 9
REMARK VINA RESULT:      -7.5      3.666      7.819
REMARK  Name = 
REMARK  10 active torsions:
REMARK  status: ('A' for Active; 'I' for Inactive)
REMARK    1  A    between atoms: C_1  and  C_2
REMARK    2  A    between atoms: C_5  and  S_6
REMARK    3  A    between atoms: S_6  and  N_9
REMARK    4  A    between atoms: N_9  and  C_10
REMARK    5  A    between atoms: N_9  and  C_11
REMARK    6  A    between atoms: C_14  and  O_15
REMARK    7  A    between atoms: O_15  and  C_16
REMARK    8  A    between atoms: C_16  and  C_18
REMARK    9  A    between atoms: C_18  and  O_19
REMARK   10  A    between atoms: O_19  and  C_20
REMARK                            x       y       z     vdW  Elec       q    Type
REMARK                         _______ _______ _______ _____ _____    ______ ____
ROOT
ATOM      1  C   UNL     1       2.098   5.076  19.115  0.00  0.00    +0.000 A 
ATOM      2  C   UNL     1       2.377   6.124  18.234  0.00  0.00    +0.000 A 
ATOM      3  C   UNL     1       2.295   7.441  18.677  0.00  0.00    +0.000 A 
ATOM      4  C   UNL     1       1.931   7.713  19.997  0.00  0.00    +0.000 A 
ATOM      5  C   UNL     1       1.690   6.675  20.894  0.00  0.00    +0.000 A 
ATOM      6  C   UNL     1       1.779   5.354  20.447  0.00  0.00    +0.000 A 
ENDROOT
BRANCH   1   7
ATOM      7  N   UNL     1       2.195   3.709  18.689  0.00  0.00    +0.000 N 
ATOM      8  C   UNL     1       1.487   3.342  17.451  0.00  0.00    +0.000 C 
BRANCH   7   9
ATOM      9  S   UNL     1       3.668   2.907  19.019  0.00  0.00    +0.000 S 
ATOM     10  O   UNL     1       3.757   1.754  18.143  0.00  0.00    +0.000 OA
ATOM     11  O   UNL     1       3.805   2.741  20.451  0.00  0.00    +0.000 OA
BRANCH   9  16
ATOM     12  C   UNL     1       7.630   7.167  17.241  0.00  0.00    +0.000 C 
ATOM     13  C   UNL     1       6.718   6.055  17.671  0.00  0.00    +0.000 A 
ATOM     14  C   UNL     1       6.002   5.309  16.726  0.00  0.00    +0.000 A 
ATOM     15  C   UNL     1       5.109   4.315  17.137  0.00  0.00    +0.000 A 
ATOM     16  C   UNL     1       4.939   4.051  18.500  0.00  0.00    +0.000 A 
ATOM     17  C   UNL     1       5.643   4.793  19.453  0.00  0.00    +0.000 A 
ATOM     18  C   UNL     1       6.531   5.790  19.036  0.00  0.00    +0.000 A 
ENDBRANCH   9  16
ENDBRANCH   7   9
ENDBRANCH   1   7
BRANCH   4  19
ATOM     19  O   UNL     1       1.775   9.082  20.272  0.00  0.00    +0.000 OA
BRANCH  19  20
ATOM     20  C   UNL     1       0.975   9.518  21.327  0.00  0.00    +0.000 C 
ATOM     21  O   UNL     1       1.247   9.465  22.518  0.00  0.00    +0.000 OA
BRANCH  20  22
ATOM     22  C   UNL     1      -0.318  10.050  20.744  0.00  0.00    +0.000 C 
BRANCH  22  23
ATOM     23  O   UNL     1      -0.100  10.423  19.395  0.00  0.00    +0.000 OA
BRANCH  23  24
ATOM     24  C   UNL     1      -1.226  10.629  18.648  0.00  0.00    +0.000 A 
ATOM     25  C   UNL     1      -1.304   9.865  17.483  0.00  0.00    +0.000 A 
ATOM     26  C   UNL     1      -2.421   9.954  16.652  0.00  0.00    +0.000 A 
ATOM     27  C   UNL     1      -3.474  10.797  16.994  0.00  0.00    +0.000 A 
ATOM     28  C   UNL     1      -3.407  11.555  18.162  0.00  0.00    +0.000 A 
ATOM     29  C   UNL     1      -2.284  11.474  18.992  0.00  0.00    +0.000 A 
ENDBRANCH  23  24
ENDBRANCH  22  23
ENDBRANCH  20  22
ENDBRANCH  19  20
ENDBRANCH   4  19
TORSDOF 8
ENDMDL
