MODEL 1
REMARK VINA RESULT:      -8.9      0.000      0.000
REMARK  Name = 
REMARK  9 active torsions:
REMARK  status: ('A' for Active; 'I' for Inactive)
REMARK    1  A    between atoms: C_1  and  C_2
REMARK    2  A    between atoms: C_5  and  C_6
REMARK    3  A    between atoms: C_7  and  C_8
REMARK    4  A    between atoms: C_10  and  C_11
REMARK    5  A    between atoms: C_11  and  O_12
REMARK    6  A    between atoms: O_12  and  C_13
REMARK    7  A    between atoms: C_21  and  C_22
REMARK    8  A    between atoms: C_22  and  C_23
REMARK    9  A    between atoms: C_23  and  O_25
REMARK                            x       y       z     vdW  Elec       q    Type
REMARK                         _______ _______ _______ _____ _____    ______ ____
ROOT
ATOM      1  C   UNL     1       8.333   9.431  17.877  0.00  0.00    +0.000 C 
ENDROOT
BRANCH   1   4
ATOM      2  C   UNL     1       9.825  12.865  18.718  0.00  0.00    +0.000 A 
ATOM      3  C   UNL     1       9.310  11.755  18.018  0.00  0.00    +0.000 A 
ATOM      4  C   UNL     1       9.027  10.527  18.644  0.00  0.00    +0.000 A 
ATOM      5  C   UNL     1       9.336  10.363  19.990  0.00  0.00    +0.000 A 
ATOM      6  C   UNL     1       9.862  11.431  20.704  0.00  0.00    +0.000 A 
ATOM      7  C   UNL     1      10.051  12.683  20.096  0.00  0.00    +0.000 A 
ATOM      8 CL   UNL     1      10.418  13.949  21.209  0.00  0.00    +0.000 Cl
BRANCH   2  15
ATOM      9  C   UNL     1       8.251  15.889  18.715  0.00  0.00    +0.000 C 
ATOM     10  C   UNL     1       9.436  15.390  17.975  0.00  0.00    +0.000 A 
ATOM     11  N   UNL     1      10.059  16.259  17.169  0.00  0.00    +0.000 NA
ATOM     12  O   UNL     1      11.136  15.594  16.651  0.00  0.00    +0.000 OA
ATOM     13  C   UNL     1      11.177  14.325  17.133  0.00  0.00    +0.000 A 
ATOM     14  C   UNL     1      12.333  13.543  16.638  0.00  0.00    +0.000 C 
ATOM     15  C   UNL     1      10.092  14.111  17.979  0.00  0.00    +0.000 A 
ENDBRANCH   2  15
ENDBRANCH   1   4
BRANCH   1  16
ATOM     16  O   UNL     1       8.529   8.186  18.552  0.00  0.00    +0.000 OA
BRANCH  16  17
ATOM     17  C   UNL     1       7.735   7.165  18.100  0.00  0.00    +0.000 A 
ATOM     18  C   UNL     1       7.604   6.063  18.962  0.00  0.00    +0.000 A 
ATOM     19  C   UNL     1       6.857   4.938  18.591  0.00  0.00    +0.000 A 
ATOM     20  C   UNL     1       6.247   4.944  17.344  0.00  0.00    +0.000 A 
ATOM     21  C   UNL     1       6.367   6.046  16.515  0.00  0.00    +0.000 A 
ATOM     22  C   UNL     1       7.075   7.168  16.869  0.00  0.00    +0.000 A 
ATOM     23  O   UNL     1       5.706   5.916  15.320  0.00  0.00    +0.000 OA
ATOM     24  C   UNL     1       5.443   4.498  15.246  0.00  0.00    +0.000 C 
ATOM     25  C   UNL     1       5.380   3.931  16.679  0.00  0.00    +0.000 C 
BRANCH  25  26
ATOM     26  C   UNL     1       3.965   3.940  17.249  0.00  0.00    +0.000 C 
BRANCH  26  27
ATOM     27  C   UNL     1       3.785   2.831  18.260  0.00  0.00    +0.000 C 
ATOM     28  O   UNL     1       3.284   2.982  19.367  0.00  0.00    +0.000 OA
BRANCH  27  29
ATOM     29  O   UNL     1       4.223   1.631  17.822  0.00  0.00    +0.000 OA
ATOM     30  H   UNL     1       4.136   0.906  18.471  0.00  0.00    +0.000 HD
ENDBRANCH  27  29
ENDBRANCH  26  27
ENDBRANCH  25  26
ENDBRANCH  16  17
ENDBRANCH   1  16
TORSDOF 7
ENDMDL
MODEL 2
REMARK VINA RESULT:      -8.3      7.726     10.615
REMARK  Name = 
REMARK  9 active torsions:
REMARK  status: ('A' for Active; 'I' for Inactive)
REMARK    1  A    between atoms: C_1  and  C_2
REMARK    2  A    between atoms: C_5  and  C_6
REMARK    3  A    between atoms: C_7  and  C_8
REMARK    4  A    between atoms: C_10  and  C_11
REMARK    5  A    between atoms: C_11  and  O_12
REMARK    6  A    between atoms: O_12  and  C_13
REMARK    7  A    between atoms: C_21  and  C_22
REMARK    8  A    between atoms: C_22  and  C_23
REMARK    9  A    between atoms: C_23  and  O_25
REMARK                            x       y       z     vdW  Elec       q    Type
REMARK                         _______ _______ _______ _____ _____    ______ ____
ROOT
ATOM      1  C   UNL     1       2.159   7.946  18.716  0.00  0.00    +0.000 C 
ENDROOT
BRANCH   1   4
ATOM      2  C   UNL     1       4.320   4.999  17.543  0.00  0.00    +0.000 A 
ATOM      3  C   UNL     1       3.870   6.296  17.862  0.00  0.00    +0.000 A 
ATOM      4  C   UNL     1       2.541   6.569  18.236  0.00  0.00    +0.000 A 
ATOM      5  C   UNL     1       1.605   5.541  18.218  0.00  0.00    +0.000 A 
ATOM      6  C   UNL     1       2.011   4.254  17.890  0.00  0.00    +0.000 A 
ATOM      7  C   UNL     1       3.359   3.972  17.612  0.00  0.00    +0.000 A 
ATOM      8 CL   UNL     1       3.714   2.285  17.531  0.00  0.00    +0.000 Cl
BRANCH   2  15
ATOM      9  C   UNL     1       5.779   4.176  14.575  0.00  0.00    +0.000 C 
ATOM     10  C   UNL     1       6.353   4.465  15.912  0.00  0.00    +0.000 A 
ATOM     11  N   UNL     1       7.688   4.447  16.018  0.00  0.00    +0.000 NA
ATOM     12  O   UNL     1       7.972   4.796  17.309  0.00  0.00    +0.000 OA
ATOM     13  C   UNL     1       6.823   5.028  17.995  0.00  0.00    +0.000 A 
ATOM     14  C   UNL     1       7.046   5.438  19.400  0.00  0.00    +0.000 C 
ATOM     15  C   UNL     1       5.729   4.809  17.161  0.00  0.00    +0.000 A 
ENDBRANCH   2  15
ENDBRANCH   1   4
BRANCH   1  16
ATOM     16  O   UNL     1       1.947   7.911  20.129  0.00  0.00    +0.000 OA
BRANCH  16  17
ATOM     17  C   UNL     1       1.121   8.896  20.603  0.00  0.00    +0.000 A 
ATOM     18  C   UNL     1       0.840   8.851  21.979  0.00  0.00    +0.000 A 
ATOM     19  C   UNL     1      -0.029   9.775  22.572  0.00  0.00    +0.000 A 
ATOM     20  C   UNL     1      -0.605  10.741  21.758  0.00  0.00    +0.000 A 
ATOM     21  C   UNL     1      -0.301  10.787  20.408  0.00  0.00    +0.000 A 
ATOM     22  C   UNL     1       0.566   9.904  19.812  0.00  0.00    +0.000 A 
ATOM     23  O   UNL     1      -0.936  11.797  19.730  0.00  0.00    +0.000 OA
ATOM     24  C   UNL     1      -1.979  12.198  20.645  0.00  0.00    +0.000 C 
ATOM     25  C   UNL     1      -1.533  11.860  22.083  0.00  0.00    +0.000 C 
BRANCH  25  26
ATOM     26  C   UNL     1      -0.804  13.020  22.754  0.00  0.00    +0.000 C 
BRANCH  26  27
ATOM     27  C   UNL     1      -1.779  14.085  23.196  0.00  0.00    +0.000 C 
ATOM     28  O   UNL     1      -1.707  15.265  22.871  0.00  0.00    +0.000 OA
BRANCH  27  29
ATOM     29  O   UNL     1      -2.766  13.614  23.987  0.00  0.00    +0.000 OA
ATOM     30  H   UNL     1      -2.485  12.925  24.621  0.00  0.00    +0.000 HD
ENDBRANCH  27  29
ENDBRANCH  26  27
ENDBRANCH  25  26
ENDBRANCH  16  17
ENDBRANCH   1  16
TORSDOF 7
ENDMDL
MODEL 3
REMARK VINA RESULT:      -8.3      7.958     10.233
REMARK  Name = 
REMARK  9 active torsions:
REMARK  status: ('A' for Active; 'I' for Inactive)
REMARK    1  A    between atoms: C_1  and  C_2
REMARK    2  A    between atoms: C_5  and  C_6
REMARK    3  A    between atoms: C_7  and  C_8
REMARK    4  A    between atoms: C_10  and  C_11
REMARK    5  A    between atoms: C_11  and  O_12
REMARK    6  A    between atoms: O_12  and  C_13
REMARK    7  A    between atoms: C_21  and  C_22
REMARK    8  A    between atoms: C_22  and  C_23
REMARK    9  A    between atoms: C_23  and  O_25
REMARK                            x       y       z     vdW  Elec       q    Type
REMARK                         _______ _______ _______ _____ _____    ______ ____
ROOT
ATOM      1  C   UNL     1       2.106   9.383  17.841  0.00  0.00    +0.000 C 
ENDROOT
BRANCH   1   4
ATOM      2  C   UNL     1       4.596   6.473  17.610  0.00  0.00    +0.000 A 
ATOM      3  C   UNL     1       3.884   7.661  17.346  0.00  0.00    +0.000 A 
ATOM      4  C   UNL     1       2.731   8.031  18.063  0.00  0.00    +0.000 A 
ATOM      5  C   UNL     1       2.217   7.161  19.018  0.00  0.00    +0.000 A 
ATOM      6  C   UNL     1       2.883   5.974  19.290  0.00  0.00    +0.000 A 
ATOM      7  C   UNL     1       4.087   5.657  18.639  0.00  0.00    +0.000 A 
ATOM      8 CL   UNL     1       4.914   4.307  19.324  0.00  0.00    +0.000 Cl
BRANCH   2  15
ATOM      9  C   UNL     1       5.138   4.231  15.101  0.00  0.00    +0.000 C 
ATOM     10  C   UNL     1       6.028   5.227  15.746  0.00  0.00    +0.000 A 
ATOM     11  N   UNL     1       7.275   5.327  15.269  0.00  0.00    +0.000 NA
ATOM     12  O   UNL     1       7.874   6.335  15.975  0.00  0.00    +0.000 OA
ATOM     13  C   UNL     1       7.003   6.853  16.879  0.00  0.00    +0.000 A 
ATOM     14  C   UNL     1       7.568   7.970  17.669  0.00  0.00    +0.000 C 
ATOM     15  C   UNL     1       5.792   6.167  16.808  0.00  0.00    +0.000 A 
ENDBRANCH   2  15
ENDBRANCH   1   4
BRANCH   1  16
ATOM     16  O   UNL     1       0.683   9.265  17.920  0.00  0.00    +0.000 OA
BRANCH  16  17
ATOM     17  C   UNL     1       0.090  10.136  18.796  0.00  0.00    +0.000 A 
ATOM     18  C   UNL     1      -1.226  10.516  18.484  0.00  0.00    +0.000 A 
ATOM     19  C   UNL     1      -1.921  11.438  19.277  0.00  0.00    +0.000 A 
ATOM     20  C   UNL     1      -1.270  11.964  20.384  0.00  0.00    +0.000 A 
ATOM     21  C   UNL     1       0.019  11.563  20.692  0.00  0.00    +0.000 A 
ATOM     22  C   UNL     1       0.709  10.644  19.940  0.00  0.00    +0.000 A 
ATOM     23  O   UNL     1       0.532  12.158  21.816  0.00  0.00    +0.000 OA
ATOM     24  C   UNL     1      -0.363  13.270  22.034  0.00  0.00    +0.000 C 
ATOM     25  C   UNL     1      -1.736  12.927  21.421  0.00  0.00    +0.000 C 
BRANCH  25  26
ATOM     26  C   UNL     1      -2.673  12.263  22.426  0.00  0.00    +0.000 C 
BRANCH  26  27
ATOM     27  C   UNL     1      -3.997  12.989  22.489  0.00  0.00    +0.000 C 
ATOM     28  O   UNL     1      -4.158  14.084  23.014  0.00  0.00    +0.000 OA
BRANCH  27  29
ATOM     29  O   UNL     1      -5.005  12.318  21.894  0.00  0.00    +0.000 OA
ATOM     30  H   UNL     1      -4.969  11.348  22.006  0.00  0.00    +0.000 HD
ENDBRANCH  27  29
ENDBRANCH  26  27
ENDBRANCH  25  26
ENDBRANCH  16  17
ENDBRANCH   1  16
TORSDOF 7
ENDMDL
MODEL 4
REMARK VINA RESULT:      -8.2      7.769     10.583
REMARK  Name = 
REMARK  9 active torsions:
REMARK  status: ('A' for Active; 'I' for Inactive)
REMARK    1  A    between atoms: C_1  and  C_2
REMARK    2  A    between atoms: C_5  and  C_6
REMARK    3  A    between atoms: C_7  and  C_8
REMARK    4  A    between atoms: C_10  and  C_11
REMARK    5  A    between atoms: C_11  and  O_12
REMARK    6  A    between atoms: O_12  and  C_13
REMARK    7  A    between atoms: C_21  and  C_22
REMARK    8  A    between atoms: C_22  and  C_23
REMARK    9  A    between atoms: C_23  and  O_25
REMARK                            x       y       z     vdW  Elec       q    Type
REMARK                         _______ _______ _______ _____ _____    ______ ____
ROOT
ATOM      1  C   UNL     1       2.211   8.175  18.383  0.00  0.00    +0.000 C 
ENDROOT
BRANCH   1   4
ATOM      2  C   UNL     1       4.386   5.138  17.504  0.00  0.00    +0.000 A 
ATOM      3  C   UNL     1       3.935   6.458  17.706  0.00  0.00    +0.000 A 
ATOM      4  C   UNL     1       2.598   6.763  18.026  0.00  0.00    +0.000 A 
ATOM      5  C   UNL     1       1.659   5.739  18.069  0.00  0.00    +0.000 A 
ATOM      6  C   UNL     1       2.067   4.429  17.856  0.00  0.00    +0.000 A 
ATOM      7  C   UNL     1       3.419   4.122  17.634  0.00  0.00    +0.000 A 
ATOM      8 CL   UNL     1       3.769   2.433  17.698  0.00  0.00    +0.000 Cl
BRANCH   2  15
ATOM      9  C   UNL     1       7.229   5.423  19.363  0.00  0.00    +0.000 C 
ATOM     10  C   UNL     1       7.007   5.028  17.951  0.00  0.00    +0.000 A 
ATOM     11  N   UNL     1       8.086   4.676  17.241  0.00  0.00    +0.000 NA
ATOM     12  O   UNL     1       7.627   4.304  16.007  0.00  0.00    +0.000 OA
ATOM     13  C   UNL     1       6.275   4.424  15.957  0.00  0.00    +0.000 A 
ATOM     14  C   UNL     1       5.694   4.015  14.657  0.00  0.00    +0.000 C 
ATOM     15  C   UNL     1       5.803   4.914  17.172  0.00  0.00    +0.000 A 
ENDBRANCH   2  15
ENDBRANCH   1   4
BRANCH   1  16
ATOM     16  O   UNL     1       1.760   8.212  19.739  0.00  0.00    +0.000 OA
BRANCH  16  17
ATOM     17  C   UNL     1       0.995   9.304  20.053  0.00  0.00    +0.000 A 
ATOM     18  C   UNL     1       0.458  10.009  18.962  0.00  0.00    +0.000 A 
ATOM     19  C   UNL     1      -0.301  11.171  19.152  0.00  0.00    +0.000 A 
ATOM     20  C   UNL     1      -0.510  11.605  20.454  0.00  0.00    +0.000 A 
ATOM     21  C   UNL     1       0.006  10.887  21.521  0.00  0.00    +0.000 A 
ATOM     22  C   UNL     1       0.734   9.734  21.355  0.00  0.00    +0.000 A 
ATOM     23  O   UNL     1      -0.285  11.427  22.747  0.00  0.00    +0.000 OA
ATOM     24  C   UNL     1      -0.718  12.765  22.418  0.00  0.00    +0.000 C 
ATOM     25  C   UNL     1      -1.280  12.766  20.982  0.00  0.00    +0.000 C 
BRANCH  25  26
ATOM     26  C   UNL     1      -2.783  12.509  20.944  0.00  0.00    +0.000 C 
BRANCH  26  27
ATOM     27  C   UNL     1      -3.425  12.877  22.261  0.00  0.00    +0.000 C 
ATOM     28  O   UNL     1      -3.676  12.076  23.154  0.00  0.00    +0.000 OA
BRANCH  27  29
ATOM     29  O   UNL     1      -3.694  14.194  22.376  0.00  0.00    +0.000 OA
ATOM     30  H   UNL     1      -3.743  14.675  21.527  0.00  0.00    +0.000 HD
ENDBRANCH  27  29
ENDBRANCH  26  27
ENDBRANCH  25  26
ENDBRANCH  16  17
ENDBRANCH   1  16
TORSDOF 7
ENDMDL
MODEL 5
REMARK VINA RESULT:      -8.2      1.020      1.188
REMARK  Name = 
REMARK  9 active torsions:
REMARK  status: ('A' for Active; 'I' for Inactive)
REMARK    1  A    between atoms: C_1  and  C_2
REMARK    2  A    between atoms: C_5  and  C_6
REMARK    3  A    between atoms: C_7  and  C_8
REMARK    4  A    between atoms: C_10  and  C_11
REMARK    5  A    between atoms: C_11  and  O_12
REMARK    6  A    between atoms: O_12  and  C_13
REMARK    7  A    between atoms: C_21  and  C_22
REMARK    8  A    between atoms: C_22  and  C_23
REMARK    9  A    between atoms: C_23  and  O_25
REMARK                            x       y       z     vdW  Elec       q    Type
REMARK                         _______ _______ _______ _____ _____    ______ ____
ROOT
ATOM      1  C   UNL     1       8.416   9.683  17.846  0.00  0.00    +0.000 C 
ENDROOT
BRANCH   1   4
ATOM      2  C   UNL     1       9.179  13.249  19.041  0.00  0.00    +0.000 A 
ATOM      3  C   UNL     1       8.768  12.148  18.262  0.00  0.00    +0.000 A 
ATOM      4  C   UNL     1       9.015  10.815  18.640  0.00  0.00    +0.000 A 
ATOM      5  C   UNL     1       9.760  10.561  19.785  0.00  0.00    +0.000 A 
ATOM      6  C   UNL     1      10.197  11.622  20.566  0.00  0.00    +0.000 A 
ATOM      7  C   UNL     1       9.864  12.946  20.234  0.00  0.00    +0.000 A 
ATOM      8 CL   UNL     1      10.229  14.087  21.476  0.00  0.00    +0.000 Cl
BRANCH   2  15
ATOM      9  C   UNL     1       6.303  15.078  19.060  0.00  0.00    +0.000 C 
ATOM     10  C   UNL     1       7.669  15.389  18.573  0.00  0.00    +0.000 A 
ATOM     11  N   UNL     1       7.872  16.614  18.071  0.00  0.00    +0.000 NA
ATOM     12  O   UNL     1       9.200  16.679  17.749  0.00  0.00    +0.000 OA
ATOM     13  C   UNL     1       9.812  15.504  18.051  0.00  0.00    +0.000 A 
ATOM     14  C   UNL     1      11.263  15.502  17.754  0.00  0.00    +0.000 C 
ATOM     15  C   UNL     1       8.878  14.609  18.566  0.00  0.00    +0.000 A 
ENDBRANCH   2  15
ENDBRANCH   1   4
BRANCH   1  16
ATOM     16  O   UNL     1       8.686   8.446  18.511  0.00  0.00    +0.000 OA
BRANCH  16  17
ATOM     17  C   UNL     1       7.876   7.408  18.129  0.00  0.00    +0.000 A 
ATOM     18  C   UNL     1       7.857   6.298  18.989  0.00  0.00    +0.000 A 
ATOM     19  C   UNL     1       7.106   5.156  18.682  0.00  0.00    +0.000 A 
ATOM     20  C   UNL     1       6.377   5.156  17.501  0.00  0.00    +0.000 A 
ATOM     21  C   UNL     1       6.387   6.267  16.675  0.00  0.00    +0.000 A 
ATOM     22  C   UNL     1       7.099   7.404  16.969  0.00  0.00    +0.000 A 
ATOM     23  O   UNL     1       5.615   6.128  15.549  0.00  0.00    +0.000 OA
ATOM     24  C   UNL     1       5.381   4.705  15.488  0.00  0.00    +0.000 C 
ATOM     25  C   UNL     1       5.474   4.126  16.915  0.00  0.00    +0.000 C 
BRANCH  25  26
ATOM     26  C   UNL     1       4.122   4.095  17.621  0.00  0.00    +0.000 C 
BRANCH  26  27
ATOM     27  C   UNL     1       3.914   2.776  18.328  0.00  0.00    +0.000 C 
ATOM     28  O   UNL     1       2.944   2.047  18.159  0.00  0.00    +0.000 OA
BRANCH  27  29
ATOM     29  O   UNL     1       4.918   2.458  19.172  0.00  0.00    +0.000 OA
ATOM     30  H   UNL     1       5.594   1.861  18.794  0.00  0.00    +0.000 HD
ENDBRANCH  27  29
ENDBRANCH  26  27
ENDBRANCH  25  26
ENDBRANCH  16  17
ENDBRANCH   1  16
TORSDOF 7
ENDMDL
MODEL 6
REMARK VINA RESULT:      -8.2      7.536      8.839
REMARK  Name = 
REMARK  9 active torsions:
REMARK  status: ('A' for Active; 'I' for Inactive)
REMARK    1  A    between atoms: C_1  and  C_2
REMARK    2  A    between atoms: C_5  and  C_6
REMARK    3  A    between atoms: C_7  and  C_8
REMARK    4  A    between atoms: C_10  and  C_11
REMARK    5  A    between atoms: C_11  and  O_12
REMARK    6  A    between atoms: O_12  and  C_13
REMARK    7  A    between atoms: C_21  and  C_22
REMARK    8  A    between atoms: C_22  and  C_23
REMARK    9  A    between atoms: C_23  and  O_25
REMARK                            x       y       z     vdW  Elec       q    Type
REMARK                         _______ _______ _______ _____ _____    ______ ____
ROOT
ATOM      1  C   UNL     1       1.439   9.206  17.844  0.00  0.00    +0.000 C 
ENDROOT
BRANCH   1   4
ATOM      2  C   UNL     1      -0.598  11.635  20.008  0.00  0.00    +0.000 A 
ATOM      3  C   UNL     1       0.433  10.808  19.517  0.00  0.00    +0.000 A 
ATOM      4  C   UNL     1       0.259   9.946  18.418  0.00  0.00    +0.000 A 
ATOM      5  C   UNL     1      -0.998   9.839  17.832  0.00  0.00    +0.000 A 
ATOM      6  C   UNL     1      -2.041  10.625  18.303  0.00  0.00    +0.000 A 
ATOM      7  C   UNL     1      -1.834  11.553  19.337  0.00  0.00    +0.000 A 
ATOM      8 CL   UNL     1      -3.153  12.640  19.571  0.00  0.00    +0.000 Cl
BRANCH   2  15
ATOM      9  C   UNL     1       0.989  14.640  20.267  0.00  0.00    +0.000 C 
ATOM     10  C   UNL     1       0.342  13.773  21.281  0.00  0.00    +0.000 A 
ATOM     11  N   UNL     1       0.319  14.225  22.542  0.00  0.00    +0.000 NA
ATOM     12  O   UNL     1      -0.371  13.294  23.268  0.00  0.00    +0.000 OA
ATOM     13  C   UNL     1      -0.771  12.276  22.463  0.00  0.00    +0.000 A 
ATOM     14  C   UNL     1      -1.549  11.234  23.171  0.00  0.00    +0.000 C 
ATOM     15  C   UNL     1      -0.323  12.504  21.164  0.00  0.00    +0.000 A 
ENDBRANCH   2  15
ENDBRANCH   1   4
BRANCH   1  16
ATOM     16  O   UNL     1       2.268   8.740  18.911  0.00  0.00    +0.000 OA
BRANCH  16  17
ATOM     17  C   UNL     1       2.239   7.383  19.101  0.00  0.00    +0.000 A 
ATOM     18  C   UNL     1       2.299   6.601  17.935  0.00  0.00    +0.000 A 
ATOM     19  C   UNL     1       2.228   5.203  17.996  0.00  0.00    +0.000 A 
ATOM     20  C   UNL     1       2.100   4.612  19.246  0.00  0.00    +0.000 A 
ATOM     21  C   UNL     1       2.065   5.395  20.388  0.00  0.00    +0.000 A 
ATOM     22  C   UNL     1       2.155   6.765  20.350  0.00  0.00    +0.000 A 
ATOM     23  O   UNL     1       1.944   4.677  21.550  0.00  0.00    +0.000 OA
ATOM     24  C   UNL     1       1.524   3.376  21.086  0.00  0.00    +0.000 C 
ATOM     25  C   UNL     1       2.027   3.178  19.642  0.00  0.00    +0.000 C 
BRANCH  25  26
ATOM     26  C   UNL     1       3.397   2.509  19.589  0.00  0.00    +0.000 C 
BRANCH  26  27
ATOM     27  C   UNL     1       3.516   1.620  18.373  0.00  0.00    +0.000 C 
ATOM     28  O   UNL     1       2.895   1.792  17.330  0.00  0.00    +0.000 OA
BRANCH  27  29
ATOM     29  O   UNL     1       4.391   0.606  18.534  0.00  0.00    +0.000 OA
ATOM     30  H   UNL     1       4.011  -0.200  18.933  0.00  0.00    +0.000 HD
ENDBRANCH  27  29
ENDBRANCH  26  27
ENDBRANCH  25  26
ENDBRANCH  16  17
ENDBRANCH   1  16
TORSDOF 7
ENDMDL
MODEL 7
REMARK VINA RESULT:      -8.1      7.646     10.571
REMARK  Name = 
REMARK  9 active torsions:
REMARK  status: ('A' for Active; 'I' for Inactive)
REMARK    1  A    between atoms: C_1  and  C_2
REMARK    2  A    between atoms: C_5  and  C_6
REMARK    3  A    between atoms: C_7  and  C_8
REMARK    4  A    between atoms: C_10  and  C_11
REMARK    5  A    between atoms: C_11  and  O_12
REMARK    6  A    between atoms: O_12  and  C_13
REMARK    7  A    between atoms: C_21  and  C_22
REMARK    8  A    between atoms: C_22  and  C_23
REMARK    9  A    between atoms: C_23  and  O_25
REMARK                            x       y       z     vdW  Elec       q    Type
REMARK                         _______ _______ _______ _____ _____    ______ ____
ROOT
ATOM      1  C   UNL     1       2.207   7.987  18.582  0.00  0.00    +0.000 C 
ENDROOT
BRANCH   1   4
ATOM      2  C   UNL     1       4.416   5.035  17.518  0.00  0.00    +0.000 A 
ATOM      3  C   UNL     1       3.952   6.334  17.810  0.00  0.00    +0.000 A 
ATOM      4  C   UNL     1       2.608   6.608  18.127  0.00  0.00    +0.000 A 
ATOM      5  C   UNL     1       1.675   5.578  18.077  0.00  0.00    +0.000 A 
ATOM      6  C   UNL     1       2.095   4.290  17.774  0.00  0.00    +0.000 A 
ATOM      7  C   UNL     1       3.453   4.007  17.554  0.00  0.00    +0.000 A 
ATOM      8 CL   UNL     1       3.812   2.321  17.497  0.00  0.00    +0.000 Cl
BRANCH   2  15
ATOM      9  C   UNL     1       7.231   5.295  19.420  0.00  0.00    +0.000 C 
ATOM     10  C   UNL     1       7.032   4.948  17.992  0.00  0.00    +0.000 A 
ATOM     11  N   UNL     1       8.125   4.636  17.284  0.00  0.00    +0.000 NA
ATOM     12  O   UNL     1       7.686   4.302  16.032  0.00  0.00    +0.000 OA
ATOM     13  C   UNL     1       6.333   4.405  15.969  0.00  0.00    +0.000 A 
ATOM     14  C   UNL     1       5.774   4.034  14.649  0.00  0.00    +0.000 C 
ATOM     15  C   UNL     1       5.840   4.844  17.196  0.00  0.00    +0.000 A 
ENDBRANCH   2  15
ENDBRANCH   1   4
BRANCH   1  16
ATOM     16  O   UNL     1       1.833   7.938  19.961  0.00  0.00    +0.000 OA
BRANCH  16  17
ATOM     17  C   UNL     1       1.075   9.001  20.381  0.00  0.00    +0.000 A 
ATOM     18  C   UNL     1       0.907   9.122  21.771  0.00  0.00    +0.000 A 
ATOM     19  C   UNL     1       0.115  10.138  22.319  0.00  0.00    +0.000 A 
ATOM     20  C   UNL     1      -0.499  11.026  21.446  0.00  0.00    +0.000 A 
ATOM     21  C   UNL     1      -0.306  10.908  20.080  0.00  0.00    +0.000 A 
ATOM     22  C   UNL     1       0.485   9.932  19.525  0.00  0.00    +0.000 A 
ATOM     23  O   UNL     1      -0.966  11.857  19.342  0.00  0.00    +0.000 OA
ATOM     24  C   UNL     1      -1.919  12.397  20.283  0.00  0.00    +0.000 C 
ATOM     25  C   UNL     1      -1.367  12.208  21.711  0.00  0.00    +0.000 C 
BRANCH  25  26
ATOM     26  C   UNL     1      -0.553  13.409  22.184  0.00  0.00    +0.000 C 
BRANCH  26  27
ATOM     27  C   UNL     1      -1.395  14.323  23.043  0.00  0.00    +0.000 C 
ATOM     28  O   UNL     1      -2.408  14.894  22.657  0.00  0.00    +0.000 OA
BRANCH  27  29
ATOM     29  O   UNL     1      -0.930  14.451  24.304  0.00  0.00    +0.000 OA
ATOM     30  H   UNL     1      -0.019  14.799  24.369  0.00  0.00    +0.000 HD
ENDBRANCH  27  29
ENDBRANCH  26  27
ENDBRANCH  25  26
ENDBRANCH  16  17
ENDBRANCH   1  16
TORSDOF 7
ENDMDL
MODEL 8
REMARK VINA RESULT:      -8.1      7.069      8.306
REMARK  Name = 
REMARK  9 active torsions:
REMARK  status: ('A' for Active; 'I' for Inactive)
REMARK    1  A    between atoms: C_1  and  C_2
REMARK    2  A    between atoms: C_5  and  C_6
REMARK    3  A    between atoms: C_7  and  C_8
REMARK    4  A    between atoms: C_10  and  C_11
REMARK    5  A    between atoms: C_11  and  O_12
REMARK    6  A    between atoms: O_12  and  C_13
REMARK    7  A    between atoms: C_21  and  C_22
REMARK    8  A    between atoms: C_22  and  C_23
REMARK    9  A    between atoms: C_23  and  O_25
REMARK                            x       y       z     vdW  Elec       q    Type
REMARK                         _______ _______ _______ _____ _____    ______ ____
ROOT
ATOM      1  C   UNL     1       1.468   8.346  21.185  0.00  0.00    +0.000 C 
ENDROOT
BRANCH   1   4
ATOM      2  C   UNL     1      -0.211  11.795  21.278  0.00  0.00    +0.000 A 
ATOM      3  C   UNL     1       0.638  10.719  20.950  0.00  0.00    +0.000 A 
ATOM      4  C   UNL     1       0.655   9.514  21.677  0.00  0.00    +0.000 A 
ATOM      5  C   UNL     1      -0.137   9.397  22.815  0.00  0.00    +0.000 A 
ATOM      6  C   UNL     1      -0.971  10.445  23.178  0.00  0.00    +0.000 A 
ATOM      7  C   UNL     1      -1.053  11.607  22.391  0.00  0.00    +0.000 A 
ATOM      8 CL   UNL     1      -2.354  12.652  22.829  0.00  0.00    +0.000 Cl
BRANCH   2  15
ATOM      9  C   UNL     1       1.149  14.865  21.865  0.00  0.00    +0.000 C 
ATOM     10  C   UNL     1       0.416  14.315  20.699  0.00  0.00    +0.000 A 
ATOM     11  N   UNL     1       0.264  15.121  19.641  0.00  0.00    +0.000 NA
ATOM     12  O   UNL     1      -0.381  14.382  18.688  0.00  0.00    +0.000 OA
ATOM     13  C   UNL     1      -0.624  13.129  19.153  0.00  0.00    +0.000 A 
ATOM     14  C   UNL     1      -1.299  12.255  18.168  0.00  0.00    +0.000 C 
ATOM     15  C   UNL     1      -0.158  13.018  20.460  0.00  0.00    +0.000 A 
ENDBRANCH   2  15
ENDBRANCH   1   4
BRANCH   1  16
ATOM     16  O   UNL     1       1.474   8.344  19.755  0.00  0.00    +0.000 OA
BRANCH  16  17
ATOM     17  C   UNL     1       2.337   7.440  19.193  0.00  0.00    +0.000 A 
ATOM     18  C   UNL     1       3.013   7.874  18.040  0.00  0.00    +0.000 A 
ATOM     19  C   UNL     1       3.884   7.023  17.348  0.00  0.00    +0.000 A 
ATOM     20  C   UNL     1       4.063   5.737  17.837  0.00  0.00    +0.000 A 
ATOM     21  C   UNL     1       3.408   5.331  18.988  0.00  0.00    +0.000 A 
ATOM     22  C   UNL     1       2.567   6.157  19.693  0.00  0.00    +0.000 A 
ATOM     23  O   UNL     1       3.685   4.040  19.358  0.00  0.00    +0.000 OA
ATOM     24  C   UNL     1       4.283   3.481  18.169  0.00  0.00    +0.000 C 
ATOM     25  C   UNL     1       4.926   4.622  17.354  0.00  0.00    +0.000 C 
BRANCH  25  26
ATOM     26  C   UNL     1       6.390   4.845  17.718  0.00  0.00    +0.000 C 
BRANCH  26  27
ATOM     27  C   UNL     1       7.171   5.343  16.524  0.00  0.00    +0.000 C 
ATOM     28  O   UNL     1       7.469   4.651  15.558  0.00  0.00    +0.000 OA
BRANCH  27  29
ATOM     29  O   UNL     1       7.509   6.646  16.611  0.00  0.00    +0.000 OA
ATOM     30  H   UNL     1       7.887   6.912  17.472  0.00  0.00    +0.000 HD
ENDBRANCH  27  29
ENDBRANCH  26  27
ENDBRANCH  25  26
ENDBRANCH  16  17
ENDBRANCH   1  16
TORSDOF 7
ENDMDL
MODEL 9
REMARK VINA RESULT:      -8.1      7.742     10.318
REMARK  Name = 
REMARK  9 active torsions:
REMARK  status: ('A' for Active; 'I' for Inactive)
REMARK    1  A    between atoms: C_1  and  C_2
REMARK    2  A    between atoms: C_5  and  C_6
REMARK    3  A    between atoms: C_7  and  C_8
REMARK    4  A    between atoms: C_10  and  C_11
REMARK    5  A    between atoms: C_11  and  O_12
REMARK    6  A    between atoms: O_12  and  C_13
REMARK    7  A    between atoms: C_21  and  C_22
REMARK    8  A    between atoms: C_22  and  C_23
REMARK    9  A    between atoms: C_23  and  O_25
REMARK                            x       y       z     vdW  Elec       q    Type
REMARK                         _______ _______ _______ _____ _____    ______ ____
ROOT
ATOM      1  C   UNL     1       2.401   8.425  18.332  0.00  0.00    +0.000 C 
ENDROOT
BRANCH   1   4
ATOM      2  C   UNL     1       4.665   5.338  18.061  0.00  0.00    +0.000 A 
ATOM      3  C   UNL     1       4.084   6.605  17.851  0.00  0.00    +0.000 A 
ATOM      4  C   UNL     1       2.887   7.006  18.473  0.00  0.00    +0.000 A 
ATOM      5  C   UNL     1       2.198   6.097  19.269  0.00  0.00    +0.000 A 
ATOM      6  C   UNL     1       2.732   4.834  19.481  0.00  0.00    +0.000 A 
ATOM      7  C   UNL     1       3.976   4.475  18.935  0.00  0.00    +0.000 A 
ATOM      8 CL   UNL     1       4.608   2.994  19.557  0.00  0.00    +0.000 Cl
BRANCH   2  15
ATOM      9  C   UNL     1       5.290   4.289  14.879  0.00  0.00    +0.000 C 
ATOM     10  C   UNL     1       6.192   4.566  16.024  0.00  0.00    +0.000 A 
ATOM     11  N   UNL     1       7.506   4.427  15.810  0.00  0.00    +0.000 NA
ATOM     12  O   UNL     1       8.122   4.788  16.977  0.00  0.00    +0.000 OA
ATOM     13  C   UNL     1       7.196   5.148  17.902  0.00  0.00    +0.000 A 
ATOM     14  C   UNL     1       7.786   5.578  19.191  0.00  0.00    +0.000 C 
ATOM     15  C   UNL     1       5.919   5.005  17.366  0.00  0.00    +0.000 A 
ENDBRANCH   2  15
ENDBRANCH   1   4
BRANCH   1  16
ATOM     16  O   UNL     1       1.729   8.815  19.531  0.00  0.00    +0.000 OA
BRANCH  16  17
ATOM     17  C   UNL     1       0.619   9.594  19.331  0.00  0.00    +0.000 A 
ATOM     18  C   UNL     1       0.066   9.552  18.040  0.00  0.00    +0.000 A 
ATOM     19  C   UNL     1      -1.040  10.341  17.700  0.00  0.00    +0.000 A 
ATOM     20  C   UNL     1      -1.577  11.166  18.679  0.00  0.00    +0.000 A 
ATOM     21  C   UNL     1      -1.035  11.180  19.953  0.00  0.00    +0.000 A 
ATOM     22  C   UNL     1       0.035  10.398  20.313  0.00  0.00    +0.000 A 
ATOM     23  O   UNL     1      -1.670  12.035  20.817  0.00  0.00    +0.000 OA
ATOM     24  C   UNL     1      -2.445  12.875  19.934  0.00  0.00    +0.000 C 
ATOM     25  C   UNL     1      -2.746  12.089  18.641  0.00  0.00    +0.000 C 
BRANCH  25  26
ATOM     26  C   UNL     1      -4.066  11.329  18.715  0.00  0.00    +0.000 C 
BRANCH  26  27
ATOM     27  C   UNL     1      -4.984  11.734  17.586  0.00  0.00    +0.000 C 
ATOM     28  O   UNL     1      -6.208  11.722  17.653  0.00  0.00    +0.000 OA
BRANCH  27  29
ATOM     29  O   UNL     1      -4.326  12.130  16.476  0.00  0.00    +0.000 OA
ATOM     30  H   UNL     1      -4.660  12.959  16.079  0.00  0.00    +0.000 HD
ENDBRANCH  27  29
ENDBRANCH  26  27
ENDBRANCH  25  26
ENDBRANCH  16  17
ENDBRANCH   1  16
TORSDOF 7
ENDMDL
