MODEL 1
REMARK VINA RESULT:      -6.2      0.000      0.000
REMARK  Name = 
REMARK  6 active torsions:
REMARK  status: ('A' for Active; 'I' for Inactive)
REMARK    1  A    between atoms: C_1  and  C_2
REMARK    2  A    between atoms: C_2  and  O_3
REMARK    3  A    between atoms: O_3  and  C_4
REMARK    4  A    between atoms: C_4  and  C_6
REMARK    5  A    between atoms: C_7  and  C_8
REMARK    6  A    between atoms: C_15  and  C_16
REMARK                            x       y       z     vdW  Elec       q    Type
REMARK                         _______ _______ _______ _____ _____    ______ ____
ROOT
ATOM      1  C   UNL     1      -3.733  12.220  19.559  0.00  0.00    +0.000 C 
ATOM      2  C   UNL     1      -2.725  12.378  20.474  0.00  0.00    +0.000 C 
ATOM      3  N   UNL     1      -1.430  11.816  20.288  0.00  0.00    +0.000 N 
ATOM      4  C   UNL     1      -0.331  12.070  21.148  0.00  0.00    +0.000 C 
ATOM      5  C   UNL     1       0.988  11.367  20.871  0.00  0.00    +0.000 C 
ATOM      6  O   UNL     1      -0.329  12.866  22.086  0.00  0.00    +0.000 OA
ATOM      7  C   UNL     1      -1.291  10.756  19.288  0.00  0.00    +0.000 C 
ATOM      8  C   UNL     1      -2.259  10.795  18.154  0.00  0.00    +0.000 A 
ATOM      9  C   UNL     1      -1.956  10.053  16.992  0.00  0.00    +0.000 A 
ATOM     10  C   UNL     1      -2.806  10.070  15.888  0.00  0.00    +0.000 A 
ATOM     11  C   UNL     1      -3.949  10.838  15.940  0.00  0.00    +0.000 A 
ATOM     12  C   UNL     1      -4.256  11.560  17.106  0.00  0.00    +0.000 A 
ATOM     13  C   UNL     1      -3.441  11.534  18.256  0.00  0.00    +0.000 A 
ENDROOT
BRANCH   2  14
ATOM     14  C   UNL     1      -2.977  13.157  21.718  0.00  0.00    +0.000 A 
ATOM     15  C   UNL     1      -3.344  12.508  22.907  0.00  0.00    +0.000 A 
ATOM     16  C   UNL     1      -3.672  13.247  24.047  0.00  0.00    +0.000 A 
ATOM     17  C   UNL     1      -3.594  14.638  24.024  0.00  0.00    +0.000 A 
ATOM     18  C   UNL     1      -3.188  15.294  22.861  0.00  0.00    +0.000 A 
ATOM     19  C   UNL     1      -2.893  14.558  21.708  0.00  0.00    +0.000 A 
ENDBRANCH   2  14
BRANCH   1  20
ATOM     20  C   UNL     1      -5.145  12.617  19.948  0.00  0.00    +0.000 C 
ATOM     21  O   UNL     1      -5.616  13.740  19.832  0.00  0.00    +0.000 OA
BRANCH  20  22
ATOM     22  O   UNL     1      -5.782  11.635  20.634  0.00  0.00    +0.000 OA
BRANCH  22  24
ATOM     23  C   UNL     1      -6.862   9.998  19.205  0.00  0.00    +0.000 C 
ATOM     24  C   UNL     1      -7.046  11.235  20.077  0.00  0.00    +0.000 C 
ENDBRANCH  22  24
ENDBRANCH  20  22
ENDBRANCH   1  20
TORSDOF 4
ENDMDL
MODEL 2
REMARK VINA RESULT:      -6.1      1.521      4.094
REMARK  Name = 
REMARK  6 active torsions:
REMARK  status: ('A' for Active; 'I' for Inactive)
REMARK    1  A    between atoms: C_1  and  C_2
REMARK    2  A    between atoms: C_2  and  O_3
REMARK    3  A    between atoms: O_3  and  C_4
REMARK    4  A    between atoms: C_4  and  C_6
REMARK    5  A    between atoms: C_7  and  C_8
REMARK    6  A    between atoms: C_15  and  C_16
REMARK                            x       y       z     vdW  Elec       q    Type
REMARK                         _______ _______ _______ _____ _____    ______ ____
ROOT
ATOM      1  C   UNL     1      -2.807  12.135  19.614  0.00  0.00    +0.000 C 
ATOM      2  C   UNL     1      -3.923  12.678  20.195  0.00  0.00    +0.000 C 
ATOM      3  N   UNL     1      -5.198  12.664  19.561  0.00  0.00    +0.000 N 
ATOM      4  C   UNL     1      -6.392  13.098  20.188  0.00  0.00    +0.000 C 
ATOM      5  C   UNL     1      -7.683  13.082  19.386  0.00  0.00    +0.000 C 
ATOM      6  O   UNL     1      -6.496  13.442  21.365  0.00  0.00    +0.000 OA
ATOM      7  C   UNL     1      -5.233  12.395  18.123  0.00  0.00    +0.000 C 
ATOM      8  C   UNL     1      -4.122  11.558  17.585  0.00  0.00    +0.000 A 
ATOM      9  C   UNL     1      -4.289  10.959  16.318  0.00  0.00    +0.000 A 
ATOM     10  C   UNL     1      -3.299  10.144  15.773  0.00  0.00    +0.000 A 
ATOM     11  C   UNL     1      -2.151   9.915  16.500  0.00  0.00    +0.000 A 
ATOM     12  C   UNL     1      -1.981  10.528  17.753  0.00  0.00    +0.000 A 
ATOM     13  C   UNL     1      -2.942  11.390  18.317  0.00  0.00    +0.000 A 
ENDROOT
BRANCH   2  14
ATOM     14  C   UNL     1      -3.815  13.316  21.536  0.00  0.00    +0.000 A 
ATOM     15  C   UNL     1      -3.560  14.691  21.656  0.00  0.00    +0.000 A 
ATOM     16  C   UNL     1      -3.365  15.271  22.912  0.00  0.00    +0.000 A 
ATOM     17  C   UNL     1      -3.469  14.493  24.063  0.00  0.00    +0.000 A 
ATOM     18  C   UNL     1      -3.766  13.134  23.961  0.00  0.00    +0.000 A 
ATOM     19  C   UNL     1      -3.926  12.544  22.703  0.00  0.00    +0.000 A 
ENDBRANCH   2  14
BRANCH   1  20
ATOM     20  C   UNL     1      -1.448  12.422  20.225  0.00  0.00    +0.000 C 
ATOM     21  O   UNL     1      -0.780  13.424  20.013  0.00  0.00    +0.000 OA
BRANCH  20  22
ATOM     22  O   UNL     1      -0.948  11.348  20.888  0.00  0.00    +0.000 OA
BRANCH  22  24
ATOM     23  C   UNL     1      -0.897  10.433  23.134  0.00  0.00    +0.000 C 
ATOM     24  C   UNL     1      -0.536  11.614  22.239  0.00  0.00    +0.000 C 
ENDBRANCH  22  24
ENDBRANCH  20  22
ENDBRANCH   1  20
TORSDOF 4
ENDMDL
MODEL 3
REMARK VINA RESULT:      -6.0      0.656      1.350
REMARK  Name = 
REMARK  6 active torsions:
REMARK  status: ('A' for Active; 'I' for Inactive)
REMARK    1  A    between atoms: C_1  and  C_2
REMARK    2  A    between atoms: C_2  and  O_3
REMARK    3  A    between atoms: O_3  and  C_4
REMARK    4  A    between atoms: C_4  and  C_6
REMARK    5  A    between atoms: C_7  and  C_8
REMARK    6  A    between atoms: C_15  and  C_16
REMARK                            x       y       z     vdW  Elec       q    Type
REMARK                         _______ _______ _______ _____ _____    ______ ____
ROOT
ATOM      1  C   UNL     1      -3.761  12.215  19.520  0.00  0.00    +0.000 C 
ATOM      2  C   UNL     1      -2.766  12.388  20.446  0.00  0.00    +0.000 C 
ATOM      3  N   UNL     1      -1.465  11.831  20.282  0.00  0.00    +0.000 N 
ATOM      4  C   UNL     1      -0.380  12.099  21.153  0.00  0.00    +0.000 C 
ATOM      5  C   UNL     1       0.946  11.400  20.901  0.00  0.00    +0.000 C 
ATOM      6  O   UNL     1      -0.394  12.904  22.083  0.00  0.00    +0.000 OA
ATOM      7  C   UNL     1      -1.309  10.761  19.295  0.00  0.00    +0.000 C 
ATOM      8  C   UNL     1      -2.262  10.784  18.148  0.00  0.00    +0.000 A 
ATOM      9  C   UNL     1      -1.940  10.033  16.997  0.00  0.00    +0.000 A 
ATOM     10  C   UNL     1      -2.776  10.034  15.882  0.00  0.00    +0.000 A 
ATOM     11  C   UNL     1      -3.924  10.797  15.912  0.00  0.00    +0.000 A 
ATOM     12  C   UNL     1      -4.249  11.529  17.066  0.00  0.00    +0.000 A 
ATOM     13  C   UNL     1      -3.449  11.518  18.227  0.00  0.00    +0.000 A 
ENDROOT
BRANCH   2  14
ATOM     14  C   UNL     1      -3.038  13.178  21.678  0.00  0.00    +0.000 A 
ATOM     15  C   UNL     1      -2.974  14.580  21.658  0.00  0.00    +0.000 A 
ATOM     16  C   UNL     1      -3.136  15.316  22.835  0.00  0.00    +0.000 A 
ATOM     17  C   UNL     1      -3.409  14.662  24.034  0.00  0.00    +0.000 A 
ATOM     18  C   UNL     1      -3.519  13.271  24.061  0.00  0.00    +0.000 A 
ATOM     19  C   UNL     1      -3.322  12.530  22.890  0.00  0.00    +0.000 A 
ENDBRANCH   2  14
BRANCH   1  20
ATOM     20  C   UNL     1      -5.180  12.609  19.886  0.00  0.00    +0.000 C 
ATOM     21  O   UNL     1      -5.698  13.688  19.632  0.00  0.00    +0.000 OA
BRANCH  20  22
ATOM     22  O   UNL     1      -5.764  11.706  20.713  0.00  0.00    +0.000 OA
BRANCH  22  24
ATOM     23  C   UNL     1      -6.992  12.584  22.612  0.00  0.00    +0.000 C 
ATOM     24  C   UNL     1      -7.074  12.075  21.178  0.00  0.00    +0.000 C 
ENDBRANCH  22  24
ENDBRANCH  20  22
ENDBRANCH   1  20
TORSDOF 4
ENDMDL
MODEL 4
REMARK VINA RESULT:      -6.0      1.527      3.966
REMARK  Name = 
REMARK  6 active torsions:
REMARK  status: ('A' for Active; 'I' for Inactive)
REMARK    1  A    between atoms: C_1  and  C_2
REMARK    2  A    between atoms: C_2  and  O_3
REMARK    3  A    between atoms: O_3  and  C_4
REMARK    4  A    between atoms: C_4  and  C_6
REMARK    5  A    between atoms: C_7  and  C_8
REMARK    6  A    between atoms: C_15  and  C_16
REMARK                            x       y       z     vdW  Elec       q    Type
REMARK                         _______ _______ _______ _____ _____    ______ ____
ROOT
ATOM      1  C   UNL     1      -2.773  12.150  19.725  0.00  0.00    +0.000 C 
ATOM      2  C   UNL     1      -3.873  12.677  20.349  0.00  0.00    +0.000 C 
ATOM      3  N   UNL     1      -5.166  12.675  19.751  0.00  0.00    +0.000 N 
ATOM      4  C   UNL     1      -6.343  13.092  20.421  0.00  0.00    +0.000 C 
ATOM      5  C   UNL     1      -7.656  13.092  19.655  0.00  0.00    +0.000 C 
ATOM      6  O   UNL     1      -6.414  13.410  21.607  0.00  0.00    +0.000 OA
ATOM      7  C   UNL     1      -5.241  12.438  18.308  0.00  0.00    +0.000 C 
ATOM      8  C   UNL     1      -4.144  11.615  17.722  0.00  0.00    +0.000 A 
ATOM      9  C   UNL     1      -4.346  11.044  16.447  0.00  0.00    +0.000 A 
ATOM     10  C   UNL     1      -3.371  10.243  15.855  0.00  0.00    +0.000 A 
ATOM     11  C   UNL     1      -2.202  10.001  16.545  0.00  0.00    +0.000 A 
ATOM     12  C   UNL     1      -1.998  10.586  17.806  0.00  0.00    +0.000 A 
ATOM     13  C   UNL     1      -2.944  11.434  18.416  0.00  0.00    +0.000 A 
ENDROOT
BRANCH   2  14
ATOM     14  C   UNL     1      -3.729  13.287  21.700  0.00  0.00    +0.000 A 
ATOM     15  C   UNL     1      -3.835  12.497  22.856  0.00  0.00    +0.000 A 
ATOM     16  C   UNL     1      -3.794  13.085  24.123  0.00  0.00    +0.000 A 
ATOM     17  C   UNL     1      -3.602  14.458  24.250  0.00  0.00    +0.000 A 
ATOM     18  C   UNL     1      -3.451  15.249  23.110  0.00  0.00    +0.000 A 
ATOM     19  C   UNL     1      -3.527  14.669  21.840  0.00  0.00    +0.000 A 
ENDBRANCH   2  14
BRANCH   1  20
ATOM     20  C   UNL     1      -1.398  12.426  20.304  0.00  0.00    +0.000 C 
ATOM     21  O   UNL     1      -0.744  13.440  20.106  0.00  0.00    +0.000 OA
BRANCH  20  22
ATOM     22  O   UNL     1      -0.871  11.335  20.913  0.00  0.00    +0.000 OA
BRANCH  22  24
ATOM     23  C   UNL     1      -0.843  10.321  23.117  0.00  0.00    +0.000 C 
ATOM     24  C   UNL     1      -0.475  11.541  22.279  0.00  0.00    +0.000 C 
ENDBRANCH  22  24
ENDBRANCH  20  22
ENDBRANCH   1  20
TORSDOF 4
ENDMDL
MODEL 5
REMARK VINA RESULT:      -6.0      0.989      1.350
REMARK  Name = 
REMARK  6 active torsions:
REMARK  status: ('A' for Active; 'I' for Inactive)
REMARK    1  A    between atoms: C_1  and  C_2
REMARK    2  A    between atoms: C_2  and  O_3
REMARK    3  A    between atoms: O_3  and  C_4
REMARK    4  A    between atoms: C_4  and  C_6
REMARK    5  A    between atoms: C_7  and  C_8
REMARK    6  A    between atoms: C_15  and  C_16
REMARK                            x       y       z     vdW  Elec       q    Type
REMARK                         _______ _______ _______ _____ _____    ______ ____
ROOT
ATOM      1  C   UNL     1      -3.920  12.155  19.333  0.00  0.00    +0.000 C 
ATOM      2  C   UNL     1      -2.948  12.418  20.263  0.00  0.00    +0.000 C 
ATOM      3  N   UNL     1      -1.610  11.951  20.123  0.00  0.00    +0.000 N 
ATOM      4  C   UNL     1      -0.554  12.315  20.996  0.00  0.00    +0.000 C 
ATOM      5  C   UNL     1       0.820  11.707  20.770  0.00  0.00    +0.000 C 
ATOM      6  O   UNL     1      -0.634  13.138  21.907  0.00  0.00    +0.000 OA
ATOM      7  C   UNL     1      -1.369  10.874  19.161  0.00  0.00    +0.000 C 
ATOM      8  C   UNL     1      -2.310  10.804  18.006  0.00  0.00    +0.000 A 
ATOM      9  C   UNL     1      -1.925  10.052  16.876  0.00  0.00    +0.000 A 
ATOM     10  C   UNL     1      -2.748   9.968  15.754  0.00  0.00    +0.000 A 
ATOM     11  C   UNL     1      -3.947  10.648  15.757  0.00  0.00    +0.000 A 
ATOM     12  C   UNL     1      -4.334  11.381  16.892  0.00  0.00    +0.000 A 
ATOM     13  C   UNL     1      -3.547  11.453  18.059  0.00  0.00    +0.000 A 
ENDROOT
BRANCH   2  14
ATOM     14  C   UNL     1      -3.287  13.214  21.475  0.00  0.00    +0.000 A 
ATOM     15  C   UNL     1      -3.630  12.577  22.677  0.00  0.00    +0.000 A 
ATOM     16  C   UNL     1      -4.040  13.324  23.785  0.00  0.00    +0.000 A 
ATOM     17  C   UNL     1      -4.068  14.714  23.717  0.00  0.00    +0.000 A 
ATOM     18  C   UNL     1      -3.687  15.363  22.542  0.00  0.00    +0.000 A 
ATOM     19  C   UNL     1      -3.311  14.617  21.420  0.00  0.00    +0.000 A 
ENDBRANCH   2  14
BRANCH   1  20
ATOM     20  C   UNL     1      -5.366  12.455  19.679  0.00  0.00    +0.000 C 
ATOM     21  O   UNL     1      -6.130  11.679  20.239  0.00  0.00    +0.000 OA
BRANCH  20  22
ATOM     22  O   UNL     1      -5.797  13.613  19.120  0.00  0.00    +0.000 OA
BRANCH  22  24
ATOM     23  C   UNL     1      -6.805  14.139  16.977  0.00  0.00    +0.000 C 
ATOM     24  C   UNL     1      -7.002  13.495  18.345  0.00  0.00    +0.000 C 
ENDBRANCH  22  24
ENDBRANCH  20  22
ENDBRANCH   1  20
TORSDOF 4
ENDMDL
MODEL 6
REMARK VINA RESULT:      -6.0      0.895      1.620
REMARK  Name = 
REMARK  6 active torsions:
REMARK  status: ('A' for Active; 'I' for Inactive)
REMARK    1  A    between atoms: C_1  and  C_2
REMARK    2  A    between atoms: C_2  and  O_3
REMARK    3  A    between atoms: O_3  and  C_4
REMARK    4  A    between atoms: C_4  and  C_6
REMARK    5  A    between atoms: C_7  and  C_8
REMARK    6  A    between atoms: C_15  and  C_16
REMARK                            x       y       z     vdW  Elec       q    Type
REMARK                         _______ _______ _______ _____ _____    ______ ____
ROOT
ATOM      1  C   UNL     1      -3.814  12.175  19.466  0.00  0.00    +0.000 C 
ATOM      2  C   UNL     1      -2.818  12.392  20.382  0.00  0.00    +0.000 C 
ATOM      3  N   UNL     1      -1.496  11.893  20.206  0.00  0.00    +0.000 N 
ATOM      4  C   UNL     1      -0.415  12.210  21.066  0.00  0.00    +0.000 C 
ATOM      5  C   UNL     1       0.938  11.571  20.801  0.00  0.00    +0.000 C 
ATOM      6  O   UNL     1      -0.456  13.015  21.996  0.00  0.00    +0.000 OA
ATOM      7  C   UNL     1      -1.302  10.831  19.217  0.00  0.00    +0.000 C 
ATOM      8  C   UNL     1      -2.266  10.811  18.080  0.00  0.00    +0.000 A 
ATOM      9  C   UNL     1      -1.922  10.074  16.926  0.00  0.00    +0.000 A 
ATOM     10  C   UNL     1      -2.768  10.036  15.819  0.00  0.00    +0.000 A 
ATOM     11  C   UNL     1      -3.948  10.747  15.860  0.00  0.00    +0.000 A 
ATOM     12  C   UNL     1      -4.295  11.465  17.017  0.00  0.00    +0.000 A 
ATOM     13  C   UNL     1      -3.483  11.491  18.170  0.00  0.00    +0.000 A 
ENDROOT
BRANCH   2  14
ATOM     14  C   UNL     1      -3.114  13.170  21.616  0.00  0.00    +0.000 A 
ATOM     15  C   UNL     1      -3.068  14.573  21.606  0.00  0.00    +0.000 A 
ATOM     16  C   UNL     1      -3.252  15.299  22.787  0.00  0.00    +0.000 A 
ATOM     17  C   UNL     1      -3.528  14.633  23.978  0.00  0.00    +0.000 A 
ATOM     18  C   UNL     1      -3.620  13.241  23.995  0.00  0.00    +0.000 A 
ATOM     19  C   UNL     1      -3.401  12.511  22.822  0.00  0.00    +0.000 A 
ENDBRANCH   2  14
BRANCH   1  20
ATOM     20  C   UNL     1      -5.245  12.505  19.846  0.00  0.00    +0.000 C 
ATOM     21  O   UNL     1      -6.015  11.741  20.412  0.00  0.00    +0.000 OA
BRANCH  20  22
ATOM     22  O   UNL     1      -5.660  13.680  19.309  0.00  0.00    +0.000 OA
BRANCH  22  24
ATOM     23  C   UNL     1      -6.826  14.151  17.235  0.00  0.00    +0.000 C 
ATOM     24  C   UNL     1      -6.942  13.627  18.662  0.00  0.00    +0.000 C 
ENDBRANCH  22  24
ENDBRANCH  20  22
ENDBRANCH   1  20
TORSDOF 4
ENDMDL
MODEL 7
REMARK VINA RESULT:      -6.0      7.574     10.376
REMARK  Name = 
REMARK  6 active torsions:
REMARK  status: ('A' for Active; 'I' for Inactive)
REMARK    1  A    between atoms: C_1  and  C_2
REMARK    2  A    between atoms: C_2  and  O_3
REMARK    3  A    between atoms: O_3  and  C_4
REMARK    4  A    between atoms: C_4  and  C_6
REMARK    5  A    between atoms: C_7  and  C_8
REMARK    6  A    between atoms: C_15  and  C_16
REMARK                            x       y       z     vdW  Elec       q    Type
REMARK                         _______ _______ _______ _____ _____    ______ ____
ROOT
ATOM      1  C   UNL     1       2.426   5.919  19.560  0.00  0.00    +0.000 C 
ATOM      2  C   UNL     1       3.300   5.401  18.641  0.00  0.00    +0.000 C 
ATOM      3  N   UNL     1       3.811   6.169  17.556  0.00  0.00    +0.000 N 
ATOM      4  C   UNL     1       4.813   5.706  16.668  0.00  0.00    +0.000 C 
ATOM      5  C   UNL     1       5.236   6.602  15.515  0.00  0.00    +0.000 C 
ATOM      6  O   UNL     1       5.427   4.645  16.776  0.00  0.00    +0.000 OA
ATOM      7  C   UNL     1       3.107   7.406  17.215  0.00  0.00    +0.000 C 
ATOM      8  C   UNL     1       2.387   8.080  18.334  0.00  0.00    +0.000 A 
ATOM      9  C   UNL     1       2.016   9.432  18.171  0.00  0.00    +0.000 A 
ATOM     10  C   UNL     1       1.366  10.126  19.190  0.00  0.00    +0.000 A 
ATOM     11  C   UNL     1       1.101   9.474  20.375  0.00  0.00    +0.000 A 
ATOM     12  C   UNL     1       1.456   8.123  20.526  0.00  0.00    +0.000 A 
ATOM     13  C   UNL     1       2.078   7.378  19.502  0.00  0.00    +0.000 A 
ENDROOT
BRANCH   2  14
ATOM     14  C   UNL     1       3.739   3.983  18.762  0.00  0.00    +0.000 A 
ATOM     15  C   UNL     1       3.327   3.024  17.824  0.00  0.00    +0.000 A 
ATOM     16  C   UNL     1       3.661   1.677  17.992  0.00  0.00    +0.000 A 
ATOM     17  C   UNL     1       4.447   1.283  19.072  0.00  0.00    +0.000 A 
ATOM     18  C   UNL     1       4.901   2.233  19.988  0.00  0.00    +0.000 A 
ATOM     19  C   UNL     1       4.538   3.576  19.842  0.00  0.00    +0.000 A 
ENDBRANCH   2  14
BRANCH   1  20
ATOM     20  C   UNL     1       1.727   4.974  20.521  0.00  0.00    +0.000 C 
ATOM     21  O   UNL     1       2.135   4.678  21.636  0.00  0.00    +0.000 OA
BRANCH  20  22
ATOM     22  O   UNL     1       0.691   4.323  19.936  0.00  0.00    +0.000 OA
BRANCH  22  24
ATOM     23  C   UNL     1       0.388   2.149  18.905  0.00  0.00    +0.000 C 
ATOM     24  C   UNL     1       0.641   2.911  20.200  0.00  0.00    +0.000 C 
ENDBRANCH  22  24
ENDBRANCH  20  22
ENDBRANCH   1  20
TORSDOF 4
ENDMDL
MODEL 8
REMARK VINA RESULT:      -5.9      7.558     10.410
REMARK  Name = 
REMARK  6 active torsions:
REMARK  status: ('A' for Active; 'I' for Inactive)
REMARK    1  A    between atoms: C_1  and  C_2
REMARK    2  A    between atoms: C_2  and  O_3
REMARK    3  A    between atoms: O_3  and  C_4
REMARK    4  A    between atoms: C_4  and  C_6
REMARK    5  A    between atoms: C_7  and  C_8
REMARK    6  A    between atoms: C_15  and  C_16
REMARK                            x       y       z     vdW  Elec       q    Type
REMARK                         _______ _______ _______ _____ _____    ______ ____
ROOT
ATOM      1  C   UNL     1       2.251   5.882  19.444  0.00  0.00    +0.000 C 
ATOM      2  C   UNL     1       3.134   5.379  18.525  0.00  0.00    +0.000 C 
ATOM      3  N   UNL     1       3.725   6.187  17.512  0.00  0.00    +0.000 N 
ATOM      4  C   UNL     1       4.737   5.730  16.632  0.00  0.00    +0.000 C 
ATOM      5  C   UNL     1       5.250   6.675  15.558  0.00  0.00    +0.000 C 
ATOM      6  O   UNL     1       5.292   4.633  16.692  0.00  0.00    +0.000 OA
ATOM      7  C   UNL     1       3.098   7.479  17.229  0.00  0.00    +0.000 C 
ATOM      8  C   UNL     1       2.369   8.116  18.364  0.00  0.00    +0.000 A 
ATOM      9  C   UNL     1       2.074   9.494  18.277  0.00  0.00    +0.000 A 
ATOM     10  C   UNL     1       1.419  10.154  19.316  0.00  0.00    +0.000 A 
ATOM     11  C   UNL     1       1.075   9.441  20.444  0.00  0.00    +0.000 A 
ATOM     12  C   UNL     1       1.355   8.066  20.518  0.00  0.00    +0.000 A 
ATOM     13  C   UNL     1       1.979   7.358  19.471  0.00  0.00    +0.000 A 
ENDROOT
BRANCH   2  14
ATOM     14  C   UNL     1       3.496   3.935  18.567  0.00  0.00    +0.000 A 
ATOM     15  C   UNL     1       2.796   2.999  17.790  0.00  0.00    +0.000 A 
ATOM     16  C   UNL     1       3.073   1.633  17.902  0.00  0.00    +0.000 A 
ATOM     17  C   UNL     1       4.082   1.195  18.756  0.00  0.00    +0.000 A 
ATOM     18  C   UNL     1       4.816   2.118  19.502  0.00  0.00    +0.000 A 
ATOM     19  C   UNL     1       4.516   3.482  19.418  0.00  0.00    +0.000 A 
ENDBRANCH   2  14
BRANCH   1  20
ATOM     20  C   UNL     1       1.468   4.915  20.314  0.00  0.00    +0.000 C 
ATOM     21  O   UNL     1       0.386   4.425  20.021  0.00  0.00    +0.000 OA
BRANCH  20  22
ATOM     22  O   UNL     1       1.999   4.800  21.557  0.00  0.00    +0.000 OA
BRANCH  22  24
ATOM     23  C   UNL     1       1.332   2.475  21.737  0.00  0.00    +0.000 C 
ATOM     24  C   UNL     1       2.466   3.482  21.892  0.00  0.00    +0.000 C 
ENDBRANCH  22  24
ENDBRANCH  20  22
ENDBRANCH   1  20
TORSDOF 4
ENDMDL
MODEL 9
REMARK VINA RESULT:      -5.9      1.817      4.248
REMARK  Name = 
REMARK  6 active torsions:
REMARK  status: ('A' for Active; 'I' for Inactive)
REMARK    1  A    between atoms: C_1  and  C_2
REMARK    2  A    between atoms: C_2  and  O_3
REMARK    3  A    between atoms: O_3  and  C_4
REMARK    4  A    between atoms: C_4  and  C_6
REMARK    5  A    between atoms: C_7  and  C_8
REMARK    6  A    between atoms: C_15  and  C_16
REMARK                            x       y       z     vdW  Elec       q    Type
REMARK                         _______ _______ _______ _____ _____    ______ ____
ROOT
ATOM      1  C   UNL     1      -2.107  11.977  18.888  0.00  0.00    +0.000 C 
ATOM      2  C   UNL     1      -2.954  12.412  19.874  0.00  0.00    +0.000 C 
ATOM      3  N   UNL     1      -4.371  12.360  19.741  0.00  0.00    +0.000 N 
ATOM      4  C   UNL     1      -5.271  12.678  20.788  0.00  0.00    +0.000 C 
ATOM      5  C   UNL     1      -6.764  12.634  20.504  0.00  0.00    +0.000 C 
ATOM      6  O   UNL     1      -4.953  12.939  21.947  0.00  0.00    +0.000 OA
ATOM      7  C   UNL     1      -4.916  12.182  18.394  0.00  0.00    +0.000 C 
ATOM      8  C   UNL     1      -4.046  11.450  17.427  0.00  0.00    +0.000 A 
ATOM      9  C   UNL     1      -4.642  10.925  16.260  0.00  0.00    +0.000 A 
ATOM     10  C   UNL     1      -3.889  10.209  15.331  0.00  0.00    +0.000 A 
ATOM     11  C   UNL     1      -2.548  10.005  15.576  0.00  0.00    +0.000 A 
ATOM     12  C   UNL     1      -1.957  10.546  16.730  0.00  0.00    +0.000 A 
ATOM     13  C   UNL     1      -2.677  11.310  17.670  0.00  0.00    +0.000 A 
ENDROOT
BRANCH   2  14
ATOM     14  C   UNL     1      -2.390  12.969  21.134  0.00  0.00    +0.000 A 
ATOM     15  C   UNL     1      -2.206  14.352  21.286  0.00  0.00    +0.000 A 
ATOM     16  C   UNL     1      -1.589  14.865  22.431  0.00  0.00    +0.000 A 
ATOM     17  C   UNL     1      -1.192  14.007  23.453  0.00  0.00    +0.000 A 
ATOM     18  C   UNL     1      -1.409  12.633  23.335  0.00  0.00    +0.000 A 
ATOM     19  C   UNL     1      -1.993  12.114  22.175  0.00  0.00    +0.000 A 
ENDBRANCH   2  14
BRANCH   1  20
ATOM     20  C   UNL     1      -0.629  12.307  18.993  0.00  0.00    +0.000 C 
ATOM     21  O   UNL     1      -0.103  13.318  18.549  0.00  0.00    +0.000 OA
BRANCH  20  22
ATOM     22  O   UNL     1       0.098  11.261  19.460  0.00  0.00    +0.000 OA
BRANCH  22  24
ATOM     23  C   UNL     1       1.341   9.646  18.143  0.00  0.00    +0.000 C 
ATOM     24  C   UNL     1       1.339  11.036  18.770  0.00  0.00    +0.000 C 
ENDBRANCH  22  24
ENDBRANCH  20  22
ENDBRANCH   1  20
TORSDOF 4
ENDMDL
