MODEL 1
REMARK VINA RESULT:      -8.1      0.000      0.000
REMARK  Name = 
REMARK  6 active torsions:
REMARK  status: ('A' for Active; 'I' for Inactive)
REMARK    1  A    between atoms: C_1  and  C_2
REMARK    2  A    between atoms: C_7  and  C_8
REMARK    3  A    between atoms: C_10  and  N_11
REMARK    4  A    between atoms: N_11  and  N_12
REMARK    5  A    between atoms: C_13  and  C_14
REMARK    6  A    between atoms: C_18  and  N_19
REMARK                            x       y       z     vdW  Elec       q    Type
REMARK                         _______ _______ _______ _____ _____    ______ ____
ROOT
ATOM      1  N   UNL     1       6.093   6.194  17.691  0.00  0.00    +0.000 N 
ATOM      2  H   UNL     1       6.699   5.844  18.426  0.00  0.00    +0.000 HD
ENDROOT
BRANCH   1  12
ATOM      3  C   UNL     1       4.593   1.834  20.309  0.00  0.00    +0.000 C 
ATOM      4  C   UNL     1       3.928   3.118  19.910  0.00  0.00    +0.000 A 
ATOM      5  C   UNL     1       2.595   3.365  20.217  0.00  0.00    +0.000 A 
ATOM      6  C   UNL     1       2.009   4.579  19.852  0.00  0.00    +0.000 A 
ATOM      7  C   UNL     1       2.708   5.550  19.148  0.00  0.00    +0.000 A 
ATOM      8  N   UNL     1       2.041   6.668  18.818  0.00  0.00    +0.000 NA
ATOM      9  C   UNL     1       2.687   7.610  18.100  0.00  0.00    +0.000 A 
ATOM     10  C   UNL     1       1.907   8.830  17.709  0.00  0.00    +0.000 C 
ATOM     11  C   UNL     1       4.006   7.472  17.701  0.00  0.00    +0.000 A 
ATOM     12  C   UNL     1       4.719   6.313  18.033  0.00  0.00    +0.000 A 
ATOM     13  C   UNL     1       4.056   5.316  18.802  0.00  0.00    +0.000 A 
ATOM     14  C   UNL     1       4.657   4.098  19.225  0.00  0.00    +0.000 A 
ENDBRANCH   1  12
BRANCH   1  15
ATOM     15  N   UNL     1       6.428   6.033  16.390  0.00  0.00    +0.000 NA
ATOM     16  C   UNL     1       6.180   4.874  15.872  0.00  0.00    +0.000 C 
BRANCH  16  17
ATOM     17  C   UNL     1       6.533   4.602  14.463  0.00  0.00    +0.000 A 
ATOM     18  C   UNL     1       7.551   5.340  13.851  0.00  0.00    +0.000 A 
ATOM     19  C   UNL     1       7.844   5.138  12.500  0.00  0.00    +0.000 A 
ATOM     20  C   UNL     1       7.104   4.215  11.757  0.00  0.00    +0.000 A 
ATOM     21  C   UNL     1       6.088   3.476  12.381  0.00  0.00    +0.000 A 
ATOM     22  C   UNL     1       5.814   3.645  13.742  0.00  0.00    +0.000 A 
BRANCH  21  23
ATOM     23  N   UNL     1       5.262   2.560  11.588  0.00  0.00    +0.000 N 
ATOM     24  O   UNL     1       4.136   2.955  11.246  0.00  0.00    +0.000 OA
ATOM     25  O   UNL     1       5.728   1.447  11.319  0.00  0.00    +0.000 OA
ENDBRANCH  21  23
ENDBRANCH  16  17
ENDBRANCH   1  15
TORSDOF 4
ENDMDL
MODEL 2
REMARK VINA RESULT:      -8.0      5.462      8.202
REMARK  Name = 
REMARK  6 active torsions:
REMARK  status: ('A' for Active; 'I' for Inactive)
REMARK    1  A    between atoms: C_1  and  C_2
REMARK    2  A    between atoms: C_7  and  C_8
REMARK    3  A    between atoms: C_10  and  N_11
REMARK    4  A    between atoms: N_11  and  N_12
REMARK    5  A    between atoms: C_13  and  C_14
REMARK    6  A    between atoms: C_18  and  N_19
REMARK                            x       y       z     vdW  Elec       q    Type
REMARK                         _______ _______ _______ _____ _____    ______ ____
ROOT
ATOM      1  N   UNL     1       3.330   6.991  17.541  0.00  0.00    +0.000 N 
ATOM      2  H   UNL     1       3.217   6.903  16.536  0.00  0.00    +0.000 HD
ENDROOT
BRANCH   1  12
ATOM      3  C   UNL     1       0.607   2.612  18.779  0.00  0.00    +0.000 C 
ATOM      4  C   UNL     1       2.042   3.039  18.881  0.00  0.00    +0.000 A 
ATOM      5  C   UNL     1       3.007   2.198  19.423  0.00  0.00    +0.000 A 
ATOM      6  C   UNL     1       4.338   2.614  19.486  0.00  0.00    +0.000 A 
ATOM      7  C   UNL     1       4.737   3.872  19.054  0.00  0.00    +0.000 A 
ATOM      8  N   UNL     1       6.035   4.185  19.189  0.00  0.00    +0.000 NA
ATOM      9  C   UNL     1       6.440   5.416  18.813  0.00  0.00    +0.000 A 
ATOM     10  C   UNL     1       7.887   5.753  19.012  0.00  0.00    +0.000 C 
ATOM     11  C   UNL     1       5.572   6.360  18.290  0.00  0.00    +0.000 A 
ATOM     12  C   UNL     1       4.213   6.056  18.144  0.00  0.00    +0.000 A 
ATOM     13  C   UNL     1       3.773   4.756  18.522  0.00  0.00    +0.000 A 
ATOM     14  C   UNL     1       2.430   4.301  18.416  0.00  0.00    +0.000 A 
ENDBRANCH   1  12
BRANCH   1  15
ATOM     15  N   UNL     1       2.350   7.541  18.296  0.00  0.00    +0.000 NA
ATOM     16  C   UNL     1       2.014   8.756  18.005  0.00  0.00    +0.000 C 
BRANCH  16  17
ATOM     17  C   UNL     1       0.969   9.443  18.791  0.00  0.00    +0.000 A 
ATOM     18  C   UNL     1      -0.063  10.116  18.128  0.00  0.00    +0.000 A 
ATOM     19  C   UNL     1      -1.017  10.826  18.862  0.00  0.00    +0.000 A 
ATOM     20  C   UNL     1      -0.925  10.883  20.254  0.00  0.00    +0.000 A 
ATOM     21  C   UNL     1       0.112  10.201  20.910  0.00  0.00    +0.000 A 
ATOM     22  C   UNL     1       1.048   9.457  20.186  0.00  0.00    +0.000 A 
BRANCH  21  23
ATOM     23  N   UNL     1       0.254  10.318  22.365  0.00  0.00    +0.000 N 
ATOM     24  O   UNL     1      -0.360  11.237  22.928  0.00  0.00    +0.000 OA
ATOM     25  O   UNL     1       0.986   9.505  22.942  0.00  0.00    +0.000 OA
ENDBRANCH  21  23
ENDBRANCH  16  17
ENDBRANCH   1  15
TORSDOF 4
ENDMDL
MODEL 3
REMARK VINA RESULT:      -8.0      5.645      9.500
REMARK  Name = 
REMARK  6 active torsions:
REMARK  status: ('A' for Active; 'I' for Inactive)
REMARK    1  A    between atoms: C_1  and  C_2
REMARK    2  A    between atoms: C_7  and  C_8
REMARK    3  A    between atoms: C_10  and  N_11
REMARK    4  A    between atoms: N_11  and  N_12
REMARK    5  A    between atoms: C_13  and  C_14
REMARK    6  A    between atoms: C_18  and  N_19
REMARK                            x       y       z     vdW  Elec       q    Type
REMARK                         _______ _______ _______ _____ _____    ______ ____
ROOT
ATOM      1  N   UNL     1       2.439   7.387  19.361  0.00  0.00    +0.000 N 
ATOM      2  H   UNL     1       2.521   7.826  18.449  0.00  0.00    +0.000 HD
ENDROOT
BRANCH   1  12
ATOM      3  C   UNL     1       5.501   5.862  15.309  0.00  0.00    +0.000 C 
ATOM      4  C   UNL     1       4.795   5.162  16.433  0.00  0.00    +0.000 A 
ATOM      5  C   UNL     1       4.851   3.780  16.571  0.00  0.00    +0.000 A 
ATOM      6  C   UNL     1       4.202   3.159  17.639  0.00  0.00    +0.000 A 
ATOM      7  C   UNL     1       3.458   3.877  18.565  0.00  0.00    +0.000 A 
ATOM      8  N   UNL     1       2.846   3.179  19.535  0.00  0.00    +0.000 NA
ATOM      9  C   UNL     1       2.085   3.850  20.425  0.00  0.00    +0.000 A 
ATOM     10  C   UNL     1       1.381   3.041  21.473  0.00  0.00    +0.000 C 
ATOM     11  C   UNL     1       1.918   5.224  20.378  0.00  0.00    +0.000 A 
ATOM     12  C   UNL     1       2.545   5.971  19.373  0.00  0.00    +0.000 A 
ATOM     13  C   UNL     1       3.363   5.280  18.436  0.00  0.00    +0.000 A 
ATOM     14  C   UNL     1       4.071   5.906  17.374  0.00  0.00    +0.000 A 
ENDBRANCH   1  12
BRANCH   1  15
ATOM     15  N   UNL     1       1.754   7.997  20.356  0.00  0.00    +0.000 NA
ATOM     16  C   UNL     1       1.066   9.042  20.025  0.00  0.00    +0.000 C 
BRANCH  16  17
ATOM     17  C   UNL     1       0.305   9.783  21.051  0.00  0.00    +0.000 A 
ATOM     18  C   UNL     1       0.226   9.277  22.353  0.00  0.00    +0.000 A 
ATOM     19  C   UNL     1      -0.548   9.934  23.312  0.00  0.00    +0.000 A 
ATOM     20  C   UNL     1      -1.263  11.082  22.963  0.00  0.00    +0.000 A 
ATOM     21  C   UNL     1      -1.175  11.584  21.656  0.00  0.00    +0.000 A 
ATOM     22  C   UNL     1      -0.371  10.954  20.700  0.00  0.00    +0.000 A 
BRANCH  21  23
ATOM     23  N   UNL     1      -1.980  12.747  21.266  0.00  0.00    +0.000 N 
ATOM     24  O   UNL     1      -3.134  12.821  21.717  0.00  0.00    +0.000 OA
ATOM     25  O   UNL     1      -1.469  13.575  20.504  0.00  0.00    +0.000 OA
ENDBRANCH  21  23
ENDBRANCH  16  17
ENDBRANCH   1  15
TORSDOF 4
ENDMDL
MODEL 4
REMARK VINA RESULT:      -7.9      0.838      1.051
REMARK  Name = 
REMARK  6 active torsions:
REMARK  status: ('A' for Active; 'I' for Inactive)
REMARK    1  A    between atoms: C_1  and  C_2
REMARK    2  A    between atoms: C_7  and  C_8
REMARK    3  A    between atoms: C_10  and  N_11
REMARK    4  A    between atoms: N_11  and  N_12
REMARK    5  A    between atoms: C_13  and  C_14
REMARK    6  A    between atoms: C_18  and  N_19
REMARK                            x       y       z     vdW  Elec       q    Type
REMARK                         _______ _______ _______ _____ _____    ______ ____
ROOT
ATOM      1  N   UNL     1       6.153   5.697  17.845  0.00  0.00    +0.000 N 
ATOM      2  H   UNL     1       6.610   5.431  18.712  0.00  0.00    +0.000 HD
ENDROOT
BRANCH   1  12
ATOM      3  C   UNL     1       3.752   1.041  18.669  0.00  0.00    +0.000 C 
ATOM      4  C   UNL     1       3.300   2.467  18.557  0.00  0.00    +0.000 A 
ATOM      5  C   UNL     1       1.956   2.808  18.657  0.00  0.00    +0.000 A 
ATOM      6  C   UNL     1       1.567   4.146  18.569  0.00  0.00    +0.000 A 
ATOM      7  C   UNL     1       2.484   5.165  18.345  0.00  0.00    +0.000 A 
ATOM      8  N   UNL     1       2.001   6.413  18.245  0.00  0.00    +0.000 NA
ATOM      9  C   UNL     1       2.868   7.416  17.989  0.00  0.00    +0.000 A 
ATOM     10  C   UNL     1       2.297   8.795  17.842  0.00  0.00    +0.000 C 
ATOM     11  C   UNL     1       4.227   7.206  17.833  0.00  0.00    +0.000 A 
ATOM     12  C   UNL     1       4.751   5.911  17.930  0.00  0.00    +0.000 A 
ATOM     13  C   UNL     1       3.853   4.845  18.216  0.00  0.00    +0.000 A 
ATOM     14  C   UNL     1       4.241   3.485  18.358  0.00  0.00    +0.000 A 
ENDBRANCH   1  12
BRANCH   1  15
ATOM     15  N   UNL     1       6.685   5.342  16.652  0.00  0.00    +0.000 NA
ATOM     16  C   UNL     1       5.847   5.120  15.692  0.00  0.00    +0.000 C 
BRANCH  16  17
ATOM     17  C   UNL     1       6.338   4.707  14.362  0.00  0.00    +0.000 A 
ATOM     18  C   UNL     1       7.462   5.334  13.815  0.00  0.00    +0.000 A 
ATOM     19  C   UNL     1       7.893   4.999  12.529  0.00  0.00    +0.000 A 
ATOM     20  C   UNL     1       7.185   4.055  11.781  0.00  0.00    +0.000 A 
ATOM     21  C   UNL     1       6.061   3.428  12.340  0.00  0.00    +0.000 A 
ATOM     22  C   UNL     1       5.646   3.730  13.641  0.00  0.00    +0.000 A 
BRANCH  21  23
ATOM     23  N   UNL     1       5.273   2.491  11.532  0.00  0.00    +0.000 N 
ATOM     24  O   UNL     1       5.785   1.391  11.269  0.00  0.00    +0.000 OA
ATOM     25  O   UNL     1       4.155   2.854  11.151  0.00  0.00    +0.000 OA
ENDBRANCH  21  23
ENDBRANCH  16  17
ENDBRANCH   1  15
TORSDOF 4
ENDMDL
MODEL 5
REMARK VINA RESULT:      -7.8      5.440      8.777
REMARK  Name = 
REMARK  6 active torsions:
REMARK  status: ('A' for Active; 'I' for Inactive)
REMARK    1  A    between atoms: C_1  and  C_2
REMARK    2  A    between atoms: C_7  and  C_8
REMARK    3  A    between atoms: C_10  and  N_11
REMARK    4  A    between atoms: N_11  and  N_12
REMARK    5  A    between atoms: C_13  and  C_14
REMARK    6  A    between atoms: C_18  and  N_19
REMARK                            x       y       z     vdW  Elec       q    Type
REMARK                         _______ _______ _______ _____ _____    ______ ____
ROOT
ATOM      1  N   UNL     1       2.779   6.223  20.424  0.00  0.00    +0.000 N 
ATOM      2  H   UNL     1       3.716   6.456  20.736  0.00  0.00    +0.000 HD
ENDROOT
BRANCH   1  12
ATOM      3  C   UNL     1       6.761   6.825  16.976  0.00  0.00    +0.000 C 
ATOM      4  C   UNL     1       5.648   5.835  17.154  0.00  0.00    +0.000 A 
ATOM      5  C   UNL     1       5.480   4.771  16.276  0.00  0.00    +0.000 A 
ATOM      6  C   UNL     1       4.448   3.854  16.481  0.00  0.00    +0.000 A 
ATOM      7  C   UNL     1       3.543   3.986  17.525  0.00  0.00    +0.000 A 
ATOM      8  N   UNL     1       2.568   3.068  17.613  0.00  0.00    +0.000 NA
ATOM      9  C   UNL     1       1.653   3.197  18.596  0.00  0.00    +0.000 A 
ATOM     10  C   UNL     1       0.551   2.180  18.646  0.00  0.00    +0.000 C 
ATOM     11  C   UNL     1       1.687   4.231  19.516  0.00  0.00    +0.000 A 
ATOM     12  C   UNL     1       2.693   5.202  19.442  0.00  0.00    +0.000 A 
ATOM     13  C   UNL     1       3.675   5.071  18.419  0.00  0.00    +0.000 A 
ATOM     14  C   UNL     1       4.761   5.969  18.230  0.00  0.00    +0.000 A 
ENDBRANCH   1  12
BRANCH   1  15
ATOM     15  N   UNL     1       1.785   7.139  20.499  0.00  0.00    +0.000 NA
ATOM     16  C   UNL     1       1.898   8.174  19.730  0.00  0.00    +0.000 C 
BRANCH  16  17
ATOM     17  C   UNL     1       0.870   9.235  19.761  0.00  0.00    +0.000 A 
ATOM     18  C   UNL     1       0.489   9.862  18.570  0.00  0.00    +0.000 A 
ATOM     19  C   UNL     1      -0.431  10.913  18.598  0.00  0.00    +0.000 A 
ATOM     20  C   UNL     1      -0.951  11.351  19.817  0.00  0.00    +0.000 A 
ATOM     21  C   UNL     1      -0.566  10.713  21.006  0.00  0.00    +0.000 A 
ATOM     22  C   UNL     1       0.325   9.636  20.983  0.00  0.00    +0.000 A 
BRANCH  21  23
ATOM     23  N   UNL     1      -1.053  11.217  22.294  0.00  0.00    +0.000 N 
ATOM     24  O   UNL     1      -2.020  11.995  22.276  0.00  0.00    +0.000 OA
ATOM     25  O   UNL     1      -0.466  10.851  23.319  0.00  0.00    +0.000 OA
ENDBRANCH  21  23
ENDBRANCH  16  17
ENDBRANCH   1  15
TORSDOF 4
ENDMDL
MODEL 6
REMARK VINA RESULT:      -7.8      1.373      3.132
REMARK  Name = 
REMARK  6 active torsions:
REMARK  status: ('A' for Active; 'I' for Inactive)
REMARK    1  A    between atoms: C_1  and  C_2
REMARK    2  A    between atoms: C_7  and  C_8
REMARK    3  A    between atoms: C_10  and  N_11
REMARK    4  A    between atoms: N_11  and  N_12
REMARK    5  A    between atoms: C_13  and  C_14
REMARK    6  A    between atoms: C_18  and  N_19
REMARK                            x       y       z     vdW  Elec       q    Type
REMARK                         _______ _______ _______ _____ _____    ______ ____
ROOT
ATOM      1  N   UNL     1       4.886   5.737  17.354  0.00  0.00    +0.000 N 
ATOM      2  H   UNL     1       5.536   6.340  17.849  0.00  0.00    +0.000 HD
ENDROOT
BRANCH   1  12
ATOM      3  C   UNL     1       1.586   8.533  20.421  0.00  0.00    +0.000 C 
ATOM      4  C   UNL     1       1.858   7.074  20.203  0.00  0.00    +0.000 A 
ATOM      5  C   UNL     1       1.168   6.097  20.913  0.00  0.00    +0.000 A 
ATOM      6  C   UNL     1       1.429   4.747  20.673  0.00  0.00    +0.000 A 
ATOM      7  C   UNL     1       2.392   4.334  19.762  0.00  0.00    +0.000 A 
ATOM      8  N   UNL     1       2.586   3.012  19.631  0.00  0.00    +0.000 NA
ATOM      9  C   UNL     1       3.544   2.587  18.781  0.00  0.00    +0.000 A 
ATOM     10  C   UNL     1       3.767   1.107  18.685  0.00  0.00    +0.000 C 
ATOM     11  C   UNL     1       4.325   3.457  18.040  0.00  0.00    +0.000 A 
ATOM     12  C   UNL     1       4.142   4.840  18.164  0.00  0.00    +0.000 A 
ATOM     13  C   UNL     1       3.124   5.304  19.045  0.00  0.00    +0.000 A 
ATOM     14  C   UNL     1       2.814   6.675  19.260  0.00  0.00    +0.000 A 
ENDBRANCH   1  12
BRANCH   1  15
ATOM     15  N   UNL     1       5.101   5.417  16.056  0.00  0.00    +0.000 NA
ATOM     16  C   UNL     1       6.305   5.061  15.743  0.00  0.00    +0.000 C 
BRANCH  16  17
ATOM     17  C   UNL     1       6.634   4.715  14.346  0.00  0.00    +0.000 A 
ATOM     18  C   UNL     1       7.658   5.403  13.686  0.00  0.00    +0.000 A 
ATOM     19  C   UNL     1       7.931   5.131  12.344  0.00  0.00    +0.000 A 
ATOM     20  C   UNL     1       7.165   4.188  11.655  0.00  0.00    +0.000 A 
ATOM     21  C   UNL     1       6.143   3.500  12.325  0.00  0.00    +0.000 A 
ATOM     22  C   UNL     1       5.888   3.739  13.679  0.00  0.00    +0.000 A 
BRANCH  21  23
ATOM     23  N   UNL     1       5.289   2.563  11.587  0.00  0.00    +0.000 N 
ATOM     24  O   UNL     1       5.750   1.436  11.346  0.00  0.00    +0.000 OA
ATOM     25  O   UNL     1       4.169   2.953  11.237  0.00  0.00    +0.000 OA
ENDBRANCH  21  23
ENDBRANCH  16  17
ENDBRANCH   1  15
TORSDOF 4
ENDMDL
MODEL 7
REMARK VINA RESULT:      -7.7      5.621      9.074
REMARK  Name = 
REMARK  6 active torsions:
REMARK  status: ('A' for Active; 'I' for Inactive)
REMARK    1  A    between atoms: C_1  and  C_2
REMARK    2  A    between atoms: C_7  and  C_8
REMARK    3  A    between atoms: C_10  and  N_11
REMARK    4  A    between atoms: N_11  and  N_12
REMARK    5  A    between atoms: C_13  and  C_14
REMARK    6  A    between atoms: C_18  and  N_19
REMARK                            x       y       z     vdW  Elec       q    Type
REMARK                         _______ _______ _______ _____ _____    ______ ____
ROOT
ATOM      1  N   UNL     1       2.779   7.141  20.139  0.00  0.00    +0.000 N 
ATOM      2  H   UNL     1       3.647   7.589  19.863  0.00  0.00    +0.000 HD
ENDROOT
BRANCH   1  12
ATOM      3  C   UNL     1       5.317   6.033  15.617  0.00  0.00    +0.000 C 
ATOM      4  C   UNL     1       4.614   5.226  16.668  0.00  0.00    +0.000 A 
ATOM      5  C   UNL     1       4.507   3.844  16.566  0.00  0.00    +0.000 A 
ATOM      6  C   UNL     1       3.865   3.118  17.571  0.00  0.00    +0.000 A 
ATOM      7  C   UNL     1       3.288   3.738  18.671  0.00  0.00    +0.000 A 
ATOM      8  N   UNL     1       2.667   2.950  19.563  0.00  0.00    +0.000 NA
ATOM      9  C   UNL     1       2.064   3.532  20.621  0.00  0.00    +0.000 A 
ATOM     10  C   UNL     1       1.342   2.632  21.580  0.00  0.00    +0.000 C 
ATOM     11  C   UNL     1       2.067   4.901  20.822  0.00  0.00    +0.000 A 
ATOM     12  C   UNL     1       2.706   5.742  19.902  0.00  0.00    +0.000 A 
ATOM     13  C   UNL     1       3.360   5.143  18.789  0.00  0.00    +0.000 A 
ATOM     14  C   UNL     1       4.061   5.866  17.785  0.00  0.00    +0.000 A 
ENDBRANCH   1  12
BRANCH   1  15
ATOM     15  N   UNL     1       1.628   7.851  20.194  0.00  0.00    +0.000 NA
ATOM     16  C   UNL     1       1.632   9.000  19.598  0.00  0.00    +0.000 C 
BRANCH  16  17
ATOM     17  C   UNL     1       0.427   9.853  19.625  0.00  0.00    +0.000 A 
ATOM     18  C   UNL     1      -0.234  10.155  18.430  0.00  0.00    +0.000 A 
ATOM     19  C   UNL     1      -1.333  11.016  18.438  0.00  0.00    +0.000 A 
ATOM     20  C   UNL     1      -1.758  11.593  19.637  0.00  0.00    +0.000 A 
ATOM     21  C   UNL     1      -1.092  11.281  20.831  0.00  0.00    +0.000 A 
ATOM     22  C   UNL     1      -0.014  10.390  20.838  0.00  0.00    +0.000 A 
BRANCH  21  23
ATOM     23  N   UNL     1      -1.488  11.940  22.080  0.00  0.00    +0.000 N 
ATOM     24  O   UNL     1      -0.647  11.994  22.991  0.00  0.00    +0.000 OA
ATOM     25  O   UNL     1      -2.637  12.391  22.157  0.00  0.00    +0.000 OA
ENDBRANCH  21  23
ENDBRANCH  16  17
ENDBRANCH   1  15
TORSDOF 4
ENDMDL
MODEL 8
REMARK VINA RESULT:      -7.7      5.296      9.052
REMARK  Name = 
REMARK  6 active torsions:
REMARK  status: ('A' for Active; 'I' for Inactive)
REMARK    1  A    between atoms: C_1  and  C_2
REMARK    2  A    between atoms: C_7  and  C_8
REMARK    3  A    between atoms: C_10  and  N_11
REMARK    4  A    between atoms: N_11  and  N_12
REMARK    5  A    between atoms: C_13  and  C_14
REMARK    6  A    between atoms: C_18  and  N_19
REMARK                            x       y       z     vdW  Elec       q    Type
REMARK                         _______ _______ _______ _____ _____    ______ ____
ROOT
ATOM      1  N   UNL     1       2.749   7.585  18.758  0.00  0.00    +0.000 N 
ATOM      2  H   UNL     1       3.184   7.956  17.919  0.00  0.00    +0.000 HD
ENDROOT
BRANCH   1  12
ATOM      3  C   UNL     1       5.899   5.560  15.004  0.00  0.00    +0.000 C 
ATOM      4  C   UNL     1       5.095   4.995  16.138  0.00  0.00    +0.000 A 
ATOM      5  C   UNL     1       5.054   3.628  16.382  0.00  0.00    +0.000 A 
ATOM      6  C   UNL     1       4.314   3.134  17.458  0.00  0.00    +0.000 A 
ATOM      7  C   UNL     1       3.574   3.967  18.286  0.00  0.00    +0.000 A 
ATOM      8  N   UNL     1       2.872   3.386  19.272  0.00  0.00    +0.000 NA
ATOM      9  C   UNL     1       2.114   4.171  20.066  0.00  0.00    +0.000 A 
ATOM     10  C   UNL     1       1.308   3.492  21.133  0.00  0.00    +0.000 C 
ATOM     11  C   UNL     1       2.040   5.544  19.907  0.00  0.00    +0.000 A 
ATOM     12  C   UNL     1       2.762   6.170  18.883  0.00  0.00    +0.000 A 
ATOM     13  C   UNL     1       3.578   5.358  18.046  0.00  0.00    +0.000 A 
ATOM     14  C   UNL     1       4.376   5.854  16.980  0.00  0.00    +0.000 A 
ENDBRANCH   1  12
BRANCH   1  15
ATOM     15  N   UNL     1       1.784   8.286  19.398  0.00  0.00    +0.000 NA
ATOM     16  C   UNL     1       1.354   9.349  18.799  0.00  0.00    +0.000 C 
BRANCH  16  17
ATOM     17  C   UNL     1       0.316  10.187  19.434  0.00  0.00    +0.000 A 
ATOM     18  C   UNL     1      -0.407  11.099  18.657  0.00  0.00    +0.000 A 
ATOM     19  C   UNL     1      -1.341  11.944  19.261  0.00  0.00    +0.000 A 
ATOM     20  C   UNL     1      -1.535  11.893  20.643  0.00  0.00    +0.000 A 
ATOM     21  C   UNL     1      -0.809  10.972  21.413  0.00  0.00    +0.000 A 
ATOM     22  C   UNL     1       0.100  10.097  20.812  0.00  0.00    +0.000 A 
BRANCH  21  23
ATOM     23  N   UNL     1      -0.957  10.966  22.872  0.00  0.00    +0.000 N 
ATOM     24  O   UNL     1      -1.852  11.675  23.360  0.00  0.00    +0.000 OA
ATOM     25  O   UNL     1      -0.177  10.269  23.530  0.00  0.00    +0.000 OA
ENDBRANCH  21  23
ENDBRANCH  16  17
ENDBRANCH   1  15
TORSDOF 4
ENDMDL
MODEL 9
REMARK VINA RESULT:      -7.7      4.592      8.471
REMARK  Name = 
REMARK  6 active torsions:
REMARK  status: ('A' for Active; 'I' for Inactive)
REMARK    1  A    between atoms: C_1  and  C_2
REMARK    2  A    between atoms: C_7  and  C_8
REMARK    3  A    between atoms: C_10  and  N_11
REMARK    4  A    between atoms: N_11  and  N_12
REMARK    5  A    between atoms: C_13  and  C_14
REMARK    6  A    between atoms: C_18  and  N_19
REMARK                            x       y       z     vdW  Elec       q    Type
REMARK                         _______ _______ _______ _____ _____    ______ ____
ROOT
ATOM      1  N   UNL     1       2.608   6.399  20.471  0.00  0.00    +0.000 N 
ATOM      2  H   UNL     1       3.399   6.388  21.107  0.00  0.00    +0.000 HD
ENDROOT
BRANCH   1  12
ATOM      3  C   UNL     1       6.645   7.068  17.098  0.00  0.00    +0.000 C 
ATOM      4  C   UNL     1       5.562   6.044  17.273  0.00  0.00    +0.000 A 
ATOM      5  C   UNL     1       5.450   4.958  16.413  0.00  0.00    +0.000 A 
ATOM      6  C   UNL     1       4.445   4.010  16.614  0.00  0.00    +0.000 A 
ATOM      7  C   UNL     1       3.513   4.132  17.636  0.00  0.00    +0.000 A 
ATOM      8  N   UNL     1       2.568   3.182  17.722  0.00  0.00    +0.000 NA
ATOM      9  C   UNL     1       1.628   3.299  18.682  0.00  0.00    +0.000 A 
ATOM     10  C   UNL     1       0.560   2.247  18.729  0.00  0.00    +0.000 C 
ATOM     11  C   UNL     1       1.605   4.352  19.581  0.00  0.00    +0.000 A 
ATOM     12  C   UNL     1       2.580   5.355  19.508  0.00  0.00    +0.000 A 
ATOM     13  C   UNL     1       3.588   5.238  18.510  0.00  0.00    +0.000 A 
ATOM     14  C   UNL     1       4.647   6.169  18.326  0.00  0.00    +0.000 A 
ENDBRANCH   1  12
BRANCH   1  15
ATOM     15  N   UNL     1       1.968   7.558  20.192  0.00  0.00    +0.000 NA
ATOM     16  C   UNL     1       1.249   8.061  21.144  0.00  0.00    +0.000 C 
BRANCH  16  17
ATOM     17  C   UNL     1       0.498   9.313  20.921  0.00  0.00    +0.000 A 
ATOM     18  C   UNL     1       0.227  10.158  22.003  0.00  0.00    +0.000 A 
ATOM     19  C   UNL     1      -0.541  11.309  21.814  0.00  0.00    +0.000 A 
ATOM     20  C   UNL     1      -1.058  11.603  20.551  0.00  0.00    +0.000 A 
ATOM     21  C   UNL     1      -0.777  10.752  19.471  0.00  0.00    +0.000 A 
ATOM     22  C   UNL     1       0.023   9.618  19.643  0.00  0.00    +0.000 A 
BRANCH  21  23
ATOM     23  N   UNL     1      -1.377  11.018  18.159  0.00  0.00    +0.000 N 
ATOM     24  O   UNL     1      -1.388  10.089  17.336  0.00  0.00    +0.000 OA
ATOM     25  O   UNL     1      -1.823  12.150  17.946  0.00  0.00    +0.000 OA
ENDBRANCH  21  23
ENDBRANCH  16  17
ENDBRANCH   1  15
TORSDOF 4
ENDMDL
