MODEL 1
REMARK VINA RESULT:      -7.3      0.000      0.000
REMARK  Name = 
REMARK  4 active torsions:
REMARK  status: ('A' for Active; 'I' for Inactive)
REMARK    1  A    between atoms: C_2  and  C_3
REMARK    2  A    between atoms: C_2  and  C_4
REMARK    3  A    between atoms: C_12  and  C_13
REMARK    4  A    between atoms: C_14  and  C_15
REMARK                            x       y       z     vdW  Elec       q    Type
REMARK                         _______ _______ _______ _____ _____    ______ ____
ROOT
ATOM      1  C   UNL     1       4.099   5.784  17.374  0.00  0.00    +0.000 C 
ATOM      2  C   UNL     1       3.808   6.751  18.530  0.00  0.00    +0.000 C 
ATOM      3  C   UNL     1       2.568   6.322  19.323  0.00  0.00    +0.000 C 
ATOM      4  C   UNL     1       2.662   4.864  19.805  0.00  0.00    +0.000 C 
ATOM      5  C   UNL     1       1.424   4.474  20.617  0.00  0.00    +0.000 C 
ATOM      6  C   UNL     1       1.519   3.048  21.116  0.00  0.00    +0.000 C 
ATOM      7  O   UNL     1       1.079   2.736  22.222  0.00  0.00    +0.000 OA
ATOM      8  C   UNL     1       2.000   1.989  20.147  0.00  0.00    +0.000 C 
ATOM      9  C   UNL     1       3.205   2.456  19.315  0.00  0.00    +0.000 C 
ATOM     10  C   UNL     1       3.601   1.346  18.334  0.00  0.00    +0.000 C 
ATOM     11  C   UNL     1       2.950   3.855  18.651  0.00  0.00    +0.000 C 
ATOM     12  C   UNL     1       1.776   3.773  17.640  0.00  0.00    +0.000 C 
ATOM     13  C   UNL     1       4.224   4.339  17.898  0.00  0.00    +0.000 C 
ENDROOT
BRANCH   1  15
ATOM     14  C   UNL     1       5.416   5.733  15.258  0.00  0.00    +0.000 C 
ATOM     15  C   UNL     1       5.297   6.179  16.522  0.00  0.00    +0.000 C 
ATOM     16  C   UNL     1       6.363   7.053  17.127  0.00  0.00    +0.000 C 
ENDBRANCH   1  15
TORSDOF 1
ENDMDL
MODEL 2
REMARK VINA RESULT:      -7.0      1.290      2.058
REMARK  Name = 
REMARK  4 active torsions:
REMARK  status: ('A' for Active; 'I' for Inactive)
REMARK    1  A    between atoms: C_2  and  C_3
REMARK    2  A    between atoms: C_2  and  C_4
REMARK    3  A    between atoms: C_12  and  C_13
REMARK    4  A    between atoms: C_14  and  C_15
REMARK                            x       y       z     vdW  Elec       q    Type
REMARK                         _______ _______ _______ _____ _____    ______ ____
ROOT
ATOM      1  C   UNL     1       4.947   4.813  15.859  0.00  0.00    +0.000 C 
ATOM      2  C   UNL     1       5.063   6.162  16.580  0.00  0.00    +0.000 C 
ATOM      3  C   UNL     1       3.913   6.371  17.572  0.00  0.00    +0.000 C 
ATOM      4  C   UNL     1       3.782   5.200  18.562  0.00  0.00    +0.000 C 
ATOM      5  C   UNL     1       2.645   5.450  19.558  0.00  0.00    +0.000 C 
ATOM      6  C   UNL     1       2.524   4.315  20.551  0.00  0.00    +0.000 C 
ATOM      7  O   UNL     1       2.221   4.533  21.724  0.00  0.00    +0.000 OA
ATOM      8  C   UNL     1       2.603   2.899  20.022  0.00  0.00    +0.000 C 
ATOM      9  C   UNL     1       3.720   2.721  18.982  0.00  0.00    +0.000 C 
ATOM     10  C   UNL     1       3.704   1.276  18.468  0.00  0.00    +0.000 C 
ATOM     11  C   UNL     1       3.654   3.815  17.859  0.00  0.00    +0.000 C 
ATOM     12  C   UNL     1       2.335   3.688  17.052  0.00  0.00    +0.000 C 
ATOM     13  C   UNL     1       4.855   3.661  16.880  0.00  0.00    +0.000 C 
ENDROOT
BRANCH   1  15
ATOM     14  C   UNL     1       7.302   4.970  15.054  0.00  0.00    +0.000 C 
ATOM     15  C   UNL     1       6.039   4.563  14.828  0.00  0.00    +0.000 C 
ATOM     16  C   UNL     1       5.677   3.879  13.537  0.00  0.00    +0.000 C 
ENDBRANCH   1  15
TORSDOF 1
ENDMDL
MODEL 3
REMARK VINA RESULT:      -7.0      2.949      5.743
REMARK  Name = 
REMARK  4 active torsions:
REMARK  status: ('A' for Active; 'I' for Inactive)
REMARK    1  A    between atoms: C_2  and  C_3
REMARK    2  A    between atoms: C_2  and  C_4
REMARK    3  A    between atoms: C_12  and  C_13
REMARK    4  A    between atoms: C_14  and  C_15
REMARK                            x       y       z     vdW  Elec       q    Type
REMARK                         _______ _______ _______ _____ _____    ______ ____
ROOT
ATOM      1  C   UNL     1       3.078   3.748  19.135  0.00  0.00    +0.000 C 
ATOM      2  C   UNL     1       2.796   2.977  17.839  0.00  0.00    +0.000 C 
ATOM      3  C   UNL     1       3.328   3.727  16.612  0.00  0.00    +0.000 C 
ATOM      4  C   UNL     1       4.818   4.087  16.753  0.00  0.00    +0.000 C 
ATOM      5  C   UNL     1       5.328   4.807  15.502  0.00  0.00    +0.000 C 
ATOM      6  C   UNL     1       6.798   5.144  15.621  0.00  0.00    +0.000 C 
ATOM      7  O   UNL     1       7.540   5.089  14.641  0.00  0.00    +0.000 OA
ATOM      8  C   UNL     1       7.288   5.725  16.931  0.00  0.00    +0.000 C 
ATOM      9  C   UNL     1       6.697   5.004  18.152  0.00  0.00    +0.000 C 
ATOM     10  C   UNL     1       7.207   5.677  19.432  0.00  0.00    +0.000 C 
ATOM     11  C   UNL     1       5.135   4.878  18.058  0.00  0.00    +0.000 C 
ATOM     12  C   UNL     1       4.474   6.282  18.066  0.00  0.00    +0.000 C 
ATOM     13  C   UNL     1       4.583   4.060  19.262  0.00  0.00    +0.000 C 
ENDROOT
BRANCH   1  15
ATOM     14  C   UNL     1       3.335   2.315  21.159  0.00  0.00    +0.000 C 
ATOM     15  C   UNL     1       2.535   3.075  20.389  0.00  0.00    +0.000 C 
ATOM     16  C   UNL     1       1.081   3.250  20.736  0.00  0.00    +0.000 C 
ENDBRANCH   1  15
TORSDOF 1
ENDMDL
MODEL 4
REMARK VINA RESULT:      -6.9      1.821      3.087
REMARK  Name = 
REMARK  4 active torsions:
REMARK  status: ('A' for Active; 'I' for Inactive)
REMARK    1  A    between atoms: C_2  and  C_3
REMARK    2  A    between atoms: C_2  and  C_4
REMARK    3  A    between atoms: C_12  and  C_13
REMARK    4  A    between atoms: C_14  and  C_15
REMARK                            x       y       z     vdW  Elec       q    Type
REMARK                         _______ _______ _______ _____ _____    ______ ____
ROOT
ATOM      1  C   UNL     1       5.898   4.747  18.281  0.00  0.00    +0.000 C 
ATOM      2  C   UNL     1       5.449   4.415  16.852  0.00  0.00    +0.000 C 
ATOM      3  C   UNL     1       4.482   3.225  16.828  0.00  0.00    +0.000 C 
ATOM      4  C   UNL     1       3.284   3.432  17.772  0.00  0.00    +0.000 C 
ATOM      5  C   UNL     1       2.322   2.242  17.705  0.00  0.00    +0.000 C 
ATOM      6  C   UNL     1       1.129   2.447  18.613  0.00  0.00    +0.000 C 
ATOM      7  O   UNL     1       0.010   2.054  18.283  0.00  0.00    +0.000 OA
ATOM      8  C   UNL     1       1.382   2.979  20.007  0.00  0.00    +0.000 C 
ATOM      9  C   UNL     1       2.401   4.129  20.022  0.00  0.00    +0.000 C 
ATOM     10  C   UNL     1       2.632   4.580  21.470  0.00  0.00    +0.000 C 
ATOM     11  C   UNL     1       3.708   3.763  19.235  0.00  0.00    +0.000 C 
ATOM     12  C   UNL     1       4.440   2.576  19.916  0.00  0.00    +0.000 C 
ATOM     13  C   UNL     1       4.674   4.984  19.190  0.00  0.00    +0.000 C 
ENDROOT
BRANCH   1  15
ATOM     14  C   UNL     1       7.842   5.910  19.321  0.00  0.00    +0.000 C 
ATOM     15  C   UNL     1       6.893   5.896  18.368  0.00  0.00    +0.000 C 
ATOM     16  C   UNL     1       6.780   7.031  17.386  0.00  0.00    +0.000 C 
ENDBRANCH   1  15
TORSDOF 1
ENDMDL
MODEL 5
REMARK VINA RESULT:      -6.9      1.049      1.316
REMARK  Name = 
REMARK  4 active torsions:
REMARK  status: ('A' for Active; 'I' for Inactive)
REMARK    1  A    between atoms: C_2  and  C_3
REMARK    2  A    between atoms: C_2  and  C_4
REMARK    3  A    between atoms: C_12  and  C_13
REMARK    4  A    between atoms: C_14  and  C_15
REMARK                            x       y       z     vdW  Elec       q    Type
REMARK                         _______ _______ _______ _____ _____    ______ ____
ROOT
ATOM      1  C   UNL     1       4.744   5.000  16.413  0.00  0.00    +0.000 C 
ATOM      2  C   UNL     1       4.852   6.225  17.330  0.00  0.00    +0.000 C 
ATOM      3  C   UNL     1       3.719   6.255  18.363  0.00  0.00    +0.000 C 
ATOM      4  C   UNL     1       3.629   4.944  19.165  0.00  0.00    +0.000 C 
ATOM      5  C   UNL     1       2.509   5.014  20.207  0.00  0.00    +0.000 C 
ATOM      6  C   UNL     1       2.429   3.738  21.016  0.00  0.00    +0.000 C 
ATOM      7  O   UNL     1       2.148   3.767  22.214  0.00  0.00    +0.000 OA
ATOM      8  C   UNL     1       2.522   2.422  20.274  0.00  0.00    +0.000 C 
ATOM      9  C   UNL     1       3.621   2.429  19.199  0.00  0.00    +0.000 C 
ATOM     10  C   UNL     1       3.620   1.080  18.469  0.00  0.00    +0.000 C 
ATOM     11  C   UNL     1       3.512   3.681  18.259  0.00  0.00    +0.000 C 
ATOM     12  C   UNL     1       2.178   3.651  17.466  0.00  0.00    +0.000 C 
ATOM     13  C   UNL     1       4.694   3.703  17.247  0.00  0.00    +0.000 C 
ENDROOT
BRANCH   1  15
ATOM     14  C   UNL     1       5.557   4.383  14.138  0.00  0.00    +0.000 C 
ATOM     15  C   UNL     1       5.819   4.935  15.336  0.00  0.00    +0.000 C 
ATOM     16  C   UNL     1       7.191   5.473  15.646  0.00  0.00    +0.000 C 
ENDBRANCH   1  15
TORSDOF 1
ENDMDL
MODEL 6
REMARK VINA RESULT:      -6.8      1.655      2.171
REMARK  Name = 
REMARK  4 active torsions:
REMARK  status: ('A' for Active; 'I' for Inactive)
REMARK    1  A    between atoms: C_2  and  C_3
REMARK    2  A    between atoms: C_2  and  C_4
REMARK    3  A    between atoms: C_12  and  C_13
REMARK    4  A    between atoms: C_14  and  C_15
REMARK                            x       y       z     vdW  Elec       q    Type
REMARK                         _______ _______ _______ _____ _____    ______ ____
ROOT
ATOM      1  C   UNL     1       5.724   5.712  17.904  0.00  0.00    +0.000 C 
ATOM      2  C   UNL     1       4.572   6.718  17.789  0.00  0.00    +0.000 C 
ATOM      3  C   UNL     1       3.255   6.026  17.417  0.00  0.00    +0.000 C 
ATOM      4  C   UNL     1       2.915   4.872  18.377  0.00  0.00    +0.000 C 
ATOM      5  C   UNL     1       1.582   4.219  17.999  0.00  0.00    +0.000 C 
ATOM      6  C   UNL     1       1.227   3.099  18.952  0.00  0.00    +0.000 C 
ATOM      7  O   UNL     1       0.059   2.896  19.281  0.00  0.00    +0.000 OA
ATOM      8  C   UNL     1       2.321   2.127  19.342  0.00  0.00    +0.000 C 
ATOM      9  C   UNL     1       3.651   2.831  19.650  0.00  0.00    +0.000 C 
ATOM     10  C   UNL     1       4.712   1.778  19.993  0.00  0.00    +0.000 C 
ATOM     11  C   UNL     1       4.064   3.828  18.510  0.00  0.00    +0.000 C 
ATOM     12  C   UNL     1       4.317   3.063  17.184  0.00  0.00    +0.000 C 
ATOM     13  C   UNL     1       5.364   4.591  18.901  0.00  0.00    +0.000 C 
ENDROOT
BRANCH   1  15
ATOM     14  C   UNL     1       7.519   7.402  17.532  0.00  0.00    +0.000 C 
ATOM     15  C   UNL     1       7.070   6.344  18.231  0.00  0.00    +0.000 C 
ATOM     16  C   UNL     1       7.905   5.745  19.332  0.00  0.00    +0.000 C 
ENDBRANCH   1  15
TORSDOF 1
ENDMDL
MODEL 7
REMARK VINA RESULT:      -6.8      1.831      2.838
REMARK  Name = 
REMARK  4 active torsions:
REMARK  status: ('A' for Active; 'I' for Inactive)
REMARK    1  A    between atoms: C_2  and  C_3
REMARK    2  A    between atoms: C_2  and  C_4
REMARK    3  A    between atoms: C_12  and  C_13
REMARK    4  A    between atoms: C_14  and  C_15
REMARK                            x       y       z     vdW  Elec       q    Type
REMARK                         _______ _______ _______ _____ _____    ______ ____
ROOT
ATOM      1  C   UNL     1       4.898   5.162  16.656  0.00  0.00    +0.000 C 
ATOM      2  C   UNL     1       5.006   6.692  16.669  0.00  0.00    +0.000 C 
ATOM      3  C   UNL     1       3.729   7.342  17.214  0.00  0.00    +0.000 C 
ATOM      4  C   UNL     1       3.337   6.783  18.593  0.00  0.00    +0.000 C 
ATOM      5  C   UNL     1       2.076   7.470  19.125  0.00  0.00    +0.000 C 
ATOM      6  C   UNL     1       1.697   6.944  20.492  0.00  0.00    +0.000 C 
ATOM      7  O   UNL     1       1.223   7.692  21.348  0.00  0.00    +0.000 OA
ATOM      8  C   UNL     1       1.743   5.447  20.713  0.00  0.00    +0.000 C 
ATOM      9  C   UNL     1       2.998   4.801  20.106  0.00  0.00    +0.000 C 
ATOM     10  C   UNL     1       2.946   3.285  20.335  0.00  0.00    +0.000 C 
ATOM     11  C   UNL     1       3.211   5.229  18.611  0.00  0.00    +0.000 C 
ATOM     12  C   UNL     1       2.038   4.727  17.727  0.00  0.00    +0.000 C 
ATOM     13  C   UNL     1       4.541   4.634  18.060  0.00  0.00    +0.000 C 
ENDROOT
BRANCH   1  15
ATOM     14  C   UNL     1       7.268   4.400  16.785  0.00  0.00    +0.000 C 
ATOM     15  C   UNL     1       6.121   4.457  16.085  0.00  0.00    +0.000 C 
ATOM     16  C   UNL     1       6.034   3.850  14.710  0.00  0.00    +0.000 C 
ENDBRANCH   1  15
TORSDOF 1
ENDMDL
MODEL 8
REMARK VINA RESULT:      -6.6      2.118      3.671
REMARK  Name = 
REMARK  4 active torsions:
REMARK  status: ('A' for Active; 'I' for Inactive)
REMARK    1  A    between atoms: C_2  and  C_3
REMARK    2  A    between atoms: C_2  and  C_4
REMARK    3  A    between atoms: C_12  and  C_13
REMARK    4  A    between atoms: C_14  and  C_15
REMARK                            x       y       z     vdW  Elec       q    Type
REMARK                         _______ _______ _______ _____ _____    ______ ____
ROOT
ATOM      1  C   UNL     1       1.676   7.509  19.134  0.00  0.00    +0.000 C 
ATOM      2  C   UNL     1       1.625   7.119  20.617  0.00  0.00    +0.000 C 
ATOM      3  C   UNL     1       1.721   5.600  20.802  0.00  0.00    +0.000 C 
ATOM      4  C   UNL     1       2.951   5.005  20.095  0.00  0.00    +0.000 C 
ATOM      5  C   UNL     1       3.037   3.493  20.322  0.00  0.00    +0.000 C 
ATOM      6  C   UNL     1       4.257   2.903  19.650  0.00  0.00    +0.000 C 
ATOM      7  O   UNL     1       4.883   1.982  20.174  0.00  0.00    +0.000 OA
ATOM      8  C   UNL     1       4.575   3.351  18.239  0.00  0.00    +0.000 C 
ATOM      9  C   UNL     1       4.414   4.868  18.053  0.00  0.00    +0.000 C 
ATOM     10  C   UNL     1       4.712   5.230  16.593  0.00  0.00    +0.000 C 
ATOM     11  C   UNL     1       3.028   5.378  18.584  0.00  0.00    +0.000 C 
ATOM     12  C   UNL     1       1.867   4.751  17.767  0.00  0.00    +0.000 C 
ATOM     13  C   UNL     1       2.940   6.928  18.466  0.00  0.00    +0.000 C 
ENDROOT
BRANCH   1  15
ATOM     14  C   UNL     1       2.063   9.561  17.771  0.00  0.00    +0.000 C 
ATOM     15  C   UNL     1       1.544   9.004  18.880  0.00  0.00    +0.000 C 
ATOM     16  C   UNL     1       0.846   9.856  19.907  0.00  0.00    +0.000 C 
ENDBRANCH   1  15
TORSDOF 1
ENDMDL
MODEL 9
REMARK VINA RESULT:      -6.5      2.989      5.176
REMARK  Name = 
REMARK  4 active torsions:
REMARK  status: ('A' for Active; 'I' for Inactive)
REMARK    1  A    between atoms: C_2  and  C_3
REMARK    2  A    between atoms: C_2  and  C_4
REMARK    3  A    between atoms: C_12  and  C_13
REMARK    4  A    between atoms: C_14  and  C_15
REMARK                            x       y       z     vdW  Elec       q    Type
REMARK                         _______ _______ _______ _____ _____    ______ ____
ROOT
ATOM      1  C   UNL     1       5.948   4.336  13.671  0.00  0.00    +0.000 C 
ATOM      2  C   UNL     1       7.454   4.493  13.924  0.00  0.00    +0.000 C 
ATOM      3  C   UNL     1       7.730   5.379  15.144  0.00  0.00    +0.000 C 
ATOM      4  C   UNL     1       6.986   4.888  16.398  0.00  0.00    +0.000 C 
ATOM      5  C   UNL     1       7.303   5.775  17.606  0.00  0.00    +0.000 C 
ATOM      6  C   UNL     1       6.595   5.285  18.850  0.00  0.00    +0.000 C 
ATOM      7  O   UNL     1       7.136   5.354  19.954  0.00  0.00    +0.000 OA
ATOM      8  C   UNL     1       5.141   4.883  18.725  0.00  0.00    +0.000 C 
ATOM      9  C   UNL     1       4.867   4.048  17.464  0.00  0.00    +0.000 C 
ATOM     10  C   UNL     1       3.371   3.720  17.391  0.00  0.00    +0.000 C 
ATOM     11  C   UNL     1       5.451   4.727  16.175  0.00  0.00    +0.000 C 
ATOM     12  C   UNL     1       4.752   6.087  15.911  0.00  0.00    +0.000 C 
ATOM     13  C   UNL     1       5.240   3.808  14.936  0.00  0.00    +0.000 C 
ENDROOT
BRANCH   1  15
ATOM     14  C   UNL     1       4.354   3.472  11.960  0.00  0.00    +0.000 C 
ATOM     15  C   UNL     1       5.608   3.499  12.446  0.00  0.00    +0.000 C 
ATOM     16  C   UNL     1       6.694   2.678  11.803  0.00  0.00    +0.000 C 
ENDBRANCH   1  15
TORSDOF 1
ENDMDL
