MODEL 1
REMARK VINA RESULT:      -8.6      0.000      0.000
REMARK  Name = 
REMARK  6 active torsions:
REMARK  status: ('A' for Active; 'I' for Inactive)
REMARK    1  A    between atoms: C_1  and  C_2
REMARK    2  A    between atoms: N_4  and  C_5
REMARK    3  A    between atoms: C_8  and  C_9
REMARK    4  A    between atoms: N_11  and  C_12
REMARK    5  A    between atoms: C_12  and  C_13
REMARK    6  A    between atoms: N_15  and  C_16
REMARK                            x       y       z     vdW  Elec       q    Type
REMARK                         _______ _______ _______ _____ _____    ______ ____
ROOT
ATOM      1  C   UNL     1       7.890   8.633  17.912  0.00  0.00    +0.000 A 
ATOM      2  C   UNL     1       8.191   7.384  18.412  0.00  0.00    +0.000 A 
ATOM      3  N   UNL     1       7.354   6.547  17.733  0.00  0.00    +0.000 N 
ATOM      4  N   UNL     1       6.574   7.226  16.877  0.00  0.00    +0.000 NA
ATOM      5  N   UNL     1       6.883   8.513  16.987  0.00  0.00    +0.000 NA
ENDROOT
BRANCH   1   9
ATOM      6  C   UNL     1       9.702  12.343  19.015  0.00  0.00    +0.000 A 
ATOM      7  C   UNL     1       8.886  12.263  17.881  0.00  0.00    +0.000 A 
ATOM      8  C   UNL     1       8.322  11.043  17.503  0.00  0.00    +0.000 A 
ATOM      9  C   UNL     1       8.521   9.887  18.272  0.00  0.00    +0.000 A 
ATOM     10  C   UNL     1       9.326   9.974  19.415  0.00  0.00    +0.000 A 
ATOM     11  C   UNL     1       9.927  11.186  19.767  0.00  0.00    +0.000 A 
ATOM     12  F   UNL     1      10.657  11.214  20.890  0.00  0.00    +0.000 F 
BRANCH   6  16
ATOM     13  C   UNL     1      10.844  16.556  21.445  0.00  0.00    +0.000 C 
ATOM     14  C   UNL     1      10.752  15.446  20.473  0.00  0.00    +0.000 A 
ATOM     15  C   UNL     1       9.889  14.371  20.459  0.00  0.00    +0.000 A 
ATOM     16  N   UNL     1      10.272  13.584  19.393  0.00  0.00    +0.000 N 
ATOM     17  C   UNL     1      11.307  14.259  18.786  0.00  0.00    +0.000 A 
ATOM     18  N   UNL     1      11.610  15.378  19.408  0.00  0.00    +0.000 NA
ENDBRANCH   6  16
ENDBRANCH   1   9
BRANCH   3  19
ATOM     19  C   UNL     1       7.192   5.121  17.880  0.00  0.00    +0.000 C 
BRANCH  19  20
ATOM     20  C   UNL     1       5.949   4.763  18.655  0.00  0.00    +0.000 C 
ATOM     21  O   UNL     1       6.003   3.981  19.604  0.00  0.00    +0.000 OA
ATOM     22  N   UNL     1       4.781   5.355  18.192  0.00  0.00    +0.000 N 
ATOM     23  H   UNL     1       4.738   5.540  17.190  0.00  0.00    +0.000 HD
BRANCH  22  24
ATOM     24  C   UNL     1       3.531   5.110  18.819  0.00  0.00    +0.000 A 
ATOM     25  C   UNL     1       3.078   5.954  19.844  0.00  0.00    +0.000 A 
ATOM     26  C   UNL     1       1.877   5.686  20.500  0.00  0.00    +0.000 A 
ATOM     27  C   UNL     1       1.129   4.565  20.150  0.00  0.00    +0.000 A 
ATOM     28  C   UNL     1       1.559   3.727  19.115  0.00  0.00    +0.000 A 
ATOM     29 CL   UNL     1       0.599   2.332  18.770  0.00  0.00    +0.000 Cl
ATOM     30  C   UNL     1       2.746   4.014  18.423  0.00  0.00    +0.000 A 
ATOM     31 CL   UNL     1       3.316   2.988  17.143  0.00  0.00    +0.000 Cl
ENDBRANCH  22  24
ENDBRANCH  19  20
ENDBRANCH   3  19
TORSDOF 5
ENDMDL
MODEL 2
REMARK VINA RESULT:      -8.4      1.436      1.677
REMARK  Name = 
REMARK  6 active torsions:
REMARK  status: ('A' for Active; 'I' for Inactive)
REMARK    1  A    between atoms: C_1  and  C_2
REMARK    2  A    between atoms: N_4  and  C_5
REMARK    3  A    between atoms: C_8  and  C_9
REMARK    4  A    between atoms: N_11  and  C_12
REMARK    5  A    between atoms: C_12  and  C_13
REMARK    6  A    between atoms: N_15  and  C_16
REMARK                            x       y       z     vdW  Elec       q    Type
REMARK                         _______ _______ _______ _____ _____    ______ ____
ROOT
ATOM      1  C   UNL     1       8.324   8.509  18.335  0.00  0.00    +0.000 A 
ATOM      2  C   UNL     1       7.535   8.034  17.309  0.00  0.00    +0.000 A 
ATOM      3  N   UNL     1       7.349   6.719  17.617  0.00  0.00    +0.000 N 
ATOM      4  N   UNL     1       7.989   6.388  18.751  0.00  0.00    +0.000 NA
ATOM      5  N   UNL     1       8.605   7.478  19.195  0.00  0.00    +0.000 NA
ENDROOT
BRANCH   1   9
ATOM      6  C   UNL     1       9.645  12.533  18.903  0.00  0.00    +0.000 A 
ATOM      7  C   UNL     1       8.803  12.209  17.833  0.00  0.00    +0.000 A 
ATOM      8  C   UNL     1       8.400  10.888  17.630  0.00  0.00    +0.000 A 
ATOM      9  C   UNL     1       8.789   9.870  18.513  0.00  0.00    +0.000 A 
ATOM     10  C   UNL     1       9.618  10.201  19.592  0.00  0.00    +0.000 A 
ATOM     11  C   UNL     1      10.058  11.516  19.768  0.00  0.00    +0.000 A 
ATOM     12  F   UNL     1      10.823  11.777  20.838  0.00  0.00    +0.000 F 
BRANCH   6  16
ATOM     13  C   UNL     1      12.076  16.892  18.691  0.00  0.00    +0.000 C 
ATOM     14  C   UNL     1      11.147  15.788  19.007  0.00  0.00    +0.000 A 
ATOM     15  C   UNL     1      11.193  14.469  18.609  0.00  0.00    +0.000 A 
ATOM     16  N   UNL     1      10.051  13.876  19.104  0.00  0.00    +0.000 N 
ATOM     17  C   UNL     1       9.407  14.855  19.825  0.00  0.00    +0.000 A 
ATOM     18  N   UNL     1      10.043  16.007  19.789  0.00  0.00    +0.000 NA
ENDBRANCH   6  16
ENDBRANCH   1   9
BRANCH   3  19
ATOM     19  C   UNL     1       6.642   5.707  16.869  0.00  0.00    +0.000 C 
BRANCH  19  20
ATOM     20  C   UNL     1       5.238   5.496  17.377  0.00  0.00    +0.000 C 
ATOM     21  O   UNL     1       4.298   5.368  16.594  0.00  0.00    +0.000 OA
ATOM     22  N   UNL     1       5.113   5.490  18.761  0.00  0.00    +0.000 N 
ATOM     23  H   UNL     1       5.773   6.073  19.274  0.00  0.00    +0.000 HD
BRANCH  22  24
ATOM     24  C   UNL     1       3.851   5.305  19.386  0.00  0.00    +0.000 A 
ATOM     25  C   UNL     1       2.983   6.393  19.557  0.00  0.00    +0.000 A 
ATOM     26  C   UNL     1       1.766   6.228  20.219  0.00  0.00    +0.000 A 
ATOM     27  C   UNL     1       1.417   4.980  20.730  0.00  0.00    +0.000 A 
ATOM     28  C   UNL     1       2.265   3.882  20.547  0.00  0.00    +0.000 A 
ATOM     29 CL   UNL     1       1.782   2.379  21.250  0.00  0.00    +0.000 Cl
ATOM     30  C   UNL     1       3.471   4.033  19.847  0.00  0.00    +0.000 A 
ATOM     31 CL   UNL     1       4.554   2.695  19.613  0.00  0.00    +0.000 Cl
ENDBRANCH  22  24
ENDBRANCH  19  20
ENDBRANCH   3  19
TORSDOF 5
ENDMDL
MODEL 3
REMARK VINA RESULT:      -8.3      1.937      2.463
REMARK  Name = 
REMARK  6 active torsions:
REMARK  status: ('A' for Active; 'I' for Inactive)
REMARK    1  A    between atoms: C_1  and  C_2
REMARK    2  A    between atoms: N_4  and  C_5
REMARK    3  A    between atoms: C_8  and  C_9
REMARK    4  A    between atoms: N_11  and  C_12
REMARK    5  A    between atoms: C_12  and  C_13
REMARK    6  A    between atoms: N_15  and  C_16
REMARK                            x       y       z     vdW  Elec       q    Type
REMARK                         _______ _______ _______ _____ _____    ______ ____
ROOT
ATOM      1  C   UNL     1       8.079   7.848  18.078  0.00  0.00    +0.000 A 
ATOM      2  C   UNL     1       7.563   7.283  16.931  0.00  0.00    +0.000 A 
ATOM      3  N   UNL     1       7.380   5.973  17.263  0.00  0.00    +0.000 N 
ATOM      4  N   UNL     1       7.766   5.730  18.526  0.00  0.00    +0.000 NA
ATOM      5  N   UNL     1       8.212   6.873  19.035  0.00  0.00    +0.000 NA
ENDROOT
BRANCH   1   9
ATOM      6  C   UNL     1       9.141  11.951  18.625  0.00  0.00    +0.000 A 
ATOM      7  C   UNL     1       9.700  10.960  19.441  0.00  0.00    +0.000 A 
ATOM      8  C   UNL     1       9.326   9.624  19.282  0.00  0.00    +0.000 A 
ATOM      9  C   UNL     1       8.423   9.241  18.280  0.00  0.00    +0.000 A 
ATOM     10  C   UNL     1       7.878  10.234  17.455  0.00  0.00    +0.000 A 
ATOM     11  C   UNL     1       8.219  11.576  17.645  0.00  0.00    +0.000 A 
ATOM     12  F   UNL     1       7.690  12.475  16.803  0.00  0.00    +0.000 F 
BRANCH   6  16
ATOM     13  C   UNL     1       9.403  16.716  20.104  0.00  0.00    +0.000 C 
ATOM     14  C   UNL     1       9.614  15.410  19.446  0.00  0.00    +0.000 A 
ATOM     15  C   UNL     1       8.852  14.264  19.519  0.00  0.00    +0.000 A 
ATOM     16  N   UNL     1       9.524  13.305  18.791  0.00  0.00    +0.000 N 
ATOM     17  C   UNL     1      10.627  13.942  18.268  0.00  0.00    +0.000 A 
ATOM     18  N   UNL     1      10.702  15.203  18.639  0.00  0.00    +0.000 NA
ENDBRANCH   6  16
ENDBRANCH   1   9
BRANCH   3  19
ATOM     19  C   UNL     1       6.908   4.889  16.434  0.00  0.00    +0.000 C 
BRANCH  19  20
ATOM     20  C   UNL     1       5.497   4.483  16.771  0.00  0.00    +0.000 C 
ATOM     21  O   UNL     1       4.554   4.831  16.060  0.00  0.00    +0.000 OA
ATOM     22  N   UNL     1       5.367   3.732  17.932  0.00  0.00    +0.000 N 
ATOM     23  H   UNL     1       6.046   3.921  18.669  0.00  0.00    +0.000 HD
BRANCH  22  24
ATOM     24  C   UNL     1       4.097   3.279  18.380  0.00  0.00    +0.000 A 
ATOM     25  C   UNL     1       3.605   2.034  17.963  0.00  0.00    +0.000 A 
ATOM     26  C   UNL     1       2.336   1.608  18.356  0.00  0.00    +0.000 A 
ATOM     27  C   UNL     1       1.543   2.431  19.153  0.00  0.00    +0.000 A 
ATOM     28  C   UNL     1       2.032   3.666  19.594  0.00  0.00    +0.000 A 
ATOM     29 CL   UNL     1       0.971   4.648  20.542  0.00  0.00    +0.000 Cl
ATOM     30  C   UNL     1       3.323   4.082  19.235  0.00  0.00    +0.000 A 
ATOM     31 CL   UNL     1       3.955   5.614  19.753  0.00  0.00    +0.000 Cl
ENDBRANCH  22  24
ENDBRANCH  19  20
ENDBRANCH   3  19
TORSDOF 5
ENDMDL
MODEL 4
REMARK VINA RESULT:      -8.3      1.045      1.357
REMARK  Name = 
REMARK  6 active torsions:
REMARK  status: ('A' for Active; 'I' for Inactive)
REMARK    1  A    between atoms: C_1  and  C_2
REMARK    2  A    between atoms: N_4  and  C_5
REMARK    3  A    between atoms: C_8  and  C_9
REMARK    4  A    between atoms: N_11  and  C_12
REMARK    5  A    between atoms: C_12  and  C_13
REMARK    6  A    between atoms: N_15  and  C_16
REMARK                            x       y       z     vdW  Elec       q    Type
REMARK                         _______ _______ _______ _____ _____    ______ ____
ROOT
ATOM      1  C   UNL     1       8.223   8.745  18.238  0.00  0.00    +0.000 A 
ATOM      2  C   UNL     1       7.245   8.335  17.356  0.00  0.00    +0.000 A 
ATOM      3  N   UNL     1       7.102   7.004  17.618  0.00  0.00    +0.000 N 
ATOM      4  N   UNL     1       7.941   6.605  18.587  0.00  0.00    +0.000 NA
ATOM      5  N   UNL     1       8.647   7.663  18.968  0.00  0.00    +0.000 NA
ENDROOT
BRANCH   1   9
ATOM      6  C   UNL     1       9.685  12.725  18.772  0.00  0.00    +0.000 A 
ATOM      7  C   UNL     1       8.725  12.449  17.792  0.00  0.00    +0.000 A 
ATOM      8  C   UNL     1       8.273  11.142  17.597  0.00  0.00    +0.000 A 
ATOM      9  C   UNL     1       8.734  10.091  18.403  0.00  0.00    +0.000 A 
ATOM     10  C   UNL     1       9.683  10.374  19.393  0.00  0.00    +0.000 A 
ATOM     11  C   UNL     1      10.168  11.675  19.557  0.00  0.00    +0.000 A 
ATOM     12  F   UNL     1      11.050  11.889  20.543  0.00  0.00    +0.000 F 
BRANCH   6  16
ATOM     13  C   UNL     1      11.967  17.138  18.247  0.00  0.00    +0.000 C 
ATOM     14  C   UNL     1      11.168  15.990  18.722  0.00  0.00    +0.000 A 
ATOM     15  C   UNL     1      11.087  14.713  18.210  0.00  0.00    +0.000 A 
ATOM     16  N   UNL     1      10.140  14.053  18.965  0.00  0.00    +0.000 N 
ATOM     17  C   UNL     1       9.744  14.950  19.931  0.00  0.00    +0.000 A 
ATOM     18  N   UNL     1      10.348  16.114  19.813  0.00  0.00    +0.000 NA
ENDBRANCH   6  16
ENDBRANCH   1   9
BRANCH   3  19
ATOM     19  C   UNL     1       6.250   6.042  16.962  0.00  0.00    +0.000 C 
BRANCH  19  20
ATOM     20  C   UNL     1       5.292   5.380  17.919  0.00  0.00    +0.000 C 
ATOM     21  O   UNL     1       5.676   4.492  18.680  0.00  0.00    +0.000 OA
ATOM     22  N   UNL     1       3.981   5.832  17.839  0.00  0.00    +0.000 N 
ATOM     23  H   UNL     1       3.669   6.146  16.920  0.00  0.00    +0.000 HD
BRANCH  22  24
ATOM     24  C   UNL     1       2.964   5.299  18.676  0.00  0.00    +0.000 A 
ATOM     25  C   UNL     1       2.642   5.933  19.884  0.00  0.00    +0.000 A 
ATOM     26  C   UNL     1       1.682   5.384  20.736  0.00  0.00    +0.000 A 
ATOM     27  C   UNL     1       1.053   4.189  20.394  0.00  0.00    +0.000 A 
ATOM     28  C   UNL     1       1.350   3.559  19.181  0.00  0.00    +0.000 A 
ATOM     29 CL   UNL     1       0.560   2.057  18.850  0.00  0.00    +0.000 Cl
ATOM     30  C   UNL     1       2.284   4.127  18.302  0.00  0.00    +0.000 A 
ATOM     31 CL   UNL     1       2.688   3.364  16.794  0.00  0.00    +0.000 Cl
ENDBRANCH  22  24
ENDBRANCH  19  20
ENDBRANCH   3  19
TORSDOF 5
ENDMDL
MODEL 5
REMARK VINA RESULT:      -8.3      1.114      1.445
REMARK  Name = 
REMARK  6 active torsions:
REMARK  status: ('A' for Active; 'I' for Inactive)
REMARK    1  A    between atoms: C_1  and  C_2
REMARK    2  A    between atoms: N_4  and  C_5
REMARK    3  A    between atoms: C_8  and  C_9
REMARK    4  A    between atoms: N_11  and  C_12
REMARK    5  A    between atoms: C_12  and  C_13
REMARK    6  A    between atoms: N_15  and  C_16
REMARK                            x       y       z     vdW  Elec       q    Type
REMARK                         _______ _______ _______ _____ _____    ______ ____
ROOT
ATOM      1  C   UNL     1       7.855   8.262  17.849  0.00  0.00    +0.000 A 
ATOM      2  C   UNL     1       8.034   7.056  18.495  0.00  0.00    +0.000 A 
ATOM      3  N   UNL     1       7.348   6.165  17.723  0.00  0.00    +0.000 N 
ATOM      4  N   UNL     1       6.769   6.771  16.674  0.00  0.00    +0.000 NA
ATOM      5  N   UNL     1       7.061   8.064  16.748  0.00  0.00    +0.000 NA
ENDROOT
BRANCH   1   9
ATOM      6  C   UNL     1       9.540  12.034  18.943  0.00  0.00    +0.000 A 
ATOM      7  C   UNL     1       9.877  10.875  19.652  0.00  0.00    +0.000 A 
ATOM      8  C   UNL     1       9.300   9.649  19.314  0.00  0.00    +0.000 A 
ATOM      9  C   UNL     1       8.411   9.543  18.235  0.00  0.00    +0.000 A 
ATOM     10  C   UNL     1       8.087  10.702  17.517  0.00  0.00    +0.000 A 
ATOM     11  C   UNL     1       8.631  11.936  17.886  0.00  0.00    +0.000 A 
ATOM     12  F   UNL     1       8.310  13.003  17.140  0.00  0.00    +0.000 F 
BRANCH   6  16
ATOM     13  C   UNL     1      10.748  16.876  19.163  0.00  0.00    +0.000 C 
ATOM     14  C   UNL     1      10.659  15.415  19.363  0.00  0.00    +0.000 A 
ATOM     15  C   UNL     1       9.938  14.480  18.650  0.00  0.00    +0.000 A 
ATOM     16  N   UNL     1      10.129  13.274  19.291  0.00  0.00    +0.000 N 
ATOM     17  C   UNL     1      11.004  13.536  20.321  0.00  0.00    +0.000 A 
ATOM     18  N   UNL     1      11.342  14.806  20.383  0.00  0.00    +0.000 NA
ENDBRANCH   6  16
ENDBRANCH   1   9
BRANCH   3  19
ATOM     19  C   UNL     1       7.145   4.752  17.941  0.00  0.00    +0.000 C 
BRANCH  19  20
ATOM     20  C   UNL     1       5.887   4.469  18.723  0.00  0.00    +0.000 C 
ATOM     21  O   UNL     1       5.908   3.717  19.697  0.00  0.00    +0.000 OA
ATOM     22  N   UNL     1       4.745   5.093  18.238  0.00  0.00    +0.000 N 
ATOM     23  H   UNL     1       4.711   5.248  17.231  0.00  0.00    +0.000 HD
BRANCH  22  24
ATOM     24  C   UNL     1       3.484   4.918  18.869  0.00  0.00    +0.000 A 
ATOM     25  C   UNL     1       3.074   5.798  19.881  0.00  0.00    +0.000 A 
ATOM     26  C   UNL     1       1.861   5.599  20.541  0.00  0.00    +0.000 A 
ATOM     27  C   UNL     1       1.060   4.510  20.207  0.00  0.00    +0.000 A 
ATOM     28  C   UNL     1       1.448   3.637  19.184  0.00  0.00    +0.000 A 
ATOM     29 CL   UNL     1       0.421   2.285  18.860  0.00  0.00    +0.000 Cl
ATOM     30  C   UNL     1       2.647   3.856  18.489  0.00  0.00    +0.000 A 
ATOM     31 CL   UNL     1       3.166   2.785  17.224  0.00  0.00    +0.000 Cl
ENDBRANCH  22  24
ENDBRANCH  19  20
ENDBRANCH   3  19
TORSDOF 5
ENDMDL
MODEL 6
REMARK VINA RESULT:      -8.3      1.485      1.726
REMARK  Name = 
REMARK  6 active torsions:
REMARK  status: ('A' for Active; 'I' for Inactive)
REMARK    1  A    between atoms: C_1  and  C_2
REMARK    2  A    between atoms: N_4  and  C_5
REMARK    3  A    between atoms: C_8  and  C_9
REMARK    4  A    between atoms: N_11  and  C_12
REMARK    5  A    between atoms: C_12  and  C_13
REMARK    6  A    between atoms: N_15  and  C_16
REMARK                            x       y       z     vdW  Elec       q    Type
REMARK                         _______ _______ _______ _____ _____    ______ ____
ROOT
ATOM      1  C   UNL     1       8.302   8.789  18.278  0.00  0.00    +0.000 A 
ATOM      2  C   UNL     1       8.542   7.589  18.915  0.00  0.00    +0.000 A 
ATOM      3  N   UNL     1       7.843   6.679  18.179  0.00  0.00    +0.000 N 
ATOM      4  N   UNL     1       7.198   7.269  17.159  0.00  0.00    +0.000 NA
ATOM      5  N   UNL     1       7.460   8.569  17.217  0.00  0.00    +0.000 NA
ENDROOT
BRANCH   1   9
ATOM      6  C   UNL     1       9.950  12.598  19.296  0.00  0.00    +0.000 A 
ATOM      7  C   UNL     1      10.149  11.494  20.133  0.00  0.00    +0.000 A 
ATOM      8  C   UNL     1       9.582  10.258  19.816  0.00  0.00    +0.000 A 
ATOM      9  C   UNL     1       8.843  10.085  18.636  0.00  0.00    +0.000 A 
ATOM     10  C   UNL     1       8.659  11.188  17.793  0.00  0.00    +0.000 A 
ATOM     11  C   UNL     1       9.190  12.435  18.135  0.00  0.00    +0.000 A 
ATOM     12  F   UNL     1       9.009  13.444  17.272  0.00  0.00    +0.000 F 
BRANCH   6  16
ATOM     13  C   UNL     1      10.674  17.280  20.879  0.00  0.00    +0.000 C 
ATOM     14  C   UNL     1      10.824  15.923  20.315  0.00  0.00    +0.000 A 
ATOM     15  C   UNL     1       9.860  14.968  20.074  0.00  0.00    +0.000 A 
ATOM     16  N   UNL     1      10.528  13.849  19.624  0.00  0.00    +0.000 N 
ATOM     17  C   UNL     1      11.855  14.210  19.560  0.00  0.00    +0.000 A 
ATOM     18  N   UNL     1      12.059  15.447  19.962  0.00  0.00    +0.000 NA
ENDBRANCH   6  16
ENDBRANCH   1   9
BRANCH   3  19
ATOM     19  C   UNL     1       7.686   5.263  18.408  0.00  0.00    +0.000 C 
BRANCH  19  20
ATOM     20  C   UNL     1       6.321   4.766  18.005  0.00  0.00    +0.000 C 
ATOM     21  O   UNL     1       6.167   4.126  16.964  0.00  0.00    +0.000 OA
ATOM     22  N   UNL     1       5.293   5.111  18.872  0.00  0.00    +0.000 N 
ATOM     23  H   UNL     1       5.402   5.996  19.368  0.00  0.00    +0.000 HD
BRANCH  22  24
ATOM     24  C   UNL     1       3.952   4.716  18.622  0.00  0.00    +0.000 A 
ATOM     25  C   UNL     1       3.087   5.565  17.918  0.00  0.00    +0.000 A 
ATOM     26  C   UNL     1       1.754   5.207  17.716  0.00  0.00    +0.000 A 
ATOM     27  C   UNL     1       1.273   4.006  18.233  0.00  0.00    +0.000 A 
ATOM     28  C   UNL     1       2.131   3.140  18.919  0.00  0.00    +0.000 A 
ATOM     29 CL   UNL     1       1.448   1.691  19.567  0.00  0.00    +0.000 Cl
ATOM     30  C   UNL     1       3.483   3.477  19.089  0.00  0.00    +0.000 A 
ATOM     31 CL   UNL     1       4.573   2.432  19.947  0.00  0.00    +0.000 Cl
ENDBRANCH  22  24
ENDBRANCH  19  20
ENDBRANCH   3  19
TORSDOF 5
ENDMDL
MODEL 7
REMARK VINA RESULT:      -8.3      1.243      1.250
REMARK  Name = 
REMARK  6 active torsions:
REMARK  status: ('A' for Active; 'I' for Inactive)
REMARK    1  A    between atoms: C_1  and  C_2
REMARK    2  A    between atoms: N_4  and  C_5
REMARK    3  A    between atoms: C_8  and  C_9
REMARK    4  A    between atoms: N_11  and  C_12
REMARK    5  A    between atoms: C_12  and  C_13
REMARK    6  A    between atoms: N_15  and  C_16
REMARK                            x       y       z     vdW  Elec       q    Type
REMARK                         _______ _______ _______ _____ _____    ______ ____
ROOT
ATOM      1  C   UNL     1       8.355   9.016  18.228  0.00  0.00    +0.000 A 
ATOM      2  C   UNL     1       8.604   7.852  18.924  0.00  0.00    +0.000 A 
ATOM      3  N   UNL     1       7.893   6.905  18.248  0.00  0.00    +0.000 N 
ATOM      4  N   UNL     1       7.232   7.440  17.209  0.00  0.00    +0.000 NA
ATOM      5  N   UNL     1       7.496   8.742  17.194  0.00  0.00    +0.000 NA
ENDROOT
BRANCH   1   9
ATOM      6  C   UNL     1       9.920  12.897  19.098  0.00  0.00    +0.000 A 
ATOM      7  C   UNL     1       9.037  12.713  18.027  0.00  0.00    +0.000 A 
ATOM      8  C   UNL     1       8.553  11.438  17.724  0.00  0.00    +0.000 A 
ATOM      9  C   UNL     1       8.902  10.329  18.508  0.00  0.00    +0.000 A 
ATOM     10  C   UNL     1       9.773  10.519  19.588  0.00  0.00    +0.000 A 
ATOM     11  C   UNL     1      10.293  11.788  19.863  0.00  0.00    +0.000 A 
ATOM     12  F   UNL     1      11.094  11.913  20.930  0.00  0.00    +0.000 F 
BRANCH   6  16
ATOM     13  C   UNL     1      10.834  17.284  21.304  0.00  0.00    +0.000 C 
ATOM     14  C   UNL     1      10.788  16.130  20.383  0.00  0.00    +0.000 A 
ATOM     15  C   UNL     1      10.011  14.993  20.450  0.00  0.00    +0.000 A 
ATOM     16  N   UNL     1      10.408  14.192  19.400  0.00  0.00    +0.000 N 
ATOM     17  C   UNL     1      11.362  14.915  18.722  0.00  0.00    +0.000 A 
ATOM     18  N   UNL     1      11.604  16.080  19.284  0.00  0.00    +0.000 NA
ENDBRANCH   6  16
ENDBRANCH   1   9
BRANCH   3  19
ATOM     19  C   UNL     1       7.739   5.503  18.555  0.00  0.00    +0.000 C 
BRANCH  19  20
ATOM     20  C   UNL     1       6.399   4.966  18.121  0.00  0.00    +0.000 C 
ATOM     21  O   UNL     1       6.290   4.309  17.086  0.00  0.00    +0.000 OA
ATOM     22  N   UNL     1       5.339   5.297  18.956  0.00  0.00    +0.000 N 
ATOM     23  H   UNL     1       5.412   6.191  19.442  0.00  0.00    +0.000 HD
BRANCH  22  24
ATOM     24  C   UNL     1       4.016   4.865  18.674  0.00  0.00    +0.000 A 
ATOM     25  C   UNL     1       3.131   5.707  17.986  0.00  0.00    +0.000 A 
ATOM     26  C   UNL     1       1.813   5.310  17.754  0.00  0.00    +0.000 A 
ATOM     27  C   UNL     1       1.368   4.077  18.225  0.00  0.00    +0.000 A 
ATOM     28  C   UNL     1       2.247   3.219  18.894  0.00  0.00    +0.000 A 
ATOM     29 CL   UNL     1       1.606   1.727  19.486  0.00  0.00    +0.000 Cl
ATOM     30  C   UNL     1       3.584   3.596  19.094  0.00  0.00    +0.000 A 
ATOM     31 CL   UNL     1       4.699   2.561  19.933  0.00  0.00    +0.000 Cl
ENDBRANCH  22  24
ENDBRANCH  19  20
ENDBRANCH   3  19
TORSDOF 5
ENDMDL
MODEL 8
REMARK VINA RESULT:      -8.2      1.676      1.956
REMARK  Name = 
REMARK  6 active torsions:
REMARK  status: ('A' for Active; 'I' for Inactive)
REMARK    1  A    between atoms: C_1  and  C_2
REMARK    2  A    between atoms: N_4  and  C_5
REMARK    3  A    between atoms: C_8  and  C_9
REMARK    4  A    between atoms: N_11  and  C_12
REMARK    5  A    between atoms: C_12  and  C_13
REMARK    6  A    between atoms: N_15  and  C_16
REMARK                            x       y       z     vdW  Elec       q    Type
REMARK                         _______ _______ _______ _____ _____    ______ ____
ROOT
ATOM      1  C   UNL     1       8.156   8.273  18.014  0.00  0.00    +0.000 A 
ATOM      2  C   UNL     1       8.022   7.162  18.819  0.00  0.00    +0.000 A 
ATOM      3  N   UNL     1       7.545   6.201  17.978  0.00  0.00    +0.000 N 
ATOM      4  N   UNL     1       7.378   6.680  16.734  0.00  0.00    +0.000 NA
ATOM      5  N   UNL     1       7.736   7.958  16.746  0.00  0.00    +0.000 NA
ENDROOT
BRANCH   1   9
ATOM      6  C   UNL     1       9.707  12.095  19.133  0.00  0.00    +0.000 A 
ATOM      7  C   UNL     1       9.929  10.975  19.944  0.00  0.00    +0.000 A 
ATOM      8  C   UNL     1       9.393   9.734  19.594  0.00  0.00    +0.000 A 
ATOM      9  C   UNL     1       8.664   9.572  18.407  0.00  0.00    +0.000 A 
ATOM     10  C   UNL     1       8.457  10.691  17.590  0.00  0.00    +0.000 A 
ATOM     11  C   UNL     1       8.955  11.942  17.965  0.00  0.00    +0.000 A 
ATOM     12  F   UNL     1       8.754  12.968  17.126  0.00  0.00    +0.000 F 
BRANCH   6  16
ATOM     13  C   UNL     1      10.273  16.832  20.614  0.00  0.00    +0.000 C 
ATOM     14  C   UNL     1      10.481  15.449  20.137  0.00  0.00    +0.000 A 
ATOM     15  C   UNL     1       9.546  14.498  19.789  0.00  0.00    +0.000 A 
ATOM     16  N   UNL     1      10.253  13.351  19.495  0.00  0.00    +0.000 N 
ATOM     17  C   UNL     1      11.581  13.690  19.623  0.00  0.00    +0.000 A 
ATOM     18  N   UNL     1      11.746  14.941  20.000  0.00  0.00    +0.000 NA
ENDBRANCH   6  16
ENDBRANCH   1   9
BRANCH   3  19
ATOM     19  C   UNL     1       7.168   4.841  18.282  0.00  0.00    +0.000 C 
BRANCH  19  20
ATOM     20  C   UNL     1       5.730   4.730  18.722  0.00  0.00    +0.000 C 
ATOM     21  O   UNL     1       5.250   5.542  19.513  0.00  0.00    +0.000 OA
ATOM     22  N   UNL     1       5.038   3.649  18.191  0.00  0.00    +0.000 N 
ATOM     23  H   UNL     1       5.591   2.815  17.994  0.00  0.00    +0.000 HD
BRANCH  22  24
ATOM     24  C   UNL     1       3.676   3.413  18.517  0.00  0.00    +0.000 A 
ATOM     25  C   UNL     1       2.662   3.786  17.623  0.00  0.00    +0.000 A 
ATOM     26  C   UNL     1       1.321   3.606  17.961  0.00  0.00    +0.000 A 
ATOM     27  C   UNL     1       0.984   3.068  19.201  0.00  0.00    +0.000 A 
ATOM     28  C   UNL     1       1.987   2.672  20.093  0.00  0.00    +0.000 A 
ATOM     29 CL   UNL     1       1.487   2.056  21.628  0.00  0.00    +0.000 Cl
ATOM     30  C   UNL     1       3.337   2.813  19.742  0.00  0.00    +0.000 A 
ATOM     31 CL   UNL     1       4.608   2.345  20.830  0.00  0.00    +0.000 Cl
ENDBRANCH  22  24
ENDBRANCH  19  20
ENDBRANCH   3  19
TORSDOF 5
ENDMDL
MODEL 9
REMARK VINA RESULT:      -8.2      1.483      1.812
REMARK  Name = 
REMARK  6 active torsions:
REMARK  status: ('A' for Active; 'I' for Inactive)
REMARK    1  A    between atoms: C_1  and  C_2
REMARK    2  A    between atoms: N_4  and  C_5
REMARK    3  A    between atoms: C_8  and  C_9
REMARK    4  A    between atoms: N_11  and  C_12
REMARK    5  A    between atoms: C_12  and  C_13
REMARK    6  A    between atoms: N_15  and  C_16
REMARK                            x       y       z     vdW  Elec       q    Type
REMARK                         _______ _______ _______ _____ _____    ______ ____
ROOT
ATOM      1  C   UNL     1       8.221   8.356  18.293  0.00  0.00    +0.000 A 
ATOM      2  C   UNL     1       7.421   7.817  17.307  0.00  0.00    +0.000 A 
ATOM      3  N   UNL     1       7.294   6.508  17.665  0.00  0.00    +0.000 N 
ATOM      4  N   UNL     1       7.978   6.240  18.789  0.00  0.00    +0.000 NA
ATOM      5  N   UNL     1       8.565   7.366  19.178  0.00  0.00    +0.000 NA
ENDROOT
BRANCH   1   9
ATOM      6  C   UNL     1       9.498  12.423  18.594  0.00  0.00    +0.000 A 
ATOM      7  C   UNL     1      10.054  11.443  19.424  0.00  0.00    +0.000 A 
ATOM      8  C   UNL     1       9.612  10.121  19.347  0.00  0.00    +0.000 A 
ATOM      9  C   UNL     1       8.639   9.738  18.411  0.00  0.00    +0.000 A 
ATOM     10  C   UNL     1       8.096  10.719  17.572  0.00  0.00    +0.000 A 
ATOM     11  C   UNL     1       8.507  12.051  17.681  0.00  0.00    +0.000 A 
ATOM     12  F   UNL     1       7.975  12.937  16.828  0.00  0.00    +0.000 F 
BRANCH   6  16
ATOM     13  C   UNL     1      10.146  17.193  19.927  0.00  0.00    +0.000 C 
ATOM     14  C   UNL     1      10.212  15.871  19.271  0.00  0.00    +0.000 A 
ATOM     15  C   UNL     1       9.426  14.757  19.475  0.00  0.00    +0.000 A 
ATOM     16  N   UNL     1       9.951  13.763  18.677  0.00  0.00    +0.000 N 
ATOM     17  C   UNL     1      10.989  14.348  17.989  0.00  0.00    +0.000 A 
ATOM     18  N   UNL     1      11.164  15.610  18.320  0.00  0.00    +0.000 NA
ENDBRANCH   6  16
ENDBRANCH   1   9
BRANCH   3  19
ATOM     19  C   UNL     1       6.604   5.446  16.972  0.00  0.00    +0.000 C 
BRANCH  19  20
ATOM     20  C   UNL     1       5.152   5.354  17.368  0.00  0.00    +0.000 C 
ATOM     21  O   UNL     1       4.270   5.800  16.634  0.00  0.00    +0.000 OA
ATOM     22  N   UNL     1       4.920   4.766  18.605  0.00  0.00    +0.000 N 
ATOM     23  H   UNL     1       5.646   4.897  19.308  0.00  0.00    +0.000 HD
BRANCH  22  24
ATOM     24  C   UNL     1       3.602   4.613  19.113  0.00  0.00    +0.000 A 
ATOM     25  C   UNL     1       3.097   5.528  20.047  0.00  0.00    +0.000 A 
ATOM     26  C   UNL     1       1.824   5.352  20.591  0.00  0.00    +0.000 A 
ATOM     27  C   UNL     1       1.056   4.251  20.218  0.00  0.00    +0.000 A 
ATOM     28  C   UNL     1       1.541   3.343  19.271  0.00  0.00    +0.000 A 
ATOM     29 CL   UNL     1       0.547   1.979  18.896  0.00  0.00    +0.000 Cl
ATOM     30  C   UNL     1       2.803   3.537  18.691  0.00  0.00    +0.000 A 
ATOM     31 CL   UNL     1       3.442   2.422  17.522  0.00  0.00    +0.000 Cl
ENDBRANCH  22  24
ENDBRANCH  19  20
ENDBRANCH   3  19
TORSDOF 5
ENDMDL
