MODEL 1
REMARK VINA RESULT:      -8.4      0.000      0.000
REMARK  Name = 
REMARK  6 active torsions:
REMARK  status: ('A' for Active; 'I' for Inactive)
REMARK    1  A    between atoms: C_1  and  C_2
REMARK    2  A    between atoms: C_2  and  C_3
REMARK    3  A    between atoms: C_2  and  N_21
REMARK    4  A    between atoms: C_3  and  N_4
REMARK    5  A    between atoms: C_7  and  N_8
REMARK    6  A    between atoms: C_22  and  C_24
REMARK                            x       y       z     vdW  Elec       q    Type
REMARK                         _______ _______ _______ _____ _____    ______ ____
ROOT
ATOM      1  N   UNL     1       0.168  11.005  22.629  0.00  0.00    +0.000 NA
ATOM      2  C   UNL     1       0.361  11.718  21.357  0.00  0.00    +0.000 C 
ATOM      3  C   UNL     1      -0.209  13.138  21.309  0.00  0.00    +0.000 C 
ATOM      4  C   UNL     1      -1.681  13.194  21.716  0.00  0.00    +0.000 C 
ATOM      5  C   UNL     1      -1.747  12.573  23.126  0.00  0.00    +0.000 C 
ATOM      6  C   UNL     1      -1.208  11.143  23.151  0.00  0.00    +0.000 C 
ENDROOT
BRANCH   4   7
ATOM      7  N   UNL     1      -2.688  12.665  20.796  0.00  0.00    +0.000 N 
ATOM      8  C   UNL     1      -4.077  12.750  21.099  0.00  0.00    +0.000 A 
ATOM      9  O   UNL     1      -4.610  13.182  22.109  0.00  0.00    +0.000 OA
ATOM     10  N   UNL     1      -4.772  12.261  19.989  0.00  0.00    +0.000 N 
ATOM     11  C   UNL     1      -3.869  11.939  18.990  0.00  0.00    +0.000 A 
ATOM     12  C   UNL     1      -4.151  11.459  17.729  0.00  0.00    +0.000 A 
ATOM     13  C   UNL     1      -3.062  11.230  16.889  0.00  0.00    +0.000 A 
ATOM     14 BR   UNL     1      -3.340  10.549  15.148  0.00  0.00    +0.000 Br
ATOM     15  C   UNL     1      -1.756  11.508  17.315  0.00  0.00    +0.000 A 
ATOM     16  C   UNL     1      -1.511  12.023  18.599  0.00  0.00    +0.000 A 
ATOM     17  C   UNL     1      -2.579  12.212  19.456  0.00  0.00    +0.000 A 
ATOM     18  H   UNL     1      -5.779  12.219  19.940  0.00  0.00    +0.000 HD
ENDBRANCH   4   7
BRANCH   1  19
ATOM     19  C   UNL     1       0.451   9.552  22.425  0.00  0.00    +0.000 C 
BRANCH  19  21
ATOM     20  C   UNL     1      -0.285   9.342  20.026  0.00  0.00    +0.000 C 
ATOM     21  C   UNL     1       0.897   9.167  20.986  0.00  0.00    +0.000 C 
BRANCH  21  22
ATOM     22  N   UNL     1       1.406   7.800  20.956  0.00  0.00    +0.000 N 
ATOM     23  C   UNL     1       2.073   7.302  19.861  0.00  0.00    +0.000 C 
ATOM     24  O   UNL     1       2.268   7.941  18.830  0.00  0.00    +0.000 OA
ATOM     25  H   UNL     1       1.573   7.381  21.864  0.00  0.00    +0.000 HD
BRANCH  23  26
ATOM     26  C   UNL     1       2.603   5.916  19.973  0.00  0.00    +0.000 A 
ATOM     27  C   UNL     1       3.772   5.512  19.310  0.00  0.00    +0.000 A 
ATOM     28  C   UNL     1       4.232   4.198  19.438  0.00  0.00    +0.000 A 
ATOM     29  C   UNL     1       3.529   3.299  20.237  0.00  0.00    +0.000 A 
ATOM     30  F   UNL     1       3.970   2.039  20.347  0.00  0.00    +0.000 F 
ATOM     31  C   UNL     1       2.383   3.707  20.913  0.00  0.00    +0.000 A 
ATOM     32  F   UNL     1       1.719   2.837  21.689  0.00  0.00    +0.000 F 
ATOM     33  C   UNL     1       1.919   5.009  20.797  0.00  0.00    +0.000 A 
ENDBRANCH  23  26
ENDBRANCH  21  22
ENDBRANCH  19  21
ENDBRANCH   1  19
TORSDOF 5
ENDMDL
MODEL 2
REMARK VINA RESULT:      -8.4      0.724      1.336
REMARK  Name = 
REMARK  6 active torsions:
REMARK  status: ('A' for Active; 'I' for Inactive)
REMARK    1  A    between atoms: C_1  and  C_2
REMARK    2  A    between atoms: C_2  and  C_3
REMARK    3  A    between atoms: C_2  and  N_21
REMARK    4  A    between atoms: C_3  and  N_4
REMARK    5  A    between atoms: C_7  and  N_8
REMARK    6  A    between atoms: C_22  and  C_24
REMARK                            x       y       z     vdW  Elec       q    Type
REMARK                         _______ _______ _______ _____ _____    ______ ____
ROOT
ATOM      1  N   UNL     1       0.411  10.735  22.547  0.00  0.00    +0.000 NA
ATOM      2  C   UNL     1       0.614  11.449  21.277  0.00  0.00    +0.000 C 
ATOM      3  C   UNL     1       0.120  12.899  21.256  0.00  0.00    +0.000 C 
ATOM      4  C   UNL     1      -1.337  13.029  21.696  0.00  0.00    +0.000 C 
ATOM      5  C   UNL     1      -1.405  12.397  23.101  0.00  0.00    +0.000 C 
ATOM      6  C   UNL     1      -0.944  10.941  23.101  0.00  0.00    +0.000 C 
ENDROOT
BRANCH   4   7
ATOM      7  N   UNL     1      -2.391  12.564  20.794  0.00  0.00    +0.000 N 
ATOM      8  C   UNL     1      -3.767  12.722  21.128  0.00  0.00    +0.000 A 
ATOM      9  O   UNL     1      -4.254  13.174  22.153  0.00  0.00    +0.000 OA
ATOM     10  N   UNL     1      -4.511  12.282  20.030  0.00  0.00    +0.000 N 
ATOM     11  C   UNL     1      -3.649  11.920  19.009  0.00  0.00    +0.000 A 
ATOM     12  C   UNL     1      -3.983  11.468  17.750  0.00  0.00    +0.000 A 
ATOM     13  C   UNL     1      -2.926  11.187  16.885  0.00  0.00    +0.000 A 
ATOM     14 BR   UNL     1      -3.279  10.539  15.145  0.00  0.00    +0.000 Br
ATOM     15  C   UNL     1      -1.598  11.389  17.284  0.00  0.00    +0.000 A 
ATOM     16  C   UNL     1      -1.299  11.879  18.567  0.00  0.00    +0.000 A 
ATOM     17  C   UNL     1      -2.336  12.118  19.448  0.00  0.00    +0.000 A 
ATOM     18  H   UNL     1      -5.520  12.296  20.003  0.00  0.00    +0.000 HD
ENDBRANCH   4   7
BRANCH   1  19
ATOM     19  C   UNL     1       0.612   9.271  22.323  0.00  0.00    +0.000 C 
BRANCH  19  21
ATOM     20  C   UNL     1      -0.433   8.934  20.057  0.00  0.00    +0.000 C 
ATOM     21  C   UNL     1       0.878   8.864  20.846  0.00  0.00    +0.000 C 
BRANCH  21  22
ATOM     22  N   UNL     1       1.466   7.530  20.781  0.00  0.00    +0.000 N 
ATOM     23  C   UNL     1       2.234   7.132  19.711  0.00  0.00    +0.000 C 
ATOM     24  O   UNL     1       2.461   7.837  18.731  0.00  0.00    +0.000 OA
ATOM     25  H   UNL     1       1.595   7.070  21.675  0.00  0.00    +0.000 HD
BRANCH  23  26
ATOM     26  C   UNL     1       2.834   5.772  19.787  0.00  0.00    +0.000 A 
ATOM     27  C   UNL     1       2.179   4.706  20.424  0.00  0.00    +0.000 A 
ATOM     28  C   UNL     1       2.781   3.446  20.478  0.00  0.00    +0.000 A 
ATOM     29  C   UNL     1       4.027   3.254  19.885  0.00  0.00    +0.000 A 
ATOM     30  F   UNL     1       4.603   2.045  19.949  0.00  0.00    +0.000 F 
ATOM     31  C   UNL     1       4.665   4.305  19.233  0.00  0.00    +0.000 A 
ATOM     32  F   UNL     1       5.859   4.107  18.656  0.00  0.00    +0.000 F 
ATOM     33  C   UNL     1       4.076   5.559  19.170  0.00  0.00    +0.000 A 
ENDBRANCH  23  26
ENDBRANCH  21  22
ENDBRANCH  19  21
ENDBRANCH   1  19
TORSDOF 5
ENDMDL
MODEL 3
REMARK VINA RESULT:      -8.4      6.586      8.192
REMARK  Name = 
REMARK  6 active torsions:
REMARK  status: ('A' for Active; 'I' for Inactive)
REMARK    1  A    between atoms: C_1  and  C_2
REMARK    2  A    between atoms: C_2  and  C_3
REMARK    3  A    between atoms: C_2  and  N_21
REMARK    4  A    between atoms: C_3  and  N_4
REMARK    5  A    between atoms: C_7  and  N_8
REMARK    6  A    between atoms: C_22  and  C_24
REMARK                            x       y       z     vdW  Elec       q    Type
REMARK                         _______ _______ _______ _____ _____    ______ ____
ROOT
ATOM      1  N   UNL     1       1.789  13.501  18.960  0.00  0.00    +0.000 NA
ATOM      2  C   UNL     1       0.880  12.502  18.375  0.00  0.00    +0.000 C 
ATOM      3  C   UNL     1      -0.334  12.139  19.234  0.00  0.00    +0.000 C 
ATOM      4  C   UNL     1       0.055  11.718  20.651  0.00  0.00    +0.000 C 
ATOM      5  C   UNL     1       0.863  12.898  21.229  0.00  0.00    +0.000 C 
ATOM      6  C   UNL     1       2.090  13.226  20.380  0.00  0.00    +0.000 C 
ENDROOT
BRANCH   4   7
ATOM      7  N   UNL     1       0.696  10.417  20.849  0.00  0.00    +0.000 N 
ATOM      8  C   UNL     1       0.670   9.772  22.119  0.00  0.00    +0.000 A 
ATOM      9  O   UNL     1       0.206  10.182  23.172  0.00  0.00    +0.000 OA
ATOM     10  N   UNL     1       1.265   8.518  21.957  0.00  0.00    +0.000 N 
ATOM     11  C   UNL     1       1.598   8.339  20.625  0.00  0.00    +0.000 A 
ATOM     12  C   UNL     1       2.171   7.227  20.045  0.00  0.00    +0.000 A 
ATOM     13  C   UNL     1       2.391   7.281  18.670  0.00  0.00    +0.000 A 
ATOM     14 BR   UNL     1       3.193   5.817  17.784  0.00  0.00    +0.000 Br
ATOM     15  C   UNL     1       2.015   8.408  17.926  0.00  0.00    +0.000 A 
ATOM     16  C   UNL     1       1.408   9.511  18.548  0.00  0.00    +0.000 A 
ATOM     17  C   UNL     1       1.225   9.487  19.918  0.00  0.00    +0.000 A 
ATOM     18  H   UNL     1       1.366   7.850  22.707  0.00  0.00    +0.000 HD
ENDBRANCH   4   7
BRANCH   1  19
ATOM     19  C   UNL     1       3.074  13.501  18.196  0.00  0.00    +0.000 C 
BRANCH  19  21
ATOM     20  C   UNL     1       3.337  15.877  17.403  0.00  0.00    +0.000 C 
ATOM     21  C   UNL     1       3.915  14.802  18.330  0.00  0.00    +0.000 C 
BRANCH  21  22
ATOM     22  N   UNL     1       5.317  14.537  18.026  0.00  0.00    +0.000 N 
ATOM     23  C   UNL     1       6.331  15.256  18.615  0.00  0.00    +0.000 C 
ATOM     24  O   UNL     1       6.147  16.177  19.407  0.00  0.00    +0.000 OA
ATOM     25  H   UNL     1       5.516  13.607  17.673  0.00  0.00    +0.000 HD
BRANCH  23  26
ATOM     26  C   UNL     1       7.723  14.852  18.276  0.00  0.00    +0.000 A 
ATOM     27  C   UNL     1       8.771  15.783  18.209  0.00  0.00    +0.000 A 
ATOM     28  C   UNL     1      10.063  15.362  17.882  0.00  0.00    +0.000 A 
ATOM     29  C   UNL     1      10.303  14.012  17.634  0.00  0.00    +0.000 A 
ATOM     30  F   UNL     1      11.542  13.616  17.310  0.00  0.00    +0.000 F 
ATOM     31  C   UNL     1       9.267  13.086  17.724  0.00  0.00    +0.000 A 
ATOM     32  F   UNL     1       9.511  11.787  17.494  0.00  0.00    +0.000 F 
ATOM     33  C   UNL     1       7.983  13.491  18.052  0.00  0.00    +0.000 A 
ENDBRANCH  23  26
ENDBRANCH  21  22
ENDBRANCH  19  21
ENDBRANCH   1  19
TORSDOF 5
ENDMDL
MODEL 4
REMARK VINA RESULT:      -8.3      6.045      9.202
REMARK  Name = 
REMARK  6 active torsions:
REMARK  status: ('A' for Active; 'I' for Inactive)
REMARK    1  A    between atoms: C_1  and  C_2
REMARK    2  A    between atoms: C_2  and  C_3
REMARK    3  A    between atoms: C_2  and  N_21
REMARK    4  A    between atoms: C_3  and  N_4
REMARK    5  A    between atoms: C_7  and  N_8
REMARK    6  A    between atoms: C_22  and  C_24
REMARK                            x       y       z     vdW  Elec       q    Type
REMARK                         _______ _______ _______ _____ _____    ______ ____
ROOT
ATOM      1  N   UNL     1       6.140   4.990  18.309  0.00  0.00    +0.000 NA
ATOM      2  C   UNL     1       5.574   4.378  19.521  0.00  0.00    +0.000 C 
ATOM      3  C   UNL     1       4.275   3.593  19.313  0.00  0.00    +0.000 C 
ATOM      4  C   UNL     1       3.203   4.414  18.598  0.00  0.00    +0.000 C 
ATOM      5  C   UNL     1       3.843   4.870  17.271  0.00  0.00    +0.000 C 
ATOM      6  C   UNL     1       5.118   5.681  17.496  0.00  0.00    +0.000 C 
ENDROOT
BRANCH   4   7
ATOM      7  N   UNL     1       2.537   5.493  19.328  0.00  0.00    +0.000 N 
ATOM      8  C   UNL     1       2.199   5.350  20.704  0.00  0.00    +0.000 A 
ATOM      9  O   UNL     1       2.338   4.373  21.424  0.00  0.00    +0.000 OA
ATOM     10  N   UNL     1       1.680   6.575  21.132  0.00  0.00    +0.000 N 
ATOM     11  C   UNL     1       1.747   7.487  20.092  0.00  0.00    +0.000 A 
ATOM     12  C   UNL     1       1.369   8.813  20.115  0.00  0.00    +0.000 A 
ATOM     13  C   UNL     1       1.555   9.536  18.937  0.00  0.00    +0.000 A 
ATOM     14 BR   UNL     1       1.048  11.355  18.857  0.00  0.00    +0.000 Br
ATOM     15  C   UNL     1       2.125   8.935  17.807  0.00  0.00    +0.000 A 
ATOM     16  C   UNL     1       2.523   7.587  17.832  0.00  0.00    +0.000 A 
ATOM     17  C   UNL     1       2.303   6.848  18.979  0.00  0.00    +0.000 A 
ATOM     18  H   UNL     1       1.370   6.747  22.077  0.00  0.00    +0.000 HD
ENDBRANCH   4   7
BRANCH   1  19
ATOM     19  C   UNL     1       7.181   5.987  18.705  0.00  0.00    +0.000 C 
BRANCH  19  21
ATOM     20  C   UNL     1       7.612   6.768  16.349  0.00  0.00    +0.000 C 
ATOM     21  C   UNL     1       7.287   7.228  17.775  0.00  0.00    +0.000 C 
BRANCH  21  22
ATOM     22  N   UNL     1       8.295   8.157  18.274  0.00  0.00    +0.000 N 
ATOM     23  C   UNL     1       8.212   9.510  18.033  0.00  0.00    +0.000 C 
ATOM     24  O   UNL     1       7.321  10.033  17.370  0.00  0.00    +0.000 OA
ATOM     25  H   UNL     1       8.821   7.834  19.078  0.00  0.00    +0.000 HD
BRANCH  23  26
ATOM     26  C   UNL     1       9.263  10.364  18.649  0.00  0.00    +0.000 A 
ATOM     27  C   UNL     1       9.330  10.578  20.034  0.00  0.00    +0.000 A 
ATOM     28  C   UNL     1      10.331  11.393  20.570  0.00  0.00    +0.000 A 
ATOM     29  C   UNL     1      11.266  11.980  19.722  0.00  0.00    +0.000 A 
ATOM     30  F   UNL     1      12.217  12.769  20.242  0.00  0.00    +0.000 F 
ATOM     31  C   UNL     1      11.214  11.749  18.350  0.00  0.00    +0.000 A 
ATOM     32  F   UNL     1      12.126  12.310  17.542  0.00  0.00    +0.000 F 
ATOM     33  C   UNL     1      10.228  10.939  17.807  0.00  0.00    +0.000 A 
ENDBRANCH  23  26
ENDBRANCH  21  22
ENDBRANCH  19  21
ENDBRANCH   1  19
TORSDOF 5
ENDMDL
MODEL 5
REMARK VINA RESULT:      -8.3      5.062     10.149
REMARK  Name = 
REMARK  6 active torsions:
REMARK  status: ('A' for Active; 'I' for Inactive)
REMARK    1  A    between atoms: C_1  and  C_2
REMARK    2  A    between atoms: C_2  and  C_3
REMARK    3  A    between atoms: C_2  and  N_21
REMARK    4  A    between atoms: C_3  and  N_4
REMARK    5  A    between atoms: C_7  and  N_8
REMARK    6  A    between atoms: C_22  and  C_24
REMARK                            x       y       z     vdW  Elec       q    Type
REMARK                         _______ _______ _______ _____ _____    ______ ____
ROOT
ATOM      1  N   UNL     1       2.489   6.467  18.910  0.00  0.00    +0.000 NA
ATOM      2  C   UNL     1       2.425   5.580  17.738  0.00  0.00    +0.000 C 
ATOM      3  C   UNL     1       2.930   4.153  17.968  0.00  0.00    +0.000 C 
ATOM      4  C   UNL     1       4.335   4.118  18.568  0.00  0.00    +0.000 C 
ATOM      5  C   UNL     1       4.252   4.938  19.872  0.00  0.00    +0.000 C 
ATOM      6  C   UNL     1       3.780   6.369  19.622  0.00  0.00    +0.000 C 
ENDROOT
BRANCH   4   7
ATOM      7  N   UNL     1       5.473   4.479  17.722  0.00  0.00    +0.000 N 
ATOM      8  C   UNL     1       6.740   4.794  18.291  0.00  0.00    +0.000 A 
ATOM      9  O   UNL     1       7.048   4.869  19.470  0.00  0.00    +0.000 OA
ATOM     10  N   UNL     1       7.632   4.987  17.231  0.00  0.00    +0.000 N 
ATOM     11  C   UNL     1       6.980   4.739  16.035  0.00  0.00    +0.000 A 
ATOM     12  C   UNL     1       7.513   4.785  14.764  0.00  0.00    +0.000 A 
ATOM     13  C   UNL     1       6.652   4.471  13.713  0.00  0.00    +0.000 A 
ATOM     14 BR   UNL     1       7.280   4.528  11.931  0.00  0.00    +0.000 Br
ATOM     15  C   UNL     1       5.323   4.102  13.958  0.00  0.00    +0.000 A 
ATOM     16  C   UNL     1       4.824   4.040  15.270  0.00  0.00    +0.000 A 
ATOM     17  C   UNL     1       5.654   4.392  16.318  0.00  0.00    +0.000 A 
ATOM     18  H   UNL     1       8.606   5.214  17.361  0.00  0.00    +0.000 HD
ENDBRANCH   4   7
BRANCH   1  19
ATOM     19  C   UNL     1       2.300   7.881  18.466  0.00  0.00    +0.000 C 
BRANCH  19  21
ATOM     20  C   UNL     1       1.431   8.070  20.822  0.00  0.00    +0.000 C 
ATOM     21  C   UNL     1       1.535   8.787  19.472  0.00  0.00    +0.000 C 
BRANCH  21  22
ATOM     22  N   UNL     1       0.216   9.130  18.950  0.00  0.00    +0.000 N 
ATOM     23  C   UNL     1      -0.184  10.438  18.803  0.00  0.00    +0.000 C 
ATOM     24  O   UNL     1       0.506  11.404  19.117  0.00  0.00    +0.000 OA
ATOM     25  H   UNL     1      -0.222   8.416  18.379  0.00  0.00    +0.000 HD
BRANCH  23  26
ATOM     26  C   UNL     1      -1.526  10.664  18.200  0.00  0.00    +0.000 A 
ATOM     27  C   UNL     1      -1.912  10.053  16.997  0.00  0.00    +0.000 A 
ATOM     28  C   UNL     1      -3.180  10.297  16.463  0.00  0.00    +0.000 A 
ATOM     29  C   UNL     1      -4.060  11.139  17.139  0.00  0.00    +0.000 A 
ATOM     30  F   UNL     1      -5.271  11.376  16.615  0.00  0.00    +0.000 F 
ATOM     31  C   UNL     1      -3.685  11.726  18.344  0.00  0.00    +0.000 A 
ATOM     32  F   UNL     1      -4.544  12.526  18.993  0.00  0.00    +0.000 F 
ATOM     33  C   UNL     1      -2.431  11.488  18.886  0.00  0.00    +0.000 A 
ENDBRANCH  23  26
ENDBRANCH  21  22
ENDBRANCH  19  21
ENDBRANCH   1  19
TORSDOF 5
ENDMDL
MODEL 6
REMARK VINA RESULT:      -8.2      4.995     10.142
REMARK  Name = 
REMARK  6 active torsions:
REMARK  status: ('A' for Active; 'I' for Inactive)
REMARK    1  A    between atoms: C_1  and  C_2
REMARK    2  A    between atoms: C_2  and  C_3
REMARK    3  A    between atoms: C_2  and  N_21
REMARK    4  A    between atoms: C_3  and  N_4
REMARK    5  A    between atoms: C_7  and  N_8
REMARK    6  A    between atoms: C_22  and  C_24
REMARK                            x       y       z     vdW  Elec       q    Type
REMARK                         _______ _______ _______ _____ _____    ______ ____
ROOT
ATOM      1  N   UNL     1       2.441   6.539  18.825  0.00  0.00    +0.000 NA
ATOM      2  C   UNL     1       2.387   5.650  17.654  0.00  0.00    +0.000 C 
ATOM      3  C   UNL     1       2.864   4.215  17.900  0.00  0.00    +0.000 C 
ATOM      4  C   UNL     1       4.255   4.159  18.530  0.00  0.00    +0.000 C 
ATOM      5  C   UNL     1       4.157   4.984  19.829  0.00  0.00    +0.000 C 
ATOM      6  C   UNL     1       3.714   6.423  19.566  0.00  0.00    +0.000 C 
ENDROOT
BRANCH   4   7
ATOM      7  N   UNL     1       5.417   4.499  17.708  0.00  0.00    +0.000 N 
ATOM      8  C   UNL     1       6.674   4.804  18.303  0.00  0.00    +0.000 A 
ATOM      9  O   UNL     1       6.955   4.886  19.489  0.00  0.00    +0.000 OA
ATOM     10  N   UNL     1       7.592   4.977  17.263  0.00  0.00    +0.000 N 
ATOM     11  C   UNL     1       6.965   4.726  16.055  0.00  0.00    +0.000 A 
ATOM     12  C   UNL     1       7.529   4.754  14.796  0.00  0.00    +0.000 A 
ATOM     13  C   UNL     1       6.689   4.441  13.728  0.00  0.00    +0.000 A 
ATOM     14 BR   UNL     1       7.359   4.474  11.961  0.00  0.00    +0.000 Br
ATOM     15  C   UNL     1       5.350   4.090  13.945  0.00  0.00    +0.000 A 
ATOM     16  C   UNL     1       4.819   4.045  15.246  0.00  0.00    +0.000 A 
ATOM     17  C   UNL     1       5.630   4.397  16.309  0.00  0.00    +0.000 A 
ATOM     18  H   UNL     1       8.566   5.193  17.414  0.00  0.00    +0.000 HD
ENDBRANCH   4   7
BRANCH   1  19
ATOM     19  C   UNL     1       2.284   7.955  18.373  0.00  0.00    +0.000 C 
BRANCH  19  21
ATOM     20  C   UNL     1       1.281   8.131  20.677  0.00  0.00    +0.000 C 
ATOM     21  C   UNL     1       1.504   8.874  19.355  0.00  0.00    +0.000 C 
BRANCH  21  22
ATOM     22  N   UNL     1       0.239   9.296  18.764  0.00  0.00    +0.000 N 
ATOM     23  C   UNL     1      -0.515  10.306  19.317  0.00  0.00    +0.000 C 
ATOM     24  O   UNL     1      -0.208  10.904  20.346  0.00  0.00    +0.000 OA
ATOM     25  H   UNL     1       0.131   9.089  17.777  0.00  0.00    +0.000 HD
BRANCH  23  26
ATOM     26  C   UNL     1      -1.753  10.693  18.589  0.00  0.00    +0.000 A 
ATOM     27  C   UNL     1      -2.599  11.713  19.051  0.00  0.00    +0.000 A 
ATOM     28  C   UNL     1      -3.756  12.041  18.339  0.00  0.00    +0.000 A 
ATOM     29  C   UNL     1      -4.056  11.356  17.163  0.00  0.00    +0.000 A 
ATOM     30  F   UNL     1      -5.172  11.669  16.491  0.00  0.00    +0.000 F 
ATOM     31  C   UNL     1      -3.205  10.360  16.693  0.00  0.00    +0.000 A 
ATOM     32  F   UNL     1      -3.496   9.715  15.554  0.00  0.00    +0.000 F 
ATOM     33  C   UNL     1      -2.052  10.029  17.388  0.00  0.00    +0.000 A 
ENDBRANCH  23  26
ENDBRANCH  21  22
ENDBRANCH  19  21
ENDBRANCH   1  19
TORSDOF 5
ENDMDL
MODEL 7
REMARK VINA RESULT:      -8.0      2.854      3.844
REMARK  Name = 
REMARK  6 active torsions:
REMARK  status: ('A' for Active; 'I' for Inactive)
REMARK    1  A    between atoms: C_1  and  C_2
REMARK    2  A    between atoms: C_2  and  C_3
REMARK    3  A    between atoms: C_2  and  N_21
REMARK    4  A    between atoms: C_3  and  N_4
REMARK    5  A    between atoms: C_7  and  N_8
REMARK    6  A    between atoms: C_22  and  C_24
REMARK                            x       y       z     vdW  Elec       q    Type
REMARK                         _______ _______ _______ _____ _____    ______ ____
ROOT
ATOM      1  N   UNL     1       0.600  11.193  19.245  0.00  0.00    +0.000 NA
ATOM      2  C   UNL     1      -0.815  11.538  19.041  0.00  0.00    +0.000 C 
ATOM      3  C   UNL     1      -1.113  13.036  18.930  0.00  0.00    +0.000 C 
ATOM      4  C   UNL     1      -0.548  13.836  20.103  0.00  0.00    +0.000 C 
ATOM      5  C   UNL     1       0.963  13.529  20.127  0.00  0.00    +0.000 C 
ATOM      6  C   UNL     1       1.245  12.035  20.273  0.00  0.00    +0.000 C 
ENDROOT
BRANCH   4   7
ATOM      7  N   UNL     1      -1.190  13.715  21.413  0.00  0.00    +0.000 N 
ATOM      8  C   UNL     1      -0.509  14.102  22.603  0.00  0.00    +0.000 A 
ATOM      9  O   UNL     1       0.637  14.505  22.727  0.00  0.00    +0.000 OA
ATOM     10  N   UNL     1      -1.416  13.969  23.659  0.00  0.00    +0.000 N 
ATOM     11  C   UNL     1      -2.646  13.578  23.158  0.00  0.00    +0.000 A 
ATOM     12  C   UNL     1      -3.812  13.371  23.865  0.00  0.00    +0.000 A 
ATOM     13  C   UNL     1      -4.934  12.999  23.126  0.00  0.00    +0.000 A 
ATOM     14 BR   UNL     1      -6.574  12.668  24.004  0.00  0.00    +0.000 Br
ATOM     15  C   UNL     1      -4.867  12.874  21.732  0.00  0.00    +0.000 A 
ATOM     16  C   UNL     1      -3.667  13.121  21.043  0.00  0.00    +0.000 A 
ATOM     17  C   UNL     1      -2.537  13.447  21.769  0.00  0.00    +0.000 A 
ATOM     18  H   UNL     1      -1.187  14.189  24.616  0.00  0.00    +0.000 HD
ENDBRANCH   4   7
BRANCH   1  19
ATOM     19  C   UNL     1       0.699   9.764  19.674  0.00  0.00    +0.000 C 
BRANCH  19  21
ATOM     20  C   UNL     1       2.143   9.459  17.633  0.00  0.00    +0.000 C 
ATOM     21  C   UNL     1       1.896   8.979  19.067  0.00  0.00    +0.000 C 
BRANCH  21  22
ATOM     22  N   UNL     1       1.639   7.543  19.109  0.00  0.00    +0.000 N 
ATOM     23  C   UNL     1       2.574   6.630  18.678  0.00  0.00    +0.000 C 
ATOM     24  O   UNL     1       3.666   6.939  18.208  0.00  0.00    +0.000 OA
ATOM     25  H   UNL     1       0.938   7.248  19.780  0.00  0.00    +0.000 HD
BRANCH  23  26
ATOM     26  C   UNL     1       2.224   5.192  18.830  0.00  0.00    +0.000 A 
ATOM     27  C   UNL     1       2.401   4.270  17.786  0.00  0.00    +0.000 A 
ATOM     28  C   UNL     1       2.054   2.929  17.970  0.00  0.00    +0.000 A 
ATOM     29  C   UNL     1       1.544   2.513  19.197  0.00  0.00    +0.000 A 
ATOM     30  F   UNL     1       1.203   1.227  19.363  0.00  0.00    +0.000 F 
ATOM     31  C   UNL     1       1.390   3.423  20.239  0.00  0.00    +0.000 A 
ATOM     32  F   UNL     1       0.908   3.010  21.421  0.00  0.00    +0.000 F 
ATOM     33  C   UNL     1       1.734   4.755  20.071  0.00  0.00    +0.000 A 
ENDBRANCH  23  26
ENDBRANCH  21  22
ENDBRANCH  19  21
ENDBRANCH   1  19
TORSDOF 5
ENDMDL
MODEL 8
REMARK VINA RESULT:      -8.0      1.908      2.358
REMARK  Name = 
REMARK  6 active torsions:
REMARK  status: ('A' for Active; 'I' for Inactive)
REMARK    1  A    between atoms: C_1  and  C_2
REMARK    2  A    between atoms: C_2  and  C_3
REMARK    3  A    between atoms: C_2  and  N_21
REMARK    4  A    between atoms: C_3  and  N_4
REMARK    5  A    between atoms: C_7  and  N_8
REMARK    6  A    between atoms: C_22  and  C_24
REMARK                            x       y       z     vdW  Elec       q    Type
REMARK                         _______ _______ _______ _____ _____    ______ ____
ROOT
ATOM      1  N   UNL     1       0.302  11.490  21.075  0.00  0.00    +0.000 NA
ATOM      2  C   UNL     1      -0.044  12.687  20.292  0.00  0.00    +0.000 C 
ATOM      3  C   UNL     1      -1.049  13.634  20.953  0.00  0.00    +0.000 C 
ATOM      4  C   UNL     1      -2.324  12.919  21.397  0.00  0.00    +0.000 C 
ATOM      5  C   UNL     1      -1.862  11.789  22.339  0.00  0.00    +0.000 C 
ATOM      6  C   UNL     1      -0.887  10.832  21.655  0.00  0.00    +0.000 C 
ENDROOT
BRANCH   4   7
ATOM      7  N   UNL     1      -3.277  12.478  20.377  0.00  0.00    +0.000 N 
ATOM      8  C   UNL     1      -4.671  12.734  20.515  0.00  0.00    +0.000 A 
ATOM      9  O   UNL     1      -5.260  13.262  21.446  0.00  0.00    +0.000 OA
ATOM     10  N   UNL     1      -5.291  12.290  19.343  0.00  0.00    +0.000 N 
ATOM     11  C   UNL     1      -4.326  11.829  18.464  0.00  0.00    +0.000 A 
ATOM     12  C   UNL     1      -4.518  11.339  17.189  0.00  0.00    +0.000 A 
ATOM     13  C   UNL     1      -3.376  10.955  16.487  0.00  0.00    +0.000 A 
ATOM     14 BR   UNL     1      -3.535  10.249  14.742  0.00  0.00    +0.000 Br
ATOM     15  C   UNL     1      -2.103  11.094  17.055  0.00  0.00    +0.000 A 
ATOM     16  C   UNL     1      -1.945  11.624  18.347  0.00  0.00    +0.000 A 
ATOM     17  C   UNL     1      -3.073  11.967  19.070  0.00  0.00    +0.000 A 
ATOM     18  H   UNL     1      -6.283  12.363  19.178  0.00  0.00    +0.000 HD
ENDBRANCH   4   7
BRANCH   1  19
ATOM     19  C   UNL     1       1.000  10.509  20.189  0.00  0.00    +0.000 C 
BRANCH  19  21
ATOM     20  C   UNL     1       1.682   9.086  22.152  0.00  0.00    +0.000 C 
ATOM     21  C   UNL     1       1.072   9.059  20.746  0.00  0.00    +0.000 C 
BRANCH  21  22
ATOM     22  N   UNL     1       1.842   8.205  19.850  0.00  0.00    +0.000 N 
ATOM     23  C   UNL     1       1.898   6.841  20.023  0.00  0.00    +0.000 C 
ATOM     24  O   UNL     1       1.341   6.244  20.941  0.00  0.00    +0.000 OA
ATOM     25  H   UNL     1       2.014   8.589  18.927  0.00  0.00    +0.000 HD
BRANCH  23  26
ATOM     26  C   UNL     1       2.662   6.068  19.008  0.00  0.00    +0.000 A 
ATOM     27  C   UNL     1       2.536   4.675  18.884  0.00  0.00    +0.000 A 
ATOM     28  C   UNL     1       3.277   3.987  17.920  0.00  0.00    +0.000 A 
ATOM     29  C   UNL     1       4.131   4.694  17.076  0.00  0.00    +0.000 A 
ATOM     30  F   UNL     1       4.847   4.026  16.161  0.00  0.00    +0.000 F 
ATOM     31  C   UNL     1       4.239   6.077  17.184  0.00  0.00    +0.000 A 
ATOM     32  F   UNL     1       5.056   6.750  16.360  0.00  0.00    +0.000 F 
ATOM     33  C   UNL     1       3.506   6.772  18.134  0.00  0.00    +0.000 A 
ENDBRANCH  23  26
ENDBRANCH  21  22
ENDBRANCH  19  21
ENDBRANCH   1  19
TORSDOF 5
ENDMDL
MODEL 9
REMARK VINA RESULT:      -8.0      6.867      8.480
REMARK  Name = 
REMARK  6 active torsions:
REMARK  status: ('A' for Active; 'I' for Inactive)
REMARK    1  A    between atoms: C_1  and  C_2
REMARK    2  A    between atoms: C_2  and  C_3
REMARK    3  A    between atoms: C_2  and  N_21
REMARK    4  A    between atoms: C_3  and  N_4
REMARK    5  A    between atoms: C_7  and  N_8
REMARK    6  A    between atoms: C_22  and  C_24
REMARK                            x       y       z     vdW  Elec       q    Type
REMARK                         _______ _______ _______ _____ _____    ______ ____
ROOT
ATOM      1  N   UNL     1       1.841  13.839  19.184  0.00  0.00    +0.000 NA
ATOM      2  C   UNL     1       1.074  12.845  18.417  0.00  0.00    +0.000 C 
ATOM      3  C   UNL     1      -0.261  12.426  19.040  0.00  0.00    +0.000 C 
ATOM      4  C   UNL     1      -0.114  11.961  20.488  0.00  0.00    +0.000 C 
ATOM      5  C   UNL     1       0.551  13.135  21.236  0.00  0.00    +0.000 C 
ATOM      6  C   UNL     1       1.898  13.518  20.626  0.00  0.00    +0.000 C 
ENDROOT
BRANCH   4   7
ATOM      7  N   UNL     1       0.517  10.667  20.752  0.00  0.00    +0.000 N 
ATOM      8  C   UNL     1       0.433  10.059  22.037  0.00  0.00    +0.000 A 
ATOM      9  O   UNL     1      -0.077  10.499  23.056  0.00  0.00    +0.000 OA
ATOM     10  N   UNL     1       1.034   8.800  21.938  0.00  0.00    +0.000 N 
ATOM     11  C   UNL     1       1.425   8.584  20.628  0.00  0.00    +0.000 A 
ATOM     12  C   UNL     1       2.022   7.455  20.107  0.00  0.00    +0.000 A 
ATOM     13  C   UNL     1       2.303   7.469  18.742  0.00  0.00    +0.000 A 
ATOM     14 BR   UNL     1       3.143   5.980  17.936  0.00  0.00    +0.000 Br
ATOM     15  C   UNL     1       1.962   8.574  17.949  0.00  0.00    +0.000 A 
ATOM     16  C   UNL     1       1.329   9.695  18.512  0.00  0.00    +0.000 A 
ATOM     17  C   UNL     1       1.085   9.711  19.872  0.00  0.00    +0.000 A 
ATOM     18  H   UNL     1       1.101   8.155  22.711  0.00  0.00    +0.000 HD
ENDBRANCH   4   7
BRANCH   1  19
ATOM     19  C   UNL     1       3.238  13.893  18.657  0.00  0.00    +0.000 C 
BRANCH  19  21
ATOM     20  C   UNL     1       3.198  16.193  17.634  0.00  0.00    +0.000 C 
ATOM     21  C   UNL     1       3.891  15.304  18.672  0.00  0.00    +0.000 C 
BRANCH  21  22
ATOM     22  N   UNL     1       5.324  15.208  18.418  0.00  0.00    +0.000 N 
ATOM     23  C   UNL     1       6.234  15.105  19.444  0.00  0.00    +0.000 C 
ATOM     24  O   UNL     1       5.927  15.114  20.634  0.00  0.00    +0.000 OA
ATOM     25  H   UNL     1       5.578  14.858  17.500  0.00  0.00    +0.000 HD
BRANCH  23  26
ATOM     26  C   UNL     1       7.662  14.948  19.059  0.00  0.00    +0.000 A 
ATOM     27  C   UNL     1       8.475  13.947  19.614  0.00  0.00    +0.000 A 
ATOM     28  C   UNL     1       9.814  13.837  19.228  0.00  0.00    +0.000 A 
ATOM     29  C   UNL     1      10.331  14.720  18.282  0.00  0.00    +0.000 A 
ATOM     30  F   UNL     1      11.618  14.616  17.924  0.00  0.00    +0.000 F 
ATOM     31  C   UNL     1       9.518  15.698  17.715  0.00  0.00    +0.000 A 
ATOM     32  F   UNL     1      10.021  16.536  16.797  0.00  0.00    +0.000 F 
ATOM     33  C   UNL     1       8.187  15.814  18.087  0.00  0.00    +0.000 A 
ENDBRANCH  23  26
ENDBRANCH  21  22
ENDBRANCH  19  21
ENDBRANCH   1  19
TORSDOF 5
ENDMDL
