MODEL 1
REMARK VINA RESULT:      -8.4      0.000      0.000
REMARK  Name = 
REMARK  10 active torsions:
REMARK  status: ('A' for Active; 'I' for Inactive)
REMARK    1  A    between atoms: C_1  and  C_2
REMARK    2  A    between atoms: C_2  and  C_3
REMARK    3  A    between atoms: C_2  and  C_4
REMARK    4  A    between atoms: C_2  and  S_5
REMARK    5  A    between atoms: S_5  and  N_8
REMARK    6  A    between atoms: C_9  and  C_11
REMARK    7  A    between atoms: C_13  and  C_14
REMARK    8  A    between atoms: C_17  and  O_18
REMARK    9  A    between atoms: O_18  and  C_19
REMARK   10  A    between atoms: C_19  and  C_20
REMARK                            x       y       z     vdW  Elec       q    Type
REMARK                         _______ _______ _______ _____ _____    ______ ____
ROOT
ATOM      1  C   UNL     1       2.218   7.338  19.467  0.00  0.00    +0.000 A 
ATOM      2  C   UNL     1       1.455   7.657  20.601  0.00  0.00    +0.000 A 
ATOM      3  C   UNL     1       0.704   8.851  20.727  0.00  0.00    +0.000 A 
ATOM      4  C   UNL     1       0.777   9.763  19.642  0.00  0.00    +0.000 A 
ATOM      5  C   UNL     1       1.527   9.444  18.498  0.00  0.00    +0.000 A 
ATOM      6  C   UNL     1       2.234   8.241  18.416  0.00  0.00    +0.000 A 
ATOM      7  F   UNL     1       2.934   7.989  17.301  0.00  0.00    +0.000 F 
ENDROOT
BRANCH   1   9
ATOM      8  N   UNL     1       3.960   5.855  18.516  0.00  0.00    +0.000 N 
ATOM      9  C   UNL     1       2.966   6.053  19.484  0.00  0.00    +0.000 C 
ATOM     10  O   UNL     1       2.730   5.239  20.368  0.00  0.00    +0.000 OA
ATOM     11  H   UNL     1       4.093   6.519  17.753  0.00  0.00    +0.000 HD
BRANCH   8  12
ATOM     12  S   UNL     1       4.892   4.482  18.369  0.00  0.00    +0.000 S 
ATOM     13  O   UNL     1       3.947   3.448  17.977  0.00  0.00    +0.000 OA
ATOM     14  O   UNL     1       5.703   4.302  19.546  0.00  0.00    +0.000 OA
BRANCH  12  16
ATOM     15  C   UNL     1       7.443   4.741  17.343  0.00  0.00    +0.000 C 
ATOM     16  C   UNL     1       5.969   4.831  16.920  0.00  0.00    +0.000 C 
ATOM     17  C   UNL     1       5.670   6.258  16.429  0.00  0.00    +0.000 C 
ATOM     18  C   UNL     1       5.696   3.843  15.781  0.00  0.00    +0.000 C 
ENDBRANCH  12  16
ENDBRANCH   8  12
ENDBRANCH   1   9
BRANCH   3  19
ATOM     19  C   UNL     1      -0.153   8.975  21.990  0.00  0.00    +0.000 C 
ATOM     20  C   UNL     1       0.332   9.363  23.359  0.00  0.00    +0.000 C 
ATOM     21  C   UNL     1      -0.462  10.341  22.542  0.00  0.00    +0.000 C 
ENDBRANCH   3  19
BRANCH   4  22
ATOM     22  O   UNL     1       0.082  10.936  19.780  0.00  0.00    +0.000 OA
BRANCH  22  23
ATOM     23  C   UNL     1       0.100  11.901  18.723  0.00  0.00    +0.000 C 
BRANCH  23  24
ATOM     24  C   UNL     1       0.938  13.130  19.154  0.00  0.00    +0.000 C 
ATOM     25  C   UNL     1       2.323  13.115  18.459  0.00  0.00    +0.000 C 
ATOM     26  C   UNL     1       3.162  14.330  18.887  0.00  0.00    +0.000 C 
ATOM     27  C   UNL     1       2.420  15.617  18.497  0.00  0.00    +0.000 C 
ATOM     28  C   UNL     1       1.051  15.669  19.197  0.00  0.00    +0.000 C 
ATOM     29  C   UNL     1       1.259  15.637  20.720  0.00  0.00    +0.000 C 
ATOM     30  C   UNL     1       1.996  14.351  21.120  0.00  0.00    +0.000 C 
ATOM     31  C   UNL     1       3.359  14.299  20.412  0.00  0.00    +0.000 C 
ATOM     32  C   UNL     1       1.160  13.136  20.688  0.00  0.00    +0.000 C 
ATOM     33  C   UNL     1       0.214  14.446  18.773  0.00  0.00    +0.000 C 
ENDBRANCH  23  24
ENDBRANCH  22  23
ENDBRANCH   4  22
TORSDOF 7
ENDMDL
MODEL 2
REMARK VINA RESULT:      -8.4      3.736      9.013
REMARK  Name = 
REMARK  10 active torsions:
REMARK  status: ('A' for Active; 'I' for Inactive)
REMARK    1  A    between atoms: C_1  and  C_2
REMARK    2  A    between atoms: C_2  and  C_3
REMARK    3  A    between atoms: C_2  and  C_4
REMARK    4  A    between atoms: C_2  and  S_5
REMARK    5  A    between atoms: S_5  and  N_8
REMARK    6  A    between atoms: C_9  and  C_11
REMARK    7  A    between atoms: C_13  and  C_14
REMARK    8  A    between atoms: C_17  and  O_18
REMARK    9  A    between atoms: O_18  and  C_19
REMARK   10  A    between atoms: C_19  and  C_20
REMARK                            x       y       z     vdW  Elec       q    Type
REMARK                         _______ _______ _______ _____ _____    ______ ____
ROOT
ATOM      1  C   UNL     1       0.991   9.578  20.594  0.00  0.00    +0.000 A 
ATOM      2  C   UNL     1       1.397   8.246  20.773  0.00  0.00    +0.000 A 
ATOM      3  C   UNL     1       2.002   7.470  19.756  0.00  0.00    +0.000 A 
ATOM      4  C   UNL     1       2.162   8.094  18.492  0.00  0.00    +0.000 A 
ATOM      5  C   UNL     1       1.772   9.432  18.308  0.00  0.00    +0.000 A 
ATOM      6  C   UNL     1       1.197  10.160  19.354  0.00  0.00    +0.000 A 
ATOM      7  F   UNL     1       0.843  11.433  19.122  0.00  0.00    +0.000 F 
ENDROOT
BRANCH   1   9
ATOM      8  N   UNL     1      -0.658  11.193  21.490  0.00  0.00    +0.000 N 
ATOM      9  C   UNL     1       0.356  10.262  21.751  0.00  0.00    +0.000 C 
ATOM     10  O   UNL     1       0.700   9.955  22.886  0.00  0.00    +0.000 OA
ATOM     11  H   UNL     1      -0.881  11.478  20.537  0.00  0.00    +0.000 HD
BRANCH   8  12
ATOM     12  S   UNL     1      -1.476  12.065  22.651  0.00  0.00    +0.000 S 
ATOM     13  O   UNL     1      -0.472  12.961  23.200  0.00  0.00    +0.000 OA
ATOM     14  O   UNL     1      -2.199  11.176  23.524  0.00  0.00    +0.000 OA
BRANCH  12  16
ATOM     15  C   UNL     1      -2.478  12.804  20.185  0.00  0.00    +0.000 C 
ATOM     16  C   UNL     1      -2.663  13.085  21.683  0.00  0.00    +0.000 C 
ATOM     17  C   UNL     1      -2.363  14.568  21.961  0.00  0.00    +0.000 C 
ATOM     18  C   UNL     1      -4.109  12.781  22.092  0.00  0.00    +0.000 C 
ENDBRANCH  12  16
ENDBRANCH   8  12
ENDBRANCH   1   9
BRANCH   3  19
ATOM     19  C   UNL     1       2.477   6.073  20.170  0.00  0.00    +0.000 C 
ATOM     20  C   UNL     1       1.752   5.120  21.079  0.00  0.00    +0.000 C 
ATOM     21  C   UNL     1       1.789   4.860  19.600  0.00  0.00    +0.000 C 
ENDBRANCH   3  19
BRANCH   4  22
ATOM     22  O   UNL     1       2.712   7.330  17.496  0.00  0.00    +0.000 OA
BRANCH  22  23
ATOM     23  C   UNL     1       4.075   7.540  17.109  0.00  0.00    +0.000 C 
BRANCH  23  24
ATOM     24  C   UNL     1       4.844   6.197  17.167  0.00  0.00    +0.000 C 
ATOM     25  C   UNL     1       5.516   6.013  18.552  0.00  0.00    +0.000 C 
ATOM     26  C   UNL     1       6.285   4.684  18.614  0.00  0.00    +0.000 C 
ATOM     27  C   UNL     1       5.306   3.524  18.375  0.00  0.00    +0.000 C 
ATOM     28  C   UNL     1       4.646   3.669  16.992  0.00  0.00    +0.000 C 
ATOM     29  C   UNL     1       5.734   3.656  15.907  0.00  0.00    +0.000 C 
ATOM     30  C   UNL     1       6.714   4.815  16.136  0.00  0.00    +0.000 C 
ATOM     31  C   UNL     1       7.365   4.671  17.521  0.00  0.00    +0.000 C 
ATOM     32  C   UNL     1       5.946   6.144  16.078  0.00  0.00    +0.000 C 
ATOM     33  C   UNL     1       3.881   5.006  16.929  0.00  0.00    +0.000 C 
ENDBRANCH  23  24
ENDBRANCH  22  23
ENDBRANCH   4  22
TORSDOF 7
ENDMDL
MODEL 3
REMARK VINA RESULT:      -8.4      4.630      9.808
REMARK  Name = 
REMARK  10 active torsions:
REMARK  status: ('A' for Active; 'I' for Inactive)
REMARK    1  A    between atoms: C_1  and  C_2
REMARK    2  A    between atoms: C_2  and  C_3
REMARK    3  A    between atoms: C_2  and  C_4
REMARK    4  A    between atoms: C_2  and  S_5
REMARK    5  A    between atoms: S_5  and  N_8
REMARK    6  A    between atoms: C_9  and  C_11
REMARK    7  A    between atoms: C_13  and  C_14
REMARK    8  A    between atoms: C_17  and  O_18
REMARK    9  A    between atoms: O_18  and  C_19
REMARK   10  A    between atoms: C_19  and  C_20
REMARK                            x       y       z     vdW  Elec       q    Type
REMARK                         _______ _______ _______ _____ _____    ______ ____
ROOT
ATOM      1  C   UNL     1      -0.666  10.814  22.123  0.00  0.00    +0.000 A 
ATOM      2  C   UNL     1      -0.716  10.946  20.726  0.00  0.00    +0.000 A 
ATOM      3  C   UNL     1      -0.110  10.031  19.833  0.00  0.00    +0.000 A 
ATOM      4  C   UNL     1       0.604   8.952  20.417  0.00  0.00    +0.000 A 
ATOM      5  C   UNL     1       0.648   8.805  21.813  0.00  0.00    +0.000 A 
ATOM      6  C   UNL     1       0.014   9.727  22.651  0.00  0.00    +0.000 A 
ATOM      7  F   UNL     1       0.087   9.538  23.976  0.00  0.00    +0.000 F 
ENDROOT
BRANCH   1   9
ATOM      8  N   UNL     1      -2.721  11.759  23.131  0.00  0.00    +0.000 N 
ATOM      9  C   UNL     1      -1.338  11.863  22.935  0.00  0.00    +0.000 C 
ATOM     10  O   UNL     1      -0.659  12.746  23.445  0.00  0.00    +0.000 OA
ATOM     11  H   UNL     1      -3.272  11.052  22.644  0.00  0.00    +0.000 HD
BRANCH   8  12
ATOM     12  S   UNL     1      -3.647  12.840  23.998  0.00  0.00    +0.000 S 
ATOM     13  O   UNL     1      -2.769  13.979  24.205  0.00  0.00    +0.000 OA
ATOM     14  O   UNL     1      -4.250  12.183  25.129  0.00  0.00    +0.000 OA
BRANCH  12  16
ATOM     15  C   UNL     1      -4.667  12.738  21.432  0.00  0.00    +0.000 C 
ATOM     16  C   UNL     1      -4.954  13.354  22.809  0.00  0.00    +0.000 C 
ATOM     17  C   UNL     1      -4.925  14.887  22.694  0.00  0.00    +0.000 C 
ATOM     18  C   UNL     1      -6.341  12.914  23.293  0.00  0.00    +0.000 C 
ENDBRANCH  12  16
ENDBRANCH   8  12
ENDBRANCH   1   9
BRANCH   3  19
ATOM     19  C   UNL     1      -0.364  10.279  18.342  0.00  0.00    +0.000 C 
ATOM     20  C   UNL     1      -1.625   9.955  17.589  0.00  0.00    +0.000 C 
ATOM     21  C   UNL     1      -1.301  11.382  17.927  0.00  0.00    +0.000 C 
ENDBRANCH   3  19
BRANCH   4  22
ATOM     22  O   UNL     1       1.224   8.088  19.552  0.00  0.00    +0.000 OA
BRANCH  22  23
ATOM     23  C   UNL     1       2.482   7.505  19.911  0.00  0.00    +0.000 C 
BRANCH  23  24
ATOM     24  C   UNL     1       2.478   5.999  19.550  0.00  0.00    +0.000 C 
ATOM     25  C   UNL     1       1.556   5.210  20.516  0.00  0.00    +0.000 C 
ATOM     26  C   UNL     1       1.551   3.714  20.166  0.00  0.00    +0.000 C 
ATOM     27  C   UNL     1       1.040   3.534  18.728  0.00  0.00    +0.000 C 
ATOM     28  C   UNL     1       1.957   4.285  17.746  0.00  0.00    +0.000 C 
ATOM     29  C   UNL     1       3.385   3.728  17.859  0.00  0.00    +0.000 C 
ATOM     30  C   UNL     1       3.905   3.908  19.292  0.00  0.00    +0.000 C 
ATOM     31  C   UNL     1       2.982   3.164  20.270  0.00  0.00    +0.000 C 
ATOM     32  C   UNL     1       3.906   5.404  19.644  0.00  0.00    +0.000 C 
ATOM     33  C   UNL     1       1.966   5.785  18.103  0.00  0.00    +0.000 C 
ENDBRANCH  23  24
ENDBRANCH  22  23
ENDBRANCH   4  22
TORSDOF 7
ENDMDL
MODEL 4
REMARK VINA RESULT:      -8.3      0.431      1.583
REMARK  Name = 
REMARK  10 active torsions:
REMARK  status: ('A' for Active; 'I' for Inactive)
REMARK    1  A    between atoms: C_1  and  C_2
REMARK    2  A    between atoms: C_2  and  C_3
REMARK    3  A    between atoms: C_2  and  C_4
REMARK    4  A    between atoms: C_2  and  S_5
REMARK    5  A    between atoms: S_5  and  N_8
REMARK    6  A    between atoms: C_9  and  C_11
REMARK    7  A    between atoms: C_13  and  C_14
REMARK    8  A    between atoms: C_17  and  O_18
REMARK    9  A    between atoms: O_18  and  C_19
REMARK   10  A    between atoms: C_19  and  C_20
REMARK                            x       y       z     vdW  Elec       q    Type
REMARK                         _______ _______ _______ _____ _____    ______ ____
ROOT
ATOM      1  C   UNL     1       2.299   7.292  19.387  0.00  0.00    +0.000 A 
ATOM      2  C   UNL     1       1.844   7.723  20.644  0.00  0.00    +0.000 A 
ATOM      3  C   UNL     1       1.214   8.971  20.861  0.00  0.00    +0.000 A 
ATOM      4  C   UNL     1       1.081   9.820  19.731  0.00  0.00    +0.000 A 
ATOM      5  C   UNL     1       1.520   9.391  18.468  0.00  0.00    +0.000 A 
ATOM      6  C   UNL     1       2.118   8.138  18.304  0.00  0.00    +0.000 A 
ATOM      7  F   UNL     1       2.519   7.779  17.076  0.00  0.00    +0.000 F 
ENDROOT
BRANCH   1   9
ATOM      8  N   UNL     1       3.988   5.783  18.386  0.00  0.00    +0.000 N 
ATOM      9  C   UNL     1       2.955   5.960  19.315  0.00  0.00    +0.000 C 
ATOM     10  O   UNL     1       2.611   5.084  20.100  0.00  0.00    +0.000 OA
ATOM     11  H   UNL     1       4.212   6.505  17.701  0.00  0.00    +0.000 HD
BRANCH   8  12
ATOM     12  S   UNL     1       4.831   4.365  18.151  0.00  0.00    +0.000 S 
ATOM     13  O   UNL     1       3.850   3.454  17.586  0.00  0.00    +0.000 OA
ATOM     14  O   UNL     1       5.538   4.002  19.353  0.00  0.00    +0.000 OA
BRANCH  12  16
ATOM     15  C   UNL     1       5.883   3.786  15.663  0.00  0.00    +0.000 C 
ATOM     16  C   UNL     1       6.035   4.781  16.823  0.00  0.00    +0.000 C 
ATOM     17  C   UNL     1       7.454   4.665  17.406  0.00  0.00    +0.000 C 
ATOM     18  C   UNL     1       5.818   6.209  16.312  0.00  0.00    +0.000 C 
ENDBRANCH  12  16
ENDBRANCH   8  12
ENDBRANCH   1   9
BRANCH   3  19
ATOM     19  C   UNL     1       0.688   9.220  22.278  0.00  0.00    +0.000 C 
ATOM     20  C   UNL     1      -0.297  10.280  22.687  0.00  0.00    +0.000 C 
ATOM     21  C   UNL     1      -0.731   8.844  22.616  0.00  0.00    +0.000 C 
ENDBRANCH   3  19
BRANCH   4  22
ATOM     22  O   UNL     1       0.506  11.045  19.949  0.00  0.00    +0.000 OA
BRANCH  22  23
ATOM     23  C   UNL     1       0.360  11.964  18.861  0.00  0.00    +0.000 C 
BRANCH  23  24
ATOM     24  C   UNL     1       1.227  13.221  19.122  0.00  0.00    +0.000 C 
ATOM     25  C   UNL     1       1.677  13.273  20.605  0.00  0.00    +0.000 C 
ATOM     26  C   UNL     1       2.534  14.521  20.872  0.00  0.00    +0.000 C 
ATOM     27  C   UNL     1       3.779  14.478  19.973  0.00  0.00    +0.000 C 
ATOM     28  C   UNL     1       3.359  14.453  18.493  0.00  0.00    +0.000 C 
ATOM     29  C   UNL     1       2.539  15.715  18.177  0.00  0.00    +0.000 C 
ATOM     30  C   UNL     1       1.291  15.763  19.068  0.00  0.00    +0.000 C 
ATOM     31  C   UNL     1       1.714  15.779  20.546  0.00  0.00    +0.000 C 
ATOM     32  C   UNL     1       0.435  14.515  18.805  0.00  0.00    +0.000 C 
ATOM     33  C   UNL     1       2.493  13.206  18.228  0.00  0.00    +0.000 C 
ENDBRANCH  23  24
ENDBRANCH  22  23
ENDBRANCH   4  22
TORSDOF 7
ENDMDL
MODEL 5
REMARK VINA RESULT:      -8.3      3.643      9.001
REMARK  Name = 
REMARK  10 active torsions:
REMARK  status: ('A' for Active; 'I' for Inactive)
REMARK    1  A    between atoms: C_1  and  C_2
REMARK    2  A    between atoms: C_2  and  C_3
REMARK    3  A    between atoms: C_2  and  C_4
REMARK    4  A    between atoms: C_2  and  S_5
REMARK    5  A    between atoms: S_5  and  N_8
REMARK    6  A    between atoms: C_9  and  C_11
REMARK    7  A    between atoms: C_13  and  C_14
REMARK    8  A    between atoms: C_17  and  O_18
REMARK    9  A    between atoms: O_18  and  C_19
REMARK   10  A    between atoms: C_19  and  C_20
REMARK                            x       y       z     vdW  Elec       q    Type
REMARK                         _______ _______ _______ _____ _____    ______ ____
ROOT
ATOM      1  C   UNL     1       1.015   9.578  20.514  0.00  0.00    +0.000 A 
ATOM      2  C   UNL     1       1.433   8.251  20.703  0.00  0.00    +0.000 A 
ATOM      3  C   UNL     1       2.045   7.473  19.691  0.00  0.00    +0.000 A 
ATOM      4  C   UNL     1       2.200   8.091  18.423  0.00  0.00    +0.000 A 
ATOM      5  C   UNL     1       1.797   9.423  18.230  0.00  0.00    +0.000 A 
ATOM      6  C   UNL     1       1.216  10.154  19.270  0.00  0.00    +0.000 A 
ATOM      7  F   UNL     1       0.851  11.421  19.030  0.00  0.00    +0.000 F 
ENDROOT
BRANCH   1   9
ATOM      8  N   UNL     1      -0.592  11.244  21.396  0.00  0.00    +0.000 N 
ATOM      9  C   UNL     1       0.373  10.265  21.667  0.00  0.00    +0.000 C 
ATOM     10  O   UNL     1       0.667   9.918  22.804  0.00  0.00    +0.000 OA
ATOM     11  H   UNL     1      -0.772  11.559  20.443  0.00  0.00    +0.000 HD
BRANCH   8  12
ATOM     12  S   UNL     1      -1.408  12.126  22.550  0.00  0.00    +0.000 S 
ATOM     13  O   UNL     1      -0.389  12.981  23.135  0.00  0.00    +0.000 OA
ATOM     14  O   UNL     1      -2.179  11.249  23.394  0.00  0.00    +0.000 OA
BRANCH  12  16
ATOM     15  C   UNL     1      -3.861  13.378  22.332  0.00  0.00    +0.000 C 
ATOM     16  C   UNL     1      -2.540  13.196  21.570  0.00  0.00    +0.000 C 
ATOM     17  C   UNL     1      -2.820  12.500  20.228  0.00  0.00    +0.000 C 
ATOM     18  C   UNL     1      -1.905  14.565  21.302  0.00  0.00    +0.000 C 
ENDBRANCH  12  16
ENDBRANCH   8  12
ENDBRANCH   1   9
BRANCH   3  19
ATOM     19  C   UNL     1       2.532   6.083  20.115  0.00  0.00    +0.000 C 
ATOM     20  C   UNL     1       1.843   5.155  21.075  0.00  0.00    +0.000 C 
ATOM     21  C   UNL     1       1.815   4.862  19.602  0.00  0.00    +0.000 C 
ENDBRANCH   3  19
BRANCH   4  22
ATOM     22  O   UNL     1       2.757   7.325  17.432  0.00  0.00    +0.000 OA
BRANCH  22  23
ATOM     23  C   UNL     1       4.124   7.530  17.059  0.00  0.00    +0.000 C 
BRANCH  23  24
ATOM     24  C   UNL     1       4.885   6.182  17.110  0.00  0.00    +0.000 C 
ATOM     25  C   UNL     1       3.909   4.998  16.890  0.00  0.00    +0.000 C 
ATOM     26  C   UNL     1       4.657   3.656  16.944  0.00  0.00    +0.000 C 
ATOM     27  C   UNL     1       5.729   3.633  15.844  0.00  0.00    +0.000 C 
ATOM     28  C   UNL     1       6.728   4.784  16.057  0.00  0.00    +0.000 C 
ATOM     29  C   UNL     1       7.397   4.626  17.431  0.00  0.00    +0.000 C 
ATOM     30  C   UNL     1       6.334   4.654  18.537  0.00  0.00    +0.000 C 
ATOM     31  C   UNL     1       5.334   3.508  18.317  0.00  0.00    +0.000 C 
ATOM     32  C   UNL     1       5.582   5.993  18.481  0.00  0.00    +0.000 C 
ATOM     33  C   UNL     1       5.974   6.128  16.009  0.00  0.00    +0.000 C 
ENDBRANCH  23  24
ENDBRANCH  22  23
ENDBRANCH   4  22
TORSDOF 7
ENDMDL
MODEL 6
REMARK VINA RESULT:      -8.3      4.167      9.798
REMARK  Name = 
REMARK  10 active torsions:
REMARK  status: ('A' for Active; 'I' for Inactive)
REMARK    1  A    between atoms: C_1  and  C_2
REMARK    2  A    between atoms: C_2  and  C_3
REMARK    3  A    between atoms: C_2  and  C_4
REMARK    4  A    between atoms: C_2  and  S_5
REMARK    5  A    between atoms: S_5  and  N_8
REMARK    6  A    between atoms: C_9  and  C_11
REMARK    7  A    between atoms: C_13  and  C_14
REMARK    8  A    between atoms: C_17  and  O_18
REMARK    9  A    between atoms: O_18  and  C_19
REMARK   10  A    between atoms: C_19  and  C_20
REMARK                            x       y       z     vdW  Elec       q    Type
REMARK                         _______ _______ _______ _____ _____    ______ ____
ROOT
ATOM      1  C   UNL     1       0.117  10.796  21.350  0.00  0.00    +0.000 A 
ATOM      2  C   UNL     1       0.697  10.572  20.091  0.00  0.00    +0.000 A 
ATOM      3  C   UNL     1       1.350   9.368  19.735  0.00  0.00    +0.000 A 
ATOM      4  C   UNL     1       1.432   8.369  20.739  0.00  0.00    +0.000 A 
ATOM      5  C   UNL     1       0.842   8.580  21.997  0.00  0.00    +0.000 A 
ATOM      6  C   UNL     1       0.190   9.781  22.291  0.00  0.00    +0.000 A 
ATOM      7  F   UNL     1      -0.355   9.928  23.507  0.00  0.00    +0.000 F 
ENDROOT
BRANCH   1   9
ATOM      8  N   UNL     1      -1.884  12.253  21.280  0.00  0.00    +0.000 N 
ATOM      9  C   UNL     1      -0.523  12.117  21.585  0.00  0.00    +0.000 C 
ATOM     10  O   UNL     1       0.140  13.019  22.081  0.00  0.00    +0.000 OA
ATOM     11  H   UNL     1      -2.397  11.509  20.809  0.00  0.00    +0.000 HD
BRANCH   8  12
ATOM     12  S   UNL     1      -2.768  13.654  21.463  0.00  0.00    +0.000 S 
ATOM     13  O   UNL     1      -3.984  13.412  20.704  0.00  0.00    +0.000 OA
ATOM     14  O   UNL     1      -1.951  14.801  21.162  0.00  0.00    +0.000 OA
BRANCH  12  16
ATOM     15  C   UNL     1      -3.320  12.219  23.758  0.00  0.00    +0.000 C 
ATOM     16  C   UNL     1      -3.218  13.663  23.247  0.00  0.00    +0.000 C 
ATOM     17  C   UNL     1      -4.586  14.351  23.396  0.00  0.00    +0.000 C 
ATOM     18  C   UNL     1      -2.179  14.431  24.071  0.00  0.00    +0.000 C 
ENDBRANCH  12  16
ENDBRANCH   8  12
ENDBRANCH   1   9
BRANCH   3  19
ATOM     19  C   UNL     1       1.824   9.266  18.281  0.00  0.00    +0.000 C 
ATOM     20  C   UNL     1       2.818   8.278  17.738  0.00  0.00    +0.000 C 
ATOM     21  C   UNL     1       1.357   8.114  17.432  0.00  0.00    +0.000 C 
ENDBRANCH   3  19
BRANCH   4  22
ATOM     22  O   UNL     1       2.099   7.218  20.407  0.00  0.00    +0.000 OA
BRANCH  22  23
ATOM     23  C   UNL     1       1.490   5.947  20.659  0.00  0.00    +0.000 C 
BRANCH  23  24
ATOM     24  C   UNL     1       2.211   4.854  19.831  0.00  0.00    +0.000 C 
ATOM     25  C   UNL     1       3.709   5.207  19.650  0.00  0.00    +0.000 C 
ATOM     26  C   UNL     1       4.429   4.128  18.825  0.00  0.00    +0.000 C 
ATOM     27  C   UNL     1       4.317   2.780  19.553  0.00  0.00    +0.000 C 
ATOM     28  C   UNL     1       2.837   2.393  19.720  0.00  0.00    +0.000 C 
ATOM     29  C   UNL     1       2.182   2.286  18.334  0.00  0.00    +0.000 C 
ATOM     30  C   UNL     1       2.285   3.630  17.602  0.00  0.00    +0.000 C 
ATOM     31  C   UNL     1       3.764   4.017  17.444  0.00  0.00    +0.000 C 
ATOM     32  C   UNL     1       1.569   4.711  18.427  0.00  0.00    +0.000 C 
ATOM     33  C   UNL     1       2.115   3.479  20.541  0.00  0.00    +0.000 C 
ENDBRANCH  23  24
ENDBRANCH  22  23
ENDBRANCH   4  22
TORSDOF 7
ENDMDL
MODEL 7
REMARK VINA RESULT:      -8.3      4.231      9.796
REMARK  Name = 
REMARK  10 active torsions:
REMARK  status: ('A' for Active; 'I' for Inactive)
REMARK    1  A    between atoms: C_1  and  C_2
REMARK    2  A    between atoms: C_2  and  C_3
REMARK    3  A    between atoms: C_2  and  C_4
REMARK    4  A    between atoms: C_2  and  S_5
REMARK    5  A    between atoms: S_5  and  N_8
REMARK    6  A    between atoms: C_9  and  C_11
REMARK    7  A    between atoms: C_13  and  C_14
REMARK    8  A    between atoms: C_17  and  O_18
REMARK    9  A    between atoms: O_18  and  C_19
REMARK   10  A    between atoms: C_19  and  C_20
REMARK                            x       y       z     vdW  Elec       q    Type
REMARK                         _______ _______ _______ _____ _____    ______ ____
ROOT
ATOM      1  C   UNL     1      -0.015  10.724  21.443  0.00  0.00    +0.000 A 
ATOM      2  C   UNL     1       0.419  10.443  20.137  0.00  0.00    +0.000 A 
ATOM      3  C   UNL     1       1.071   9.241  19.772  0.00  0.00    +0.000 A 
ATOM      4  C   UNL     1       1.310   8.307  20.813  0.00  0.00    +0.000 A 
ATOM      5  C   UNL     1       0.867   8.575  22.120  0.00  0.00    +0.000 A 
ATOM      6  C   UNL     1       0.209   9.770  22.422  0.00  0.00    +0.000 A 
ATOM      7  F   UNL     1      -0.192   9.973  23.686  0.00  0.00    +0.000 F 
ENDROOT
BRANCH   1   9
ATOM      8  N   UNL     1      -2.012  12.181  21.294  0.00  0.00    +0.000 N 
ATOM      9  C   UNL     1      -0.672  12.037  21.679  0.00  0.00    +0.000 C 
ATOM     10  O   UNL     1      -0.044  12.923  22.244  0.00  0.00    +0.000 OA
ATOM     11  H   UNL     1      -2.492  11.452  20.768  0.00  0.00    +0.000 HD
BRANCH   8  12
ATOM     12  S   UNL     1      -2.910  13.574  21.466  0.00  0.00    +0.000 S 
ATOM     13  O   UNL     1      -4.120  13.316  20.703  0.00  0.00    +0.000 OA
ATOM     14  O   UNL     1      -2.103  14.728  21.162  0.00  0.00    +0.000 OA
BRANCH  12  16
ATOM     15  C   UNL     1      -3.337  12.154  23.796  0.00  0.00    +0.000 C 
ATOM     16  C   UNL     1      -3.368  13.588  23.248  0.00  0.00    +0.000 C 
ATOM     17  C   UNL     1      -4.794  14.148  23.375  0.00  0.00    +0.000 C 
ATOM     18  C   UNL     1      -2.409  14.471  24.054  0.00  0.00    +0.000 C 
ENDBRANCH  12  16
ENDBRANCH   8  12
ENDBRANCH   1   9
BRANCH   3  19
ATOM     19  C   UNL     1       1.371   9.067  18.279  0.00  0.00    +0.000 C 
ATOM     20  C   UNL     1       2.385   9.838  17.481  0.00  0.00    +0.000 C 
ATOM     21  C   UNL     1       2.658   8.409  17.857  0.00  0.00    +0.000 C 
ENDBRANCH   3  19
BRANCH   4  22
ATOM     22  O   UNL     1       1.976   7.160  20.468  0.00  0.00    +0.000 OA
BRANCH  22  23
ATOM     23  C   UNL     1       1.349   5.888  20.665  0.00  0.00    +0.000 C 
BRANCH  23  24
ATOM     24  C   UNL     1       2.077   4.814  19.819  0.00  0.00    +0.000 C 
ATOM     25  C   UNL     1       1.802   3.397  20.385  0.00  0.00    +0.000 C 
ATOM     26  C   UNL     1       2.526   2.327  19.553  0.00  0.00    +0.000 C 
ATOM     27  C   UNL     1       2.025   2.392  18.103  0.00  0.00    +0.000 C 
ATOM     28  C   UNL     1       2.312   3.782  17.508  0.00  0.00    +0.000 C 
ATOM     29  C   UNL     1       3.826   4.044  17.542  0.00  0.00    +0.000 C 
ATOM     30  C   UNL     1       4.335   3.986  18.989  0.00  0.00    +0.000 C 
ATOM     31  C   UNL     1       4.039   2.599  19.581  0.00  0.00    +0.000 C 
ATOM     32  C   UNL     1       3.609   5.053  19.822  0.00  0.00    +0.000 C 
ATOM     33  C   UNL     1       1.591   4.855  18.348  0.00  0.00    +0.000 C 
ENDBRANCH  23  24
ENDBRANCH  22  23
ENDBRANCH   4  22
TORSDOF 7
ENDMDL
MODEL 8
REMARK VINA RESULT:      -8.3      4.294      9.926
REMARK  Name = 
REMARK  10 active torsions:
REMARK  status: ('A' for Active; 'I' for Inactive)
REMARK    1  A    between atoms: C_1  and  C_2
REMARK    2  A    between atoms: C_2  and  C_3
REMARK    3  A    between atoms: C_2  and  C_4
REMARK    4  A    between atoms: C_2  and  S_5
REMARK    5  A    between atoms: S_5  and  N_8
REMARK    6  A    between atoms: C_9  and  C_11
REMARK    7  A    between atoms: C_13  and  C_14
REMARK    8  A    between atoms: C_17  and  O_18
REMARK    9  A    between atoms: O_18  and  C_19
REMARK   10  A    between atoms: C_19  and  C_20
REMARK                            x       y       z     vdW  Elec       q    Type
REMARK                         _______ _______ _______ _____ _____    ______ ____
ROOT
ATOM      1  C   UNL     1       0.116  10.887  21.678  0.00  0.00    +0.000 A 
ATOM      2  C   UNL     1       0.487  10.687  20.339  0.00  0.00    +0.000 A 
ATOM      3  C   UNL     1       1.002   9.465  19.845  0.00  0.00    +0.000 A 
ATOM      4  C   UNL     1       1.167   8.418  20.789  0.00  0.00    +0.000 A 
ATOM      5  C   UNL     1       0.785   8.605  22.128  0.00  0.00    +0.000 A 
ATOM      6  C   UNL     1       0.261   9.828  22.559  0.00  0.00    +0.000 A 
ATOM      7  F   UNL     1      -0.087   9.951  23.848  0.00  0.00    +0.000 F 
ENDROOT
BRANCH   1   9
ATOM      8  N   UNL     1      -1.727  12.333  22.483  0.00  0.00    +0.000 N 
ATOM      9  C   UNL     1      -0.397  12.231  22.054  0.00  0.00    +0.000 C 
ATOM     10  O   UNL     1       0.368  13.188  22.027  0.00  0.00    +0.000 OA
ATOM     11  H   UNL     1      -2.360  11.536  22.435  0.00  0.00    +0.000 HD
BRANCH   8  12
ATOM     12  S   UNL     1      -2.480  13.750  22.932  0.00  0.00    +0.000 S 
ATOM     13  O   UNL     1      -2.479  14.555  21.721  0.00  0.00    +0.000 OA
ATOM     14  O   UNL     1      -1.887  14.268  24.138  0.00  0.00    +0.000 OA
BRANCH  12  16
ATOM     15  C   UNL     1      -4.245  12.240  24.425  0.00  0.00    +0.000 C 
ATOM     16  C   UNL     1      -4.217  13.242  23.262  0.00  0.00    +0.000 C 
ATOM     17  C   UNL     1      -4.771  12.565  21.997  0.00  0.00    +0.000 C 
ATOM     18  C   UNL     1      -5.089  14.456  23.604  0.00  0.00    +0.000 C 
ENDBRANCH  12  16
ENDBRANCH   8  12
ENDBRANCH   1   9
BRANCH   3  19
ATOM     19  C   UNL     1       1.249   9.402  18.334  0.00  0.00    +0.000 C 
ATOM     20  C   UNL     1       2.263  10.201  17.564  0.00  0.00    +0.000 C 
ATOM     21  C   UNL     1       2.498   8.739  17.817  0.00  0.00    +0.000 C 
ENDBRANCH   3  19
BRANCH   4  22
ATOM     22  O   UNL     1       1.703   7.247  20.319  0.00  0.00    +0.000 OA
BRANCH  22  23
ATOM     23  C   UNL     1       1.208   5.995  20.804  0.00  0.00    +0.000 C 
BRANCH  23  24
ATOM     24  C   UNL     1       1.850   4.836  20.002  0.00  0.00    +0.000 C 
ATOM     25  C   UNL     1       1.378   3.466  20.551  0.00  0.00    +0.000 C 
ATOM     26  C   UNL     1       2.016   2.311  19.762  0.00  0.00    +0.000 C 
ATOM     27  C   UNL     1       1.608   2.426  18.285  0.00  0.00    +0.000 C 
ATOM     28  C   UNL     1       2.091   3.768  17.708  0.00  0.00    +0.000 C 
ATOM     29  C   UNL     1       3.621   3.850  17.827  0.00  0.00    +0.000 C 
ATOM     30  C   UNL     1       4.037   3.741  19.300  0.00  0.00    +0.000 C 
ATOM     31  C   UNL     1       3.546   2.403  19.875  0.00  0.00    +0.000 C 
ATOM     32  C   UNL     1       3.397   4.893  20.091  0.00  0.00    +0.000 C 
ATOM     33  C   UNL     1       1.456   4.924  18.505  0.00  0.00    +0.000 C 
ENDBRANCH  23  24
ENDBRANCH  22  23
ENDBRANCH   4  22
TORSDOF 7
ENDMDL
MODEL 9
REMARK VINA RESULT:      -8.2      4.220      9.725
REMARK  Name = 
REMARK  10 active torsions:
REMARK  status: ('A' for Active; 'I' for Inactive)
REMARK    1  A    between atoms: C_1  and  C_2
REMARK    2  A    between atoms: C_2  and  C_3
REMARK    3  A    between atoms: C_2  and  C_4
REMARK    4  A    between atoms: C_2  and  S_5
REMARK    5  A    between atoms: S_5  and  N_8
REMARK    6  A    between atoms: C_9  and  C_11
REMARK    7  A    between atoms: C_13  and  C_14
REMARK    8  A    between atoms: C_17  and  O_18
REMARK    9  A    between atoms: O_18  and  C_19
REMARK   10  A    between atoms: C_19  and  C_20
REMARK                            x       y       z     vdW  Elec       q    Type
REMARK                         _______ _______ _______ _____ _____    ______ ____
ROOT
ATOM      1  C   UNL     1       0.035  10.707  21.453  0.00  0.00    +0.000 A 
ATOM      2  C   UNL     1       0.485  10.359  20.170  0.00  0.00    +0.000 A 
ATOM      3  C   UNL     1       1.079   9.113  19.861  0.00  0.00    +0.000 A 
ATOM      4  C   UNL     1       1.240   8.202  20.938  0.00  0.00    +0.000 A 
ATOM      5  C   UNL     1       0.779   8.537  22.222  0.00  0.00    +0.000 A 
ATOM      6  C   UNL     1       0.181   9.776  22.469  0.00  0.00    +0.000 A 
ATOM      7  F   UNL     1      -0.240  10.042  23.714  0.00  0.00    +0.000 F 
ENDROOT
BRANCH   1   9
ATOM      8  N   UNL     1      -1.910  12.234  21.319  0.00  0.00    +0.000 N 
ATOM      9  C   UNL     1      -0.555  12.061  21.630  0.00  0.00    +0.000 C 
ATOM     10  O   UNL     1       0.142  12.958  22.086  0.00  0.00    +0.000 OA
ATOM     11  H   UNL     1      -2.451  11.490  20.880  0.00  0.00    +0.000 HD
BRANCH   8  12
ATOM     12  S   UNL     1      -2.741  13.673  21.440  0.00  0.00    +0.000 S 
ATOM     13  O   UNL     1      -2.095  14.543  20.471  0.00  0.00    +0.000 OA
ATOM     14  O   UNL     1      -2.834  14.080  22.818  0.00  0.00    +0.000 OA
BRANCH  12  16
ATOM     15  C   UNL     1      -5.160  14.571  20.451  0.00  0.00    +0.000 C 
ATOM     16  C   UNL     1      -4.417  13.271  20.796  0.00  0.00    +0.000 C 
ATOM     17  C   UNL     1      -5.190  12.524  21.896  0.00  0.00    +0.000 C 
ATOM     18  C   UNL     1      -4.329  12.380  19.552  0.00  0.00    +0.000 C 
ENDBRANCH  12  16
ENDBRANCH   8  12
ENDBRANCH   1   9
BRANCH   3  19
ATOM     19  C   UNL     1       1.407   8.872  18.383  0.00  0.00    +0.000 C 
ATOM     20  C   UNL     1       2.351   9.682  17.539  0.00  0.00    +0.000 C 
ATOM     21  C   UNL     1       2.753   8.313  18.007  0.00  0.00    +0.000 C 
ENDBRANCH   3  19
BRANCH   4  22
ATOM     22  O   UNL     1       1.850   7.010  20.647  0.00  0.00    +0.000 OA
BRANCH  22  23
ATOM     23  C   UNL     1       1.054   5.841  20.420  0.00  0.00    +0.000 C 
BRANCH  23  24
ATOM     24  C   UNL     1       1.902   4.770  19.691  0.00  0.00    +0.000 C 
ATOM     25  C   UNL     1       1.558   4.738  18.180  0.00  0.00    +0.000 C 
ATOM     26  C   UNL     1       2.392   3.673  17.451  0.00  0.00    +0.000 C 
ATOM     27  C   UNL     1       3.884   4.001  17.618  0.00  0.00    +0.000 C 
ATOM     28  C   UNL     1       4.257   4.010  19.110  0.00  0.00    +0.000 C 
ATOM     29  C   UNL     1       3.963   2.628  19.715  0.00  0.00    +0.000 C 
ATOM     30  C   UNL     1       2.473   2.294  19.557  0.00  0.00    +0.000 C 
ATOM     31  C   UNL     1       2.102   2.294  18.065  0.00  0.00    +0.000 C 
ATOM     32  C   UNL     1       1.638   3.361  20.282  0.00  0.00    +0.000 C 
ATOM     33  C   UNL     1       3.414   5.074  19.841  0.00  0.00    +0.000 C 
ENDBRANCH  23  24
ENDBRANCH  22  23
ENDBRANCH   4  22
TORSDOF 7
ENDMDL
