MODEL 1
REMARK VINA RESULT:      -9.9      0.000      0.000
REMARK  Name = 
REMARK  6 active torsions:
REMARK  status: ('A' for Active; 'I' for Inactive)
REMARK    1  A    between atoms: C_1  and  C_2
REMARK    2  A    between atoms: C_6  and  N_7
REMARK    3  A    between atoms: N_9  and  N_10
REMARK    4  A    between atoms: N_13  and  C_14
REMARK    5  A    between atoms: N_19  and  C_20
REMARK    6  A    between atoms: C_20  and  C_21
REMARK                            x       y       z     vdW  Elec       q    Type
REMARK                         _______ _______ _______ _____ _____    ______ ____
ROOT
ATOM      1  N   UNL     1       2.629   7.265  19.639  0.00  0.00    +0.000 N 
ATOM      2  C   UNL     1       2.560   5.938  20.006  0.00  0.00    +0.000 C 
ATOM      3  N   UNL     1       1.430   5.460  20.444  0.00  0.00    +0.000 NA
ATOM      4  N   UNL     1       3.762   5.277  19.872  0.00  0.00    +0.000 N 
ATOM      5  H   UNL     1       3.133   7.482  18.794  0.00  0.00    +0.000 HD
ATOM      6  H   UNL     1       3.795   4.317  20.243  0.00  0.00    +0.000 HD
ENDROOT
BRANCH   1  12
ATOM      7  C   UNL     1      -2.046  11.658  23.381  0.00  0.00    +0.000 C 
ATOM      8  C   UNL     1      -1.114  10.811  22.610  0.00  0.00    +0.000 A 
ATOM      9  C   UNL     1      -0.223   9.815  22.954  0.00  0.00    +0.000 A 
ATOM     10  C   UNL     1       0.382   9.382  21.745  0.00  0.00    +0.000 A 
ATOM     11  C   UNL     1       1.339   8.416  21.387  0.00  0.00    +0.000 A 
ATOM     12  C   UNL     1       1.715   8.270  20.035  0.00  0.00    +0.000 A 
ATOM     13  C   UNL     1       1.130   9.098  19.064  0.00  0.00    +0.000 A 
ATOM     14  C   UNL     1       0.162  10.057  19.395  0.00  0.00    +0.000 A 
ATOM     15  C   UNL     1      -0.177  10.159  20.741  0.00  0.00    +0.000 A 
ATOM     16  O   UNL     1      -1.090  11.022  21.263  0.00  0.00    +0.000 OA
ENDBRANCH   1  12
BRANCH   4  17
ATOM     17  C   UNL     1       4.831   5.539  18.905  0.00  0.00    +0.000 C 
ATOM     18  C   UNL     1       6.181   5.018  19.418  0.00  0.00    +0.000 C 
ATOM     19  C   UNL     1       7.344   5.865  18.904  0.00  0.00    +0.000 C 
ATOM     20  C   UNL     1       7.560   5.792  17.392  0.00  0.00    +0.000 C 
ATOM     21  C   UNL     1       6.363   6.237  16.554  0.00  0.00    +0.000 C 
ATOM     22  N   UNL     1       5.319   5.213  16.469  0.00  0.00    +0.000 N 
ATOM     23  C   UNL     1       4.534   4.837  17.557  0.00  0.00    +0.000 C 
ATOM     24  O   UNL     1       3.684   3.946  17.484  0.00  0.00    +0.000 OA
BRANCH  22  25
ATOM     25  C   UNL     1       5.182   4.484  15.194  0.00  0.00    +0.000 C 
BRANCH  25  26
ATOM     26  C   UNL     1       6.401   4.551  14.249  0.00  0.00    +0.000 C 
ATOM     27  O   UNL     1       7.443   5.130  14.564  0.00  0.00    +0.000 OA
ATOM     28  N   UNL     1       6.291   3.873  13.049  0.00  0.00    +0.000 N 
ATOM     29  C   UNL     1       5.115   3.247  12.473  0.00  0.00    +0.000 C 
ATOM     30  C   UNL     1       5.701   2.115  11.649  0.00  0.00    +0.000 C 
ATOM     31  C   UNL     1       7.005   2.700  11.114  0.00  0.00    +0.000 C 
ATOM     32  C   UNL     1       7.433   3.727  12.161  0.00  0.00    +0.000 C 
ENDBRANCH  25  26
ENDBRANCH  22  25
ENDBRANCH   4  17
BRANCH   3  33
ATOM     33  N   UNL     1       1.292   4.166  20.739  0.00  0.00    +0.000 N 
ATOM     34  O   UNL     1       0.614   3.414  20.019  0.00  0.00    +0.000 OA
ATOM     35  O   UNL     1       1.890   3.752  21.743  0.00  0.00    +0.000 OA
ENDBRANCH   3  33
TORSDOF 5
ENDMDL
MODEL 2
REMARK VINA RESULT:      -9.6      0.723      1.418
REMARK  Name = 
REMARK  6 active torsions:
REMARK  status: ('A' for Active; 'I' for Inactive)
REMARK    1  A    between atoms: C_1  and  C_2
REMARK    2  A    between atoms: C_6  and  N_7
REMARK    3  A    between atoms: N_9  and  N_10
REMARK    4  A    between atoms: N_13  and  C_14
REMARK    5  A    between atoms: N_19  and  C_20
REMARK    6  A    between atoms: C_20  and  C_21
REMARK                            x       y       z     vdW  Elec       q    Type
REMARK                         _______ _______ _______ _____ _____    ______ ____
ROOT
ATOM      1  N   UNL     1       2.555   7.219  19.760  0.00  0.00    +0.000 N 
ATOM      2  C   UNL     1       2.547   5.880  20.088  0.00  0.00    +0.000 C 
ATOM      3  N   UNL     1       1.452   5.349  20.553  0.00  0.00    +0.000 NA
ATOM      4  N   UNL     1       3.765   5.267  19.886  0.00  0.00    +0.000 N 
ATOM      5  H   UNL     1       3.018   7.480  18.903  0.00  0.00    +0.000 HD
ATOM      6  H   UNL     1       3.847   4.298  20.225  0.00  0.00    +0.000 HD
ENDROOT
BRANCH   1  12
ATOM      7  C   UNL     1      -2.276  12.823  20.398  0.00  0.00    +0.000 C 
ATOM      8  C   UNL     1      -1.327  11.696  20.303  0.00  0.00    +0.000 A 
ATOM      9  C   UNL     1      -0.717  11.048  19.249  0.00  0.00    +0.000 A 
ATOM     10  C   UNL     1       0.097  10.033  19.818  0.00  0.00    +0.000 A 
ATOM     11  C   UNL     1       0.971   9.048  19.325  0.00  0.00    +0.000 A 
ATOM     12  C   UNL     1       1.624   8.178  20.223  0.00  0.00    +0.000 A 
ATOM     13  C   UNL     1       1.387   8.306  21.601  0.00  0.00    +0.000 A 
ATOM     14  C   UNL     1       0.533   9.290  22.116  0.00  0.00    +0.000 A 
ATOM     15  C   UNL     1      -0.085  10.126  21.190  0.00  0.00    +0.000 A 
ATOM     16  O   UNL     1      -0.943  11.138  21.487  0.00  0.00    +0.000 OA
ENDBRANCH   1  12
BRANCH   4  17
ATOM     17  C   UNL     1       4.785   5.597  18.888  0.00  0.00    +0.000 C 
ATOM     18  C   UNL     1       6.185   5.194  19.372  0.00  0.00    +0.000 C 
ATOM     19  C   UNL     1       7.263   6.122  18.815  0.00  0.00    +0.000 C 
ATOM     20  C   UNL     1       7.447   6.040  17.299  0.00  0.00    +0.000 C 
ATOM     21  C   UNL     1       6.197   6.373  16.487  0.00  0.00    +0.000 C 
ATOM     22  N   UNL     1       5.236   5.267  16.445  0.00  0.00    +0.000 N 
ATOM     23  C   UNL     1       4.512   4.849  17.558  0.00  0.00    +0.000 C 
ATOM     24  O   UNL     1       3.735   3.892  17.522  0.00  0.00    +0.000 OA
BRANCH  22  25
ATOM     25  C   UNL     1       5.127   4.508  15.186  0.00  0.00    +0.000 C 
BRANCH  25  26
ATOM     26  C   UNL     1       6.370   4.542  14.271  0.00  0.00    +0.000 C 
ATOM     27  O   UNL     1       7.420   5.091  14.614  0.00  0.00    +0.000 OA
ATOM     28  N   UNL     1       6.271   3.868  13.067  0.00  0.00    +0.000 N 
ATOM     29  C   UNL     1       5.093   3.276  12.461  0.00  0.00    +0.000 C 
ATOM     30  C   UNL     1       5.667   2.129  11.649  0.00  0.00    +0.000 C 
ATOM     31  C   UNL     1       7.001   2.678  11.148  0.00  0.00    +0.000 C 
ATOM     32  C   UNL     1       7.431   3.691  12.207  0.00  0.00    +0.000 C 
ENDBRANCH  25  26
ENDBRANCH  22  25
ENDBRANCH   4  17
BRANCH   3  33
ATOM     33  N   UNL     1       1.372   4.042  20.812  0.00  0.00    +0.000 N 
ATOM     34  O   UNL     1       1.916   3.554  21.816  0.00  0.00    +0.000 OA
ATOM     35  O   UNL     1       0.710   3.353  20.022  0.00  0.00    +0.000 OA
ENDBRANCH   3  33
TORSDOF 5
ENDMDL
MODEL 3
REMARK VINA RESULT:      -9.4      2.347      4.420
REMARK  Name = 
REMARK  6 active torsions:
REMARK  status: ('A' for Active; 'I' for Inactive)
REMARK    1  A    between atoms: C_1  and  C_2
REMARK    2  A    between atoms: C_6  and  N_7
REMARK    3  A    between atoms: N_9  and  N_10
REMARK    4  A    between atoms: N_13  and  C_14
REMARK    5  A    between atoms: N_19  and  C_20
REMARK    6  A    between atoms: C_20  and  C_21
REMARK                            x       y       z     vdW  Elec       q    Type
REMARK                         _______ _______ _______ _____ _____    ______ ____
ROOT
ATOM      1  N   UNL     1       2.934   6.239  19.118  0.00  0.00    +0.000 N 
ATOM      2  C   UNL     1       2.628   4.925  19.403  0.00  0.00    +0.000 C 
ATOM      3  N   UNL     1       1.411   4.620  19.755  0.00  0.00    +0.000 NA
ATOM      4  N   UNL     1       3.712   4.081  19.290  0.00  0.00    +0.000 N 
ATOM      5  H   UNL     1       3.516   6.411  18.314  0.00  0.00    +0.000 HD
ATOM      6  H   UNL     1       3.566   3.112  19.605  0.00  0.00    +0.000 HD
ENDROOT
BRANCH   1  12
ATOM      7  C   UNL     1      -1.208  11.136  22.862  0.00  0.00    +0.000 C 
ATOM      8  C   UNL     1      -0.376  10.189  22.094  0.00  0.00    +0.000 A 
ATOM      9  C   UNL     1       0.306   9.035  22.420  0.00  0.00    +0.000 A 
ATOM     10  C   UNL     1       0.921   8.579  21.224  0.00  0.00    +0.000 A 
ATOM     11  C   UNL     1       1.726   7.486  20.859  0.00  0.00    +0.000 A 
ATOM     12  C   UNL     1       2.175   7.361  19.528  0.00  0.00    +0.000 A 
ATOM     13  C   UNL     1       1.813   8.335  18.584  0.00  0.00    +0.000 A 
ATOM     14  C   UNL     1       0.998   9.425  18.922  0.00  0.00    +0.000 A 
ATOM     15  C   UNL     1       0.579   9.501  20.247  0.00  0.00    +0.000 A 
ATOM     16  O   UNL     1      -0.213  10.475  20.771  0.00  0.00    +0.000 OA
ENDBRANCH   1  12
BRANCH   4  17
ATOM     17  C   UNL     1       4.864   4.210  18.395  0.00  0.00    +0.000 C 
ATOM     18  C   UNL     1       4.419   4.531  16.962  0.00  0.00    +0.000 C 
ATOM     19  C   UNL     1       5.384   3.951  15.928  0.00  0.00    +0.000 C 
ATOM     20  C   UNL     1       6.780   4.576  15.945  0.00  0.00    +0.000 C 
ATOM     21  C   UNL     1       7.520   4.448  17.275  0.00  0.00    +0.000 C 
ATOM     22  N   UNL     1       7.059   5.414  18.276  0.00  0.00    +0.000 N 
ATOM     23  C   UNL     1       5.799   5.352  18.866  0.00  0.00    +0.000 C 
ATOM     24  O   UNL     1       5.406   6.192  19.679  0.00  0.00    +0.000 OA
BRANCH  22  25
ATOM     25  C   UNL     1       7.942   6.557  18.577  0.00  0.00    +0.000 C 
BRANCH  25  26
ATOM     26  C   UNL     1       7.717   7.822  17.720  0.00  0.00    +0.000 C 
ATOM     27  O   UNL     1       6.952   7.830  16.753  0.00  0.00    +0.000 OA
ATOM     28  N   UNL     1       8.370   8.969  18.130  0.00  0.00    +0.000 N 
ATOM     29  C   UNL     1       9.384   9.110  19.160  0.00  0.00    +0.000 C 
ATOM     30  C   UNL     1       9.169  10.529  19.656  0.00  0.00    +0.000 C 
ATOM     31  C   UNL     1       8.773  11.293  18.395  0.00  0.00    +0.000 C 
ATOM     32  C   UNL     1       8.099  10.253  17.502  0.00  0.00    +0.000 C 
ENDBRANCH  25  26
ENDBRANCH  22  25
ENDBRANCH   4  17
BRANCH   3  33
ATOM     33  N   UNL     1       1.047   3.354  19.966  0.00  0.00    +0.000 N 
ATOM     34  O   UNL     1       0.686   2.626  19.026  0.00  0.00    +0.000 OA
ATOM     35  O   UNL     1       1.112   2.937  21.132  0.00  0.00    +0.000 OA
ENDBRANCH   3  33
TORSDOF 5
ENDMDL
MODEL 4
REMARK VINA RESULT:      -9.1      2.490      4.688
REMARK  Name = 
REMARK  6 active torsions:
REMARK  status: ('A' for Active; 'I' for Inactive)
REMARK    1  A    between atoms: C_1  and  C_2
REMARK    2  A    between atoms: C_6  and  N_7
REMARK    3  A    between atoms: N_9  and  N_10
REMARK    4  A    between atoms: N_13  and  C_14
REMARK    5  A    between atoms: N_19  and  C_20
REMARK    6  A    between atoms: C_20  and  C_21
REMARK                            x       y       z     vdW  Elec       q    Type
REMARK                         _______ _______ _______ _____ _____    ______ ____
ROOT
ATOM      1  N   UNL     1       2.967   6.090  19.047  0.00  0.00    +0.000 N 
ATOM      2  C   UNL     1       2.699   4.761  19.300  0.00  0.00    +0.000 C 
ATOM      3  N   UNL     1       1.486   4.408  19.619  0.00  0.00    +0.000 NA
ATOM      4  N   UNL     1       3.813   3.956  19.193  0.00  0.00    +0.000 N 
ATOM      5  H   UNL     1       3.558   6.298  18.259  0.00  0.00    +0.000 HD
ATOM      6  H   UNL     1       3.694   2.976  19.485  0.00  0.00    +0.000 HD
ENDROOT
BRANCH   1  12
ATOM      7  C   UNL     1      -0.711  12.520  19.578  0.00  0.00    +0.000 C 
ATOM      8  C   UNL     1      -0.001  11.228  19.499  0.00  0.00    +0.000 A 
ATOM      9  C   UNL     1       0.682  10.574  18.495  0.00  0.00    +0.000 A 
ATOM     10  C   UNL     1       1.145   9.353  19.053  0.00  0.00    +0.000 A 
ATOM     11  C   UNL     1       1.896   8.256  18.594  0.00  0.00    +0.000 A 
ATOM     12  C   UNL     1       2.161   7.177  19.462  0.00  0.00    +0.000 A 
ATOM     13  C   UNL     1       1.666   7.211  20.776  0.00  0.00    +0.000 A 
ATOM     14  C   UNL     1       0.929   8.301  21.260  0.00  0.00    +0.000 A 
ATOM     15  C   UNL     1       0.697   9.342  20.365  0.00  0.00    +0.000 A 
ATOM     16  O   UNL     1       0.007  10.482  20.640  0.00  0.00    +0.000 OA
ENDBRANCH   1  12
BRANCH   4  17
ATOM     17  C   UNL     1       4.979   4.142  18.325  0.00  0.00    +0.000 C 
ATOM     18  C   UNL     1       4.553   4.473  16.889  0.00  0.00    +0.000 C 
ATOM     19  C   UNL     1       5.559   3.947  15.866  0.00  0.00    +0.000 C 
ATOM     20  C   UNL     1       6.931   4.620  15.924  0.00  0.00    +0.000 C 
ATOM     21  C   UNL     1       7.647   4.493  17.268  0.00  0.00    +0.000 C 
ATOM     22  N   UNL     1       7.131   5.424  18.275  0.00  0.00    +0.000 N 
ATOM     23  C   UNL     1       5.862   5.307  18.837  0.00  0.00    +0.000 C 
ATOM     24  O   UNL     1       5.423   6.118  19.655  0.00  0.00    +0.000 OA
BRANCH  22  25
ATOM     25  C   UNL     1       7.967   6.591  18.615  0.00  0.00    +0.000 C 
BRANCH  25  26
ATOM     26  C   UNL     1       7.749   7.848  17.745  0.00  0.00    +0.000 C 
ATOM     27  O   UNL     1       6.999   7.845  16.766  0.00  0.00    +0.000 OA
ATOM     28  N   UNL     1       8.391   9.002  18.154  0.00  0.00    +0.000 N 
ATOM     29  C   UNL     1       9.388   9.157  19.198  0.00  0.00    +0.000 C 
ATOM     30  C   UNL     1       9.160  10.578  19.679  0.00  0.00    +0.000 C 
ATOM     31  C   UNL     1       8.779  11.330  18.406  0.00  0.00    +0.000 C 
ATOM     32  C   UNL     1       8.123  10.280  17.512  0.00  0.00    +0.000 C 
ENDBRANCH  25  26
ENDBRANCH  22  25
ENDBRANCH   4  17
BRANCH   3  33
ATOM     33  N   UNL     1       1.161   3.127  19.797  0.00  0.00    +0.000 N 
ATOM     34  O   UNL     1       0.591   2.480  18.903  0.00  0.00    +0.000 OA
ATOM     35  O   UNL     1       1.479   2.612  20.880  0.00  0.00    +0.000 OA
ENDBRANCH   3  33
TORSDOF 5
ENDMDL
MODEL 5
REMARK VINA RESULT:      -9.0      4.889     11.852
REMARK  Name = 
REMARK  6 active torsions:
REMARK  status: ('A' for Active; 'I' for Inactive)
REMARK    1  A    between atoms: C_1  and  C_2
REMARK    2  A    between atoms: C_6  and  N_7
REMARK    3  A    between atoms: N_9  and  N_10
REMARK    4  A    between atoms: N_13  and  C_14
REMARK    5  A    between atoms: N_19  and  C_20
REMARK    6  A    between atoms: C_20  and  C_21
REMARK                            x       y       z     vdW  Elec       q    Type
REMARK                         _______ _______ _______ _____ _____    ______ ____
ROOT
ATOM      1  N   UNL     1       0.497  10.391  19.402  0.00  0.00    +0.000 N 
ATOM      2  C   UNL     1      -0.609  10.825  18.702  0.00  0.00    +0.000 C 
ATOM      3  N   UNL     1      -1.214   9.998  17.897  0.00  0.00    +0.000 NA
ATOM      4  N   UNL     1      -0.922  12.145  18.949  0.00  0.00    +0.000 N 
ATOM      5  H   UNL     1       0.562  10.662  20.370  0.00  0.00    +0.000 HD
ATOM      6  H   UNL     1      -1.665  12.552  18.365  0.00  0.00    +0.000 HD
ENDROOT
BRANCH   1  12
ATOM      7  C   UNL     1       4.250   3.983  19.419  0.00  0.00    +0.000 C 
ATOM      8  C   UNL     1       3.506   5.257  19.379  0.00  0.00    +0.000 A 
ATOM      9  C   UNL     1       2.609   5.866  20.232  0.00  0.00    +0.000 A 
ATOM     10  C   UNL     1       2.246   7.096  19.624  0.00  0.00    +0.000 A 
ATOM     11  C   UNL     1       1.408   8.176  19.955  0.00  0.00    +0.000 A 
ATOM     12  C   UNL     1       1.284   9.264  19.067  0.00  0.00    +0.000 A 
ATOM     13  C   UNL     1       1.999   9.253  17.859  0.00  0.00    +0.000 A 
ATOM     14  C   UNL     1       2.853   8.196  17.515  0.00  0.00    +0.000 A 
ATOM     15  C   UNL     1       2.943   7.147  18.426  0.00  0.00    +0.000 A 
ATOM     16  O   UNL     1       3.713   6.035  18.279  0.00  0.00    +0.000 OA
ENDBRANCH   1  12
BRANCH   4  17
ATOM     17  C   UNL     1      -0.699  12.908  20.179  0.00  0.00    +0.000 C 
ATOM     18  C   UNL     1       0.050  14.216  19.891  0.00  0.00    +0.000 C 
ATOM     19  C   UNL     1       0.931  14.633  21.068  0.00  0.00    +0.000 C 
ATOM     20  C   UNL     1       0.160  15.013  22.332  0.00  0.00    +0.000 C 
ATOM     21  C   UNL     1      -0.731  13.905  22.893  0.00  0.00    +0.000 C 
ATOM     22  N   UNL     1      -1.987  13.759  22.153  0.00  0.00    +0.000 N 
ATOM     23  C   UNL     1      -2.047  13.273  20.849  0.00  0.00    +0.000 C 
ATOM     24  O   UNL     1      -3.105  13.190  20.221  0.00  0.00    +0.000 OA
BRANCH  22  25
ATOM     25  C   UNL     1      -3.218  14.256  22.796  0.00  0.00    +0.000 C 
BRANCH  25  26
ATOM     26  C   UNL     1      -4.155  13.174  23.376  0.00  0.00    +0.000 C 
ATOM     27  O   UNL     1      -3.729  12.097  23.800  0.00  0.00    +0.000 OA
ATOM     28  N   UNL     1      -5.497  13.498  23.457  0.00  0.00    +0.000 N 
ATOM     29  C   UNL     1      -6.179  14.655  22.907  0.00  0.00    +0.000 C 
ATOM     30  C   UNL     1      -7.332  14.861  23.874  0.00  0.00    +0.000 C 
ATOM     31  C   UNL     1      -7.726  13.441  24.269  0.00  0.00    +0.000 C 
ATOM     32  C   UNL     1      -6.440  12.626  24.140  0.00  0.00    +0.000 C 
ENDBRANCH  25  26
ENDBRANCH  22  25
ENDBRANCH   4  17
BRANCH   3  33
ATOM     33  N   UNL     1      -2.331  10.346  17.257  0.00  0.00    +0.000 N 
ATOM     34  O   UNL     1      -3.354  10.668  17.883  0.00  0.00    +0.000 OA
ATOM     35  O   UNL     1      -2.289  10.356  16.017  0.00  0.00    +0.000 OA
ENDBRANCH   3  33
TORSDOF 5
ENDMDL
MODEL 6
REMARK VINA RESULT:      -8.9      4.362     11.785
REMARK  Name = 
REMARK  6 active torsions:
REMARK  status: ('A' for Active; 'I' for Inactive)
REMARK    1  A    between atoms: C_1  and  C_2
REMARK    2  A    between atoms: C_6  and  N_7
REMARK    3  A    between atoms: N_9  and  N_10
REMARK    4  A    between atoms: N_13  and  C_14
REMARK    5  A    between atoms: N_19  and  C_20
REMARK    6  A    between atoms: C_20  and  C_21
REMARK                            x       y       z     vdW  Elec       q    Type
REMARK                         _______ _______ _______ _____ _____    ______ ____
ROOT
ATOM      1  N   UNL     1       0.443  10.502  19.459  0.00  0.00    +0.000 N 
ATOM      2  C   UNL     1      -0.646  10.783  18.661  0.00  0.00    +0.000 C 
ATOM      3  N   UNL     1      -1.264   9.803  18.064  0.00  0.00    +0.000 NA
ATOM      4  N   UNL     1      -0.929  12.130  18.588  0.00  0.00    +0.000 N 
ATOM      5  H   UNL     1       0.508  10.991  20.338  0.00  0.00    +0.000 HD
ATOM      6  H   UNL     1      -1.657  12.404  17.915  0.00  0.00    +0.000 HD
ENDROOT
BRANCH   1  12
ATOM      7  C   UNL     1       4.709   4.781  17.402  0.00  0.00    +0.000 C 
ATOM      8  C   UNL     1       3.867   5.909  17.846  0.00  0.00    +0.000 A 
ATOM      9  C   UNL     1       3.517   7.119  17.282  0.00  0.00    +0.000 A 
ATOM     10  C   UNL     1       2.668   7.768  18.218  0.00  0.00    +0.000 A 
ATOM     11  C   UNL     1       1.970   8.987  18.267  0.00  0.00    +0.000 A 
ATOM     12  C   UNL     1       1.206   9.311  19.408  0.00  0.00    +0.000 A 
ATOM     13  C   UNL     1       1.158   8.410  20.484  0.00  0.00    +0.000 A 
ATOM     14  C   UNL     1       1.833   7.182  20.450  0.00  0.00    +0.000 A 
ATOM     15  C   UNL     1       2.570   6.908  19.301  0.00  0.00    +0.000 A 
ATOM     16  O   UNL     1       3.291   5.777  19.075  0.00  0.00    +0.000 OA
ENDBRANCH   1  12
BRANCH   4  17
ATOM     17  C   UNL     1      -0.698  13.156  19.608  0.00  0.00    +0.000 C 
ATOM     18  C   UNL     1      -0.262  14.482  18.971  0.00  0.00    +0.000 C 
ATOM     19  C   UNL     1       0.669  15.271  19.891  0.00  0.00    +0.000 C 
ATOM     20  C   UNL     1       0.012  15.770  21.179  0.00  0.00    +0.000 C 
ATOM     21  C   UNL     1      -0.563  14.669  22.068  0.00  0.00    +0.000 C 
ATOM     22  N   UNL     1      -1.854  14.169  21.587  0.00  0.00    +0.000 N 
ATOM     23  C   UNL     1      -1.991  13.422  20.419  0.00  0.00    +0.000 C 
ATOM     24  O   UNL     1      -3.086  13.039  20.002  0.00  0.00    +0.000 OA
BRANCH  22  25
ATOM     25  C   UNL     1      -3.062  14.576  22.329  0.00  0.00    +0.000 C 
BRANCH  25  26
ATOM     26  C   UNL     1      -3.728  13.477  23.184  0.00  0.00    +0.000 C 
ATOM     27  O   UNL     1      -3.067  12.642  23.807  0.00  0.00    +0.000 OA
ATOM     28  N   UNL     1      -5.107  13.510  23.269  0.00  0.00    +0.000 N 
ATOM     29  C   UNL     1      -6.036  14.336  22.520  0.00  0.00    +0.000 C 
ATOM     30  C   UNL     1      -7.199  14.499  23.482  0.00  0.00    +0.000 C 
ATOM     31  C   UNL     1      -7.261  13.153  24.200  0.00  0.00    +0.000 C 
ATOM     32  C   UNL     1      -5.825  12.631  24.179  0.00  0.00    +0.000 C 
ENDBRANCH  25  26
ENDBRANCH  22  25
ENDBRANCH   4  17
BRANCH   3  33
ATOM     33  N   UNL     1      -2.367  10.015  17.345  0.00  0.00    +0.000 N 
ATOM     34  O   UNL     1      -2.329  10.672  16.292  0.00  0.00    +0.000 OA
ATOM     35  O   UNL     1      -3.417   9.506  17.764  0.00  0.00    +0.000 OA
ENDBRANCH   3  33
TORSDOF 5
ENDMDL
MODEL 7
REMARK VINA RESULT:      -8.8      4.724     10.950
REMARK  Name = 
REMARK  6 active torsions:
REMARK  status: ('A' for Active; 'I' for Inactive)
REMARK    1  A    between atoms: C_1  and  C_2
REMARK    2  A    between atoms: C_6  and  N_7
REMARK    3  A    between atoms: N_9  and  N_10
REMARK    4  A    between atoms: N_13  and  C_14
REMARK    5  A    between atoms: N_19  and  C_20
REMARK    6  A    between atoms: C_20  and  C_21
REMARK                            x       y       z     vdW  Elec       q    Type
REMARK                         _______ _______ _______ _____ _____    ______ ____
ROOT
ATOM      1  N   UNL     1       1.300   9.999  19.121  0.00  0.00    +0.000 N 
ATOM      2  C   UNL     1       0.188  10.475  18.460  0.00  0.00    +0.000 C 
ATOM      3  N   UNL     1      -0.667   9.626  17.964  0.00  0.00    +0.000 NA
ATOM      4  N   UNL     1       0.146  11.851  18.396  0.00  0.00    +0.000 N 
ATOM      5  H   UNL     1       1.562  10.465  19.975  0.00  0.00    +0.000 HD
ATOM      6  H   UNL     1      -0.601  12.256  17.814  0.00  0.00    +0.000 HD
ENDROOT
BRANCH   1  12
ATOM      7  C   UNL     1       3.406   2.966  20.243  0.00  0.00    +0.000 C 
ATOM      8  C   UNL     1       2.992   4.359  19.984  0.00  0.00    +0.000 A 
ATOM      9  C   UNL     1       2.195   5.259  20.660  0.00  0.00    +0.000 A 
ATOM     10  C   UNL     1       2.190   6.451  19.887  0.00  0.00    +0.000 A 
ATOM     11  C   UNL     1       1.607   7.725  20.004  0.00  0.00    +0.000 A 
ATOM     12  C   UNL     1       1.823   8.689  18.999  0.00  0.00    +0.000 A 
ATOM     13  C   UNL     1       2.617   8.361  17.888  0.00  0.00    +0.000 A 
ATOM     14  C   UNL     1       3.221   7.102  17.758  0.00  0.00    +0.000 A 
ATOM     15  C   UNL     1       2.980   6.187  18.778  0.00  0.00    +0.000 A 
ATOM     16  O   UNL     1       3.473   4.921  18.838  0.00  0.00    +0.000 OA
ENDBRANCH   1  12
BRANCH   4  17
ATOM     17  C   UNL     1       0.685  12.815  19.359  0.00  0.00    +0.000 C 
ATOM     18  C   UNL     1       1.488  13.914  18.652  0.00  0.00    +0.000 C 
ATOM     19  C   UNL     1       2.624  14.437  19.530  0.00  0.00    +0.000 C 
ATOM     20  C   UNL     1       2.162  15.178  20.786  0.00  0.00    +0.000 C 
ATOM     21  C   UNL     1       1.295  14.350  21.732  0.00  0.00    +0.000 C 
ATOM     22  N   UNL     1      -0.092  14.233  21.274  0.00  0.00    +0.000 N 
ATOM     23  C   UNL     1      -0.459  13.499  20.148  0.00  0.00    +0.000 C 
ATOM     24  O   UNL     1      -1.624  13.439  19.748  0.00  0.00    +0.000 OA
BRANCH  22  25
ATOM     25  C   UNL     1      -1.114  15.022  21.986  0.00  0.00    +0.000 C 
BRANCH  25  26
ATOM     26  C   UNL     1      -1.570  14.456  23.348  0.00  0.00    +0.000 C 
ATOM     27  O   UNL     1      -0.939  14.661  24.387  0.00  0.00    +0.000 OA
ATOM     28  N   UNL     1      -2.763  13.757  23.359  0.00  0.00    +0.000 N 
ATOM     29  C   UNL     1      -3.565  13.327  22.228  0.00  0.00    +0.000 C 
ATOM     30  C   UNL     1      -4.974  13.319  22.793  0.00  0.00    +0.000 C 
ATOM     31  C   UNL     1      -4.778  12.861  24.236  0.00  0.00    +0.000 C 
ATOM     32  C   UNL     1      -3.372  13.328  24.608  0.00  0.00    +0.000 C 
ENDBRANCH  25  26
ENDBRANCH  22  25
ENDBRANCH   4  17
BRANCH   3  33
ATOM     33  N   UNL     1      -1.796  10.037  17.384  0.00  0.00    +0.000 N 
ATOM     34  O   UNL     1      -2.611  10.744  17.999  0.00  0.00    +0.000 OA
ATOM     35  O   UNL     1      -1.975   9.703  16.204  0.00  0.00    +0.000 OA
ENDBRANCH   3  33
TORSDOF 5
ENDMDL
MODEL 8
REMARK VINA RESULT:      -8.7      4.296     11.307
REMARK  Name = 
REMARK  6 active torsions:
REMARK  status: ('A' for Active; 'I' for Inactive)
REMARK    1  A    between atoms: C_1  and  C_2
REMARK    2  A    between atoms: C_6  and  N_7
REMARK    3  A    between atoms: N_9  and  N_10
REMARK    4  A    between atoms: N_13  and  C_14
REMARK    5  A    between atoms: N_19  and  C_20
REMARK    6  A    between atoms: C_20  and  C_21
REMARK                            x       y       z     vdW  Elec       q    Type
REMARK                         _______ _______ _______ _____ _____    ______ ____
ROOT
ATOM      1  N   UNL     1       0.873  10.313  19.309  0.00  0.00    +0.000 N 
ATOM      2  C   UNL     1      -0.222  10.645  18.539  0.00  0.00    +0.000 C 
ATOM      3  N   UNL     1      -0.961   9.694  18.044  0.00  0.00    +0.000 NA
ATOM      4  N   UNL     1      -0.374  12.006  18.376  0.00  0.00    +0.000 N 
ATOM      5  H   UNL     1       1.028  10.854  20.145  0.00  0.00    +0.000 HD
ATOM      6  H   UNL     1      -1.105  12.304  17.714  0.00  0.00    +0.000 HD
ENDROOT
BRANCH   1  12
ATOM      7  C   UNL     1       4.593   4.130  17.554  0.00  0.00    +0.000 C 
ATOM      8  C   UNL     1       3.857   5.351  17.938  0.00  0.00    +0.000 A 
ATOM      9  C   UNL     1       3.649   6.571  17.329  0.00  0.00    +0.000 A 
ATOM     10  C   UNL     1       2.844   7.331  18.218  0.00  0.00    +0.000 A 
ATOM     11  C   UNL     1       2.271   8.616  18.210  0.00  0.00    +0.000 A 
ATOM     12  C   UNL     1       1.512   9.050  19.316  0.00  0.00    +0.000 A 
ATOM     13  C   UNL     1       1.340   8.193  20.415  0.00  0.00    +0.000 A 
ATOM     14  C   UNL     1       1.888   6.903  20.438  0.00  0.00    +0.000 A 
ATOM     15  C   UNL     1       2.627   6.520  19.322  0.00  0.00    +0.000 A 
ATOM     16  O   UNL     1       3.235   5.315  19.151  0.00  0.00    +0.000 OA
ENDBRANCH   1  12
BRANCH   4  17
ATOM     17  C   UNL     1       0.006  13.073  19.305  0.00  0.00    +0.000 C 
ATOM     18  C   UNL     1       0.509  14.311  18.550  0.00  0.00    +0.000 C 
ATOM     19  C   UNL     1       1.560  15.074  19.355  0.00  0.00    +0.000 C 
ATOM     20  C   UNL     1       1.031  15.713  20.640  0.00  0.00    +0.000 C 
ATOM     21  C   UNL     1       0.423  14.729  21.638  0.00  0.00    +0.000 C 
ATOM     22  N   UNL     1      -0.933  14.313  21.270  0.00  0.00    +0.000 N 
ATOM     23  C   UNL     1      -1.206  13.505  20.168  0.00  0.00    +0.000 C 
ATOM     24  O   UNL     1      -2.354  13.193  19.844  0.00  0.00    +0.000 OA
BRANCH  22  25
ATOM     25  C   UNL     1      -2.053  14.873  22.049  0.00  0.00    +0.000 C 
BRANCH  25  26
ATOM     26  C   UNL     1      -2.350  14.175  23.394  0.00  0.00    +0.000 C 
ATOM     27  O   UNL     1      -1.609  14.297  24.372  0.00  0.00    +0.000 OA
ATOM     28  N   UNL     1      -3.528  13.455  23.469  0.00  0.00    +0.000 N 
ATOM     29  C   UNL     1      -4.446  13.115  22.398  0.00  0.00    +0.000 C 
ATOM     30  C   UNL     1      -5.784  13.028  23.111  0.00  0.00    +0.000 C 
ATOM     31  C   UNL     1      -5.425  12.443  24.475  0.00  0.00    +0.000 C 
ATOM     32  C   UNL     1      -3.990  12.901  24.733  0.00  0.00    +0.000 C 
ENDBRANCH  25  26
ENDBRANCH  22  25
ENDBRANCH   4  17
BRANCH   3  33
ATOM     33  N   UNL     1      -2.073   9.965  17.358  0.00  0.00    +0.000 N 
ATOM     34  O   UNL     1      -2.062  10.021  16.117  0.00  0.00    +0.000 OA
ATOM     35  O   UNL     1      -3.112  10.130  18.014  0.00  0.00    +0.000 OA
ENDBRANCH   3  33
TORSDOF 5
ENDMDL
MODEL 9
REMARK VINA RESULT:      -8.7      4.779     11.158
REMARK  Name = 
REMARK  6 active torsions:
REMARK  status: ('A' for Active; 'I' for Inactive)
REMARK    1  A    between atoms: C_1  and  C_2
REMARK    2  A    between atoms: C_6  and  N_7
REMARK    3  A    between atoms: N_9  and  N_10
REMARK    4  A    between atoms: N_13  and  C_14
REMARK    5  A    between atoms: N_19  and  C_20
REMARK    6  A    between atoms: C_20  and  C_21
REMARK                            x       y       z     vdW  Elec       q    Type
REMARK                         _______ _______ _______ _____ _____    ______ ____
ROOT
ATOM      1  N   UNL     1       1.009  10.178  19.013  0.00  0.00    +0.000 N 
ATOM      2  C   UNL     1      -0.160  10.550  18.384  0.00  0.00    +0.000 C 
ATOM      3  N   UNL     1      -0.933   9.628  17.886  0.00  0.00    +0.000 NA
ATOM      4  N   UNL     1      -0.343  11.916  18.351  0.00  0.00    +0.000 N 
ATOM      5  H   UNL     1       1.240  10.651  19.872  0.00  0.00    +0.000 HD
ATOM      6  H   UNL     1      -1.139  12.253  17.791  0.00  0.00    +0.000 HD
ENDROOT
BRANCH   1  12
ATOM      7  C   UNL     1       3.795   3.354  19.921  0.00  0.00    +0.000 C 
ATOM      8  C   UNL     1       3.247   4.707  19.704  0.00  0.00    +0.000 A 
ATOM      9  C   UNL     1       2.359   5.500  20.402  0.00  0.00    +0.000 A 
ATOM     10  C   UNL     1       2.241   6.711  19.670  0.00  0.00    +0.000 A 
ATOM     11  C   UNL     1       1.534   7.917  19.823  0.00  0.00    +0.000 A 
ATOM     12  C   UNL     1       1.660   8.932  18.853  0.00  0.00    +0.000 A 
ATOM     13  C   UNL     1       2.491   8.722  17.740  0.00  0.00    +0.000 A 
ATOM     14  C   UNL     1       3.219   7.535  17.574  0.00  0.00    +0.000 A 
ATOM     15  C   UNL     1       3.062   6.566  18.561  0.00  0.00    +0.000 A 
ATOM     16  O   UNL     1       3.678   5.353  18.583  0.00  0.00    +0.000 OA
ENDBRANCH   1  12
BRANCH   4  17
ATOM     17  C   UNL     1       0.115  12.911  19.324  0.00  0.00    +0.000 C 
ATOM     18  C   UNL     1      -0.009  14.333  18.762  0.00  0.00    +0.000 C 
ATOM     19  C   UNL     1       1.069  15.258  19.326  0.00  0.00    +0.000 C 
ATOM     20  C   UNL     1       0.949  15.528  20.827  0.00  0.00    +0.000 C 
ATOM     21  C   UNL     1       1.015  14.280  21.706  0.00  0.00    +0.000 C 
ATOM     22  N   UNL     1      -0.245  13.533  21.725  0.00  0.00    +0.000 N 
ATOM     23  C   UNL     1      -0.732  12.839  20.620  0.00  0.00    +0.000 C 
ATOM     24  O   UNL     1      -1.813  12.245  20.634  0.00  0.00    +0.000 OA
BRANCH  22  25
ATOM     25  C   UNL     1      -1.072  13.621  22.943  0.00  0.00    +0.000 C 
BRANCH  25  26
ATOM     26  C   UNL     1      -2.148  14.728  22.945  0.00  0.00    +0.000 C 
ATOM     27  O   UNL     1      -1.859  15.923  22.841  0.00  0.00    +0.000 OA
ATOM     28  N   UNL     1      -3.465  14.310  23.006  0.00  0.00    +0.000 N 
ATOM     29  C   UNL     1      -3.975  12.972  23.246  0.00  0.00    +0.000 C 
ATOM     30  C   UNL     1      -5.294  12.971  22.495  0.00  0.00    +0.000 C 
ATOM     31  C   UNL     1      -5.814  14.394  22.684  0.00  0.00    +0.000 C 
ATOM     32  C   UNL     1      -4.561  15.252  22.843  0.00  0.00    +0.000 C 
ENDBRANCH  25  26
ENDBRANCH  22  25
ENDBRANCH   4  17
BRANCH   3  33
ATOM     33  N   UNL     1      -2.110   9.933  17.336  0.00  0.00    +0.000 N 
ATOM     34  O   UNL     1      -3.173   9.516  17.826  0.00  0.00    +0.000 OA
ATOM     35  O   UNL     1      -2.090  10.667  16.337  0.00  0.00    +0.000 OA
ENDBRANCH   3  33
TORSDOF 5
ENDMDL
