MODEL 1
REMARK VINA RESULT:      -7.4      0.000      0.000
REMARK  Name = 
REMARK  12 active torsions:
REMARK  status: ('A' for Active; 'I' for Inactive)
REMARK    1  A    between atoms: C_1  and  N_2
REMARK    2  A    between atoms: N_2  and  C_3
REMARK    3  A    between atoms: N_2  and  C_4
REMARK    4  A    between atoms: C_4  and  C_5
REMARK    5  A    between atoms: C_5  and  N_6
REMARK    6  A    between atoms: N_6  and  C_7
REMARK    7  A    between atoms: N_14  and  C_15
REMARK    8  A    between atoms: C_22  and  O_23
REMARK    9  A    between atoms: O_23  and  C_24
REMARK   10  A    between atoms: C_24  and  C_25
REMARK   11  A    between atoms: C_25  and  N_26
REMARK   12  A    between atoms: N_26  and  C_27
REMARK                            x       y       z     vdW  Elec       q    Type
REMARK                         _______ _______ _______ _____ _____    ______ ____
ROOT
ATOM      1  C   UNL     1       2.438   6.194  20.255  0.00  0.00    +0.000 A 
ATOM      2  C   UNL     1       3.157   6.270  19.035  0.00  0.00    +0.000 A 
ATOM      3  C   UNL     1       3.941   5.174  18.609  0.00  0.00    +0.000 A 
ATOM      4  C   UNL     1       4.638   5.176  17.403  0.00  0.00    +0.000 A 
ATOM      5  C   UNL     1       4.567   6.280  16.579  0.00  0.00    +0.000 A 
ATOM      6  C   UNL     1       3.803   7.384  16.965  0.00  0.00    +0.000 A 
ATOM      7  C   UNL     1       3.084   7.416  18.182  0.00  0.00    +0.000 A 
ATOM      8  N   UNL     1       2.313   8.487  18.547  0.00  0.00    +0.000 N 
ATOM      9  C   UNL     1       2.150   9.689  17.710  0.00  0.00    +0.000 C 
ATOM     10  C   UNL     1       1.620   8.463  19.768  0.00  0.00    +0.000 A 
ATOM     11  C   UNL     1       1.705   7.336  20.567  0.00  0.00    +0.000 A 
ATOM     12  O   UNL     1       0.969   7.520  21.702  0.00  0.00    +0.000 OA
ATOM     13  C   UNL     1       0.410   8.749  21.642  0.00  0.00    +0.000 A 
ATOM     14  C   UNL     1      -0.410   9.302  22.621  0.00  0.00    +0.000 A 
ATOM     15  C   UNL     1      -0.909  10.589  22.382  0.00  0.00    +0.000 A 
ATOM     16  C   UNL     1      -0.588  11.275  21.211  0.00  0.00    +0.000 A 
ATOM     17  C   UNL     1       0.229  10.674  20.234  0.00  0.00    +0.000 A 
ATOM     18  C   UNL     1       0.758   9.384  20.458  0.00  0.00    +0.000 A 
ENDROOT
BRANCH   1  19
ATOM     19  N   UNL     1       2.420   5.013  20.993  0.00  0.00    +0.000 N 
ATOM     20  H   UNL     1       2.803   5.051  21.939  0.00  0.00    +0.000 HD
BRANCH  19  21
ATOM     21  C   UNL     1       1.349   4.026  20.882  0.00  0.00    +0.000 C 
BRANCH  21  22
ATOM     22  C   UNL     1       1.965   2.612  20.774  0.00  0.00    +0.000 C 
BRANCH  22  24
ATOM     23  C   UNL     1       1.020   2.803  18.534  0.00  0.00    +0.000 C 
ATOM     24  N   UNL     1       1.818   1.975  19.444  0.00  0.00    +0.000 NA
ATOM     25  C   UNL     1       3.153   1.773  18.861  0.00  0.00    +0.000 C 
ENDBRANCH  22  24
ENDBRANCH  21  22
ENDBRANCH  19  21
ENDBRANCH   1  19
BRANCH  16  26
ATOM     26  O   UNL     1      -1.045  12.521  20.867  0.00  0.00    +0.000 OA
BRANCH  26  27
ATOM     27  C   UNL     1      -0.793  12.962  19.532  0.00  0.00    +0.000 C 
BRANCH  27  28
ATOM     28  C   UNL     1      -0.425  14.461  19.535  0.00  0.00    +0.000 C 
BRANCH  28  29
ATOM     29  N   UNL     1       1.109  14.767  19.491  0.00  0.00    +0.000 N 
ATOM     30  C   UNL     1       1.684  14.797  20.902  0.00  0.00    +0.000 C 
ATOM     31  C   UNL     1       1.779  13.616  18.668  0.00  0.00    +0.000 C 
ATOM     32  C   UNL     1       3.234  13.938  18.309  0.00  0.00    +0.000 C 
ATOM     33  O   UNL     1       3.322  15.169  17.588  0.00  0.00    +0.000 OA
ATOM     34  C   UNL     1       2.859  16.268  18.373  0.00  0.00    +0.000 C 
ATOM     35  C   UNL     1       1.380  16.100  18.745  0.00  0.00    +0.000 C 
ENDBRANCH  28  29
ENDBRANCH  27  28
ENDBRANCH  26  27
ENDBRANCH  16  26
TORSDOF 8
ENDMDL
MODEL 2
REMARK VINA RESULT:      -7.4      2.764      4.323
REMARK  Name = 
REMARK  12 active torsions:
REMARK  status: ('A' for Active; 'I' for Inactive)
REMARK    1  A    between atoms: C_1  and  N_2
REMARK    2  A    between atoms: N_2  and  C_3
REMARK    3  A    between atoms: N_2  and  C_4
REMARK    4  A    between atoms: C_4  and  C_5
REMARK    5  A    between atoms: C_5  and  N_6
REMARK    6  A    between atoms: N_6  and  C_7
REMARK    7  A    between atoms: N_14  and  C_15
REMARK    8  A    between atoms: C_22  and  O_23
REMARK    9  A    between atoms: O_23  and  C_24
REMARK   10  A    between atoms: C_24  and  C_25
REMARK   11  A    between atoms: C_25  and  N_26
REMARK   12  A    between atoms: N_26  and  C_27
REMARK                            x       y       z     vdW  Elec       q    Type
REMARK                         _______ _______ _______ _____ _____    ______ ____
ROOT
ATOM      1  C   UNL     1       2.326   6.372  20.322  0.00  0.00    +0.000 A 
ATOM      2  C   UNL     1       3.021   6.483  19.091  0.00  0.00    +0.000 A 
ATOM      3  C   UNL     1       3.804   5.403  18.623  0.00  0.00    +0.000 A 
ATOM      4  C   UNL     1       4.477   5.440  17.405  0.00  0.00    +0.000 A 
ATOM      5  C   UNL     1       4.385   6.563  16.611  0.00  0.00    +0.000 A 
ATOM      6  C   UNL     1       3.622   7.653  17.038  0.00  0.00    +0.000 A 
ATOM      7  C   UNL     1       2.925   7.650  18.269  0.00  0.00    +0.000 A 
ATOM      8  N   UNL     1       2.155   8.706  18.675  0.00  0.00    +0.000 N 
ATOM      9  C   UNL     1       1.970   9.928  17.872  0.00  0.00    +0.000 C 
ATOM     10  C   UNL     1       1.486   8.647  19.908  0.00  0.00    +0.000 A 
ATOM     11  C   UNL     1       1.592   7.501  20.676  0.00  0.00    +0.000 A 
ATOM     12  O   UNL     1       0.877   7.652  21.829  0.00  0.00    +0.000 OA
ATOM     13  C   UNL     1       0.310   8.879  21.811  0.00  0.00    +0.000 A 
ATOM     14  C   UNL     1      -0.495   9.401  22.819  0.00  0.00    +0.000 A 
ATOM     15  C   UNL     1      -1.006  10.691  22.621  0.00  0.00    +0.000 A 
ATOM     16  C   UNL     1      -0.711  11.408  21.462  0.00  0.00    +0.000 A 
ATOM     17  C   UNL     1       0.090  10.837  20.456  0.00  0.00    +0.000 A 
ATOM     18  C   UNL     1       0.631   9.545  20.637  0.00  0.00    +0.000 A 
ENDROOT
BRANCH   1  19
ATOM     19  N   UNL     1       2.328   5.173  21.030  0.00  0.00    +0.000 N 
ATOM     20  H   UNL     1       2.603   5.215  22.014  0.00  0.00    +0.000 HD
BRANCH  19  21
ATOM     21  C   UNL     1       1.363   4.105  20.783  0.00  0.00    +0.000 C 
BRANCH  21  22
ATOM     22  C   UNL     1       2.099   2.745  20.760  0.00  0.00    +0.000 C 
BRANCH  22  24
ATOM     23  C   UNL     1       0.803   2.517  18.707  0.00  0.00    +0.000 C 
ATOM     24  N   UNL     1       1.855   1.933  19.545  0.00  0.00    +0.000 NA
ATOM     25  C   UNL     1       3.100   1.855  18.764  0.00  0.00    +0.000 C 
ENDBRANCH  22  24
ENDBRANCH  21  22
ENDBRANCH  19  21
ENDBRANCH   1  19
BRANCH  16  26
ATOM     26  O   UNL     1      -1.182  12.659  21.159  0.00  0.00    +0.000 OA
BRANCH  26  27
ATOM     27  C   UNL     1      -2.595  12.804  21.000  0.00  0.00    +0.000 C 
BRANCH  27  28
ATOM     28  C   UNL     1      -3.169  13.660  22.148  0.00  0.00    +0.000 C 
BRANCH  28  29
ATOM     29  N   UNL     1      -4.729  13.653  22.265  0.00  0.00    +0.000 N 
ATOM     30  C   UNL     1      -5.292  15.032  21.946  0.00  0.00    +0.000 C 
ATOM     31  C   UNL     1      -5.258  12.609  21.226  0.00  0.00    +0.000 C 
ATOM     32  C   UNL     1      -6.745  12.296  21.431  0.00  0.00    +0.000 C 
ATOM     33  O   UNL     1      -6.990  11.829  22.759  0.00  0.00    +0.000 OA
ATOM     34  C   UNL     1      -6.660  12.822  23.730  0.00  0.00    +0.000 C 
ATOM     35  C   UNL     1      -5.169  13.179  23.676  0.00  0.00    +0.000 C 
ENDBRANCH  28  29
ENDBRANCH  27  28
ENDBRANCH  26  27
ENDBRANCH  16  26
TORSDOF 8
ENDMDL
MODEL 3
REMARK VINA RESULT:      -7.3      2.515      9.341
REMARK  Name = 
REMARK  12 active torsions:
REMARK  status: ('A' for Active; 'I' for Inactive)
REMARK    1  A    between atoms: C_1  and  N_2
REMARK    2  A    between atoms: N_2  and  C_3
REMARK    3  A    between atoms: N_2  and  C_4
REMARK    4  A    between atoms: C_4  and  C_5
REMARK    5  A    between atoms: C_5  and  N_6
REMARK    6  A    between atoms: N_6  and  C_7
REMARK    7  A    between atoms: N_14  and  C_15
REMARK    8  A    between atoms: C_22  and  O_23
REMARK    9  A    between atoms: O_23  and  C_24
REMARK   10  A    between atoms: C_24  and  C_25
REMARK   11  A    between atoms: C_25  and  N_26
REMARK   12  A    between atoms: N_26  and  C_27
REMARK                            x       y       z     vdW  Elec       q    Type
REMARK                         _______ _______ _______ _____ _____    ______ ____
ROOT
ATOM      1  C   UNL     1      -0.698  13.079  19.925  0.00  0.00    +0.000 A 
ATOM      2  C   UNL     1      -1.292  13.242  21.202  0.00  0.00    +0.000 A 
ATOM      3  C   UNL     1      -1.989  14.433  21.509  0.00  0.00    +0.000 A 
ATOM      4  C   UNL     1      -2.625  14.635  22.731  0.00  0.00    +0.000 A 
ATOM      5  C   UNL     1      -2.587  13.643  23.689  0.00  0.00    +0.000 A 
ATOM      6  C   UNL     1      -1.908  12.451  23.425  0.00  0.00    +0.000 A 
ATOM      7  C   UNL     1      -1.251  12.213  22.195  0.00  0.00    +0.000 A 
ATOM      8  N   UNL     1      -0.610  11.034  21.926  0.00  0.00    +0.000 N 
ATOM      9  C   UNL     1      -0.554   9.909  22.875  0.00  0.00    +0.000 C 
ATOM     10  C   UNL     1       0.026  10.854  20.687  0.00  0.00    +0.000 A 
ATOM     11  C   UNL     1      -0.040  11.865  19.745  0.00  0.00    +0.000 A 
ATOM     12  O   UNL     1       0.642  11.493  18.622  0.00  0.00    +0.000 OA
ATOM     13  C   UNL     1       1.144  10.255  18.829  0.00  0.00    +0.000 A 
ATOM     14  C   UNL     1       1.904   9.537  17.911  0.00  0.00    +0.000 A 
ATOM     15  C   UNL     1       2.330   8.259  18.298  0.00  0.00    +0.000 A 
ATOM     16  C   UNL     1       2.000   7.743  19.550  0.00  0.00    +0.000 A 
ATOM     17  C   UNL     1       1.211   8.492  20.444  0.00  0.00    +0.000 A 
ATOM     18  C   UNL     1       0.783   9.789  20.086  0.00  0.00    +0.000 A 
ENDROOT
BRANCH   1  19
ATOM     19  N   UNL     1      -0.875  14.041  18.934  0.00  0.00    +0.000 N 
ATOM     20  H   UNL     1      -1.825  14.180  18.587  0.00  0.00    +0.000 HD
BRANCH  19  21
ATOM     21  C   UNL     1      -0.092  15.272  18.876  0.00  0.00    +0.000 C 
BRANCH  21  22
ATOM     22  C   UNL     1       1.406  14.921  18.717  0.00  0.00    +0.000 C 
BRANCH  22  24
ATOM     23  C   UNL     1       3.227  14.827  20.336  0.00  0.00    +0.000 C 
ATOM     24  N   UNL     1       2.318  15.701  19.587  0.00  0.00    +0.000 NA
ATOM     25  C   UNL     1       3.113  16.613  18.750  0.00  0.00    +0.000 C 
ENDBRANCH  22  24
ENDBRANCH  21  22
ENDBRANCH  19  21
ENDBRANCH   1  19
BRANCH  16  26
ATOM     26  O   UNL     1       2.339   6.498  20.012  0.00  0.00    +0.000 OA
BRANCH  26  27
ATOM     27  C   UNL     1       2.803   5.549  19.050  0.00  0.00    +0.000 C 
BRANCH  27  28
ATOM     28  C   UNL     1       4.333   5.383  19.172  0.00  0.00    +0.000 C 
BRANCH  28  29
ATOM     29  N   UNL     1       5.052   4.892  17.872  0.00  0.00    +0.000 N 
ATOM     30  C   UNL     1       4.419   3.600  17.370  0.00  0.00    +0.000 C 
ATOM     31  C   UNL     1       4.876   6.021  16.802  0.00  0.00    +0.000 C 
ATOM     32  C   UNL     1       5.770   5.796  15.576  0.00  0.00    +0.000 C 
ATOM     33  O   UNL     1       7.144   5.694  15.958  0.00  0.00    +0.000 OA
ATOM     34  C   UNL     1       7.365   4.576  16.817  0.00  0.00    +0.000 C 
ATOM     35  C   UNL     1       6.573   4.712  18.123  0.00  0.00    +0.000 C 
ENDBRANCH  28  29
ENDBRANCH  27  28
ENDBRANCH  26  27
ENDBRANCH  16  26
TORSDOF 8
ENDMDL
MODEL 4
REMARK VINA RESULT:      -7.2      2.673      9.192
REMARK  Name = 
REMARK  12 active torsions:
REMARK  status: ('A' for Active; 'I' for Inactive)
REMARK    1  A    between atoms: C_1  and  N_2
REMARK    2  A    between atoms: N_2  and  C_3
REMARK    3  A    between atoms: N_2  and  C_4
REMARK    4  A    between atoms: C_4  and  C_5
REMARK    5  A    between atoms: C_5  and  N_6
REMARK    6  A    between atoms: N_6  and  C_7
REMARK    7  A    between atoms: N_14  and  C_15
REMARK    8  A    between atoms: C_22  and  O_23
REMARK    9  A    between atoms: O_23  and  C_24
REMARK   10  A    between atoms: C_24  and  C_25
REMARK   11  A    between atoms: C_25  and  N_26
REMARK   12  A    between atoms: N_26  and  C_27
REMARK                            x       y       z     vdW  Elec       q    Type
REMARK                         _______ _______ _______ _____ _____    ______ ____
ROOT
ATOM      1  C   UNL     1      -0.682  11.640  19.536  0.00  0.00    +0.000 A 
ATOM      2  C   UNL     1      -1.173  11.765  20.861  0.00  0.00    +0.000 A 
ATOM      3  C   UNL     1      -2.074  12.805  21.184  0.00  0.00    +0.000 A 
ATOM      4  C   UNL     1      -2.619  12.955  22.456  0.00  0.00    +0.000 A 
ATOM      5  C   UNL     1      -2.281  12.061  23.450  0.00  0.00    +0.000 A 
ATOM      6  C   UNL     1      -1.393  11.019  23.171  0.00  0.00    +0.000 A 
ATOM      7  C   UNL     1      -0.821  10.837  21.890  0.00  0.00    +0.000 A 
ATOM      8  N   UNL     1       0.027   9.800  21.610  0.00  0.00    +0.000 N 
ATOM      9  C   UNL     1       0.410   8.777  22.600  0.00  0.00    +0.000 C 
ATOM     10  C   UNL     1       0.565   9.669  20.320  0.00  0.00    +0.000 A 
ATOM     11  C   UNL     1       0.198  10.578  19.343  0.00  0.00    +0.000 A 
ATOM     12  O   UNL     1       0.833  10.279  18.173  0.00  0.00    +0.000 OA
ATOM     13  C   UNL     1       1.603   9.187  18.383  0.00  0.00    +0.000 A 
ATOM     14  C   UNL     1       2.407   8.580  17.423  0.00  0.00    +0.000 A 
ATOM     15  C   UNL     1       3.128   7.447  17.822  0.00  0.00    +0.000 A 
ATOM     16  C   UNL     1       3.036   6.960  19.125  0.00  0.00    +0.000 A 
ATOM     17  C   UNL     1       2.195   7.591  20.062  0.00  0.00    +0.000 A 
ATOM     18  C   UNL     1       1.470   8.744  19.692  0.00  0.00    +0.000 A 
ENDROOT
BRANCH   1  19
ATOM     19  N   UNL     1      -1.152  12.475  18.526  0.00  0.00    +0.000 N 
ATOM     20  H   UNL     1      -0.525  13.215  18.205  0.00  0.00    +0.000 HD
BRANCH  19  21
ATOM     21  C   UNL     1      -2.028  12.007  17.454  0.00  0.00    +0.000 C 
BRANCH  21  22
ATOM     22  C   UNL     1      -3.215  11.229  18.066  0.00  0.00    +0.000 C 
BRANCH  22  24
ATOM     23  C   UNL     1      -5.276  12.034  17.042  0.00  0.00    +0.000 C 
ATOM     24  N   UNL     1      -4.313  10.931  17.116  0.00  0.00    +0.000 NA
ATOM     25  C   UNL     1      -3.741  10.705  15.779  0.00  0.00    +0.000 C 
ENDBRANCH  22  24
ENDBRANCH  21  22
ENDBRANCH  19  21
ENDBRANCH   1  19
BRANCH  16  26
ATOM     26  O   UNL     1       3.673   5.847  19.607  0.00  0.00    +0.000 OA
BRANCH  26  27
ATOM     27  C   UNL     1       4.535   5.147  18.706  0.00  0.00    +0.000 C 
BRANCH  27  28
ATOM     28  C   UNL     1       4.739   3.698  19.193  0.00  0.00    +0.000 C 
BRANCH  28  29
ATOM     29  N   UNL     1       3.443   2.822  19.233  0.00  0.00    +0.000 N 
ATOM     30  C   UNL     1       3.776   1.367  18.926  0.00  0.00    +0.000 C 
ATOM     31  C   UNL     1       2.858   2.941  20.680  0.00  0.00    +0.000 C 
ATOM     32  C   UNL     1       1.442   2.363  20.777  0.00  0.00    +0.000 C 
ATOM     33  O   UNL     1       0.566   2.998  19.843  0.00  0.00    +0.000 OA
ATOM     34  C   UNL     1       0.989   2.777  18.498  0.00  0.00    +0.000 C 
ATOM     35  C   UNL     1       2.379   3.375  18.247  0.00  0.00    +0.000 C 
ENDBRANCH  28  29
ENDBRANCH  27  28
ENDBRANCH  26  27
ENDBRANCH  16  26
TORSDOF 8
ENDMDL
MODEL 5
REMARK VINA RESULT:      -7.2      2.584      9.266
REMARK  Name = 
REMARK  12 active torsions:
REMARK  status: ('A' for Active; 'I' for Inactive)
REMARK    1  A    between atoms: C_1  and  N_2
REMARK    2  A    between atoms: N_2  and  C_3
REMARK    3  A    between atoms: N_2  and  C_4
REMARK    4  A    between atoms: C_4  and  C_5
REMARK    5  A    between atoms: C_5  and  N_6
REMARK    6  A    between atoms: N_6  and  C_7
REMARK    7  A    between atoms: N_14  and  C_15
REMARK    8  A    between atoms: C_22  and  O_23
REMARK    9  A    between atoms: O_23  and  C_24
REMARK   10  A    between atoms: C_24  and  C_25
REMARK   11  A    between atoms: C_25  and  N_26
REMARK   12  A    between atoms: N_26  and  C_27
REMARK                            x       y       z     vdW  Elec       q    Type
REMARK                         _______ _______ _______ _____ _____    ______ ____
ROOT
ATOM      1  C   UNL     1      -0.925  12.344  19.783  0.00  0.00    +0.000 A 
ATOM      2  C   UNL     1      -1.516  12.484  21.065  0.00  0.00    +0.000 A 
ATOM      3  C   UNL     1      -2.329  13.605  21.349  0.00  0.00    +0.000 A 
ATOM      4  C   UNL     1      -2.966  13.777  22.575  0.00  0.00    +0.000 A 
ATOM      5  C   UNL     1      -2.812  12.824  23.560  0.00  0.00    +0.000 A 
ATOM      6  C   UNL     1      -2.016  11.702  23.319  0.00  0.00    +0.000 A 
ATOM      7  C   UNL     1      -1.355  11.496  22.086  0.00  0.00    +0.000 A 
ATOM      8  N   UNL     1      -0.598  10.382  21.840  0.00  0.00    +0.000 N 
ATOM      9  C   UNL     1      -0.412   9.297  22.821  0.00  0.00    +0.000 C 
ATOM     10  C   UNL     1       0.036  10.230  20.596  0.00  0.00    +0.000 A 
ATOM     11  C   UNL     1      -0.147  11.200  19.627  0.00  0.00    +0.000 A 
ATOM     12  O   UNL     1       0.555  10.867  18.504  0.00  0.00    +0.000 OA
ATOM     13  C   UNL     1       1.185   9.694  18.739  0.00  0.00    +0.000 A 
ATOM     14  C   UNL     1       2.003   9.031  17.829  0.00  0.00    +0.000 A 
ATOM     15  C   UNL     1       2.564   7.817  18.245  0.00  0.00    +0.000 A 
ATOM     16  C   UNL     1       2.307   7.307  19.517  0.00  0.00    +0.000 A 
ATOM     17  C   UNL     1       1.457   7.997  20.402  0.00  0.00    +0.000 A 
ATOM     18  C   UNL     1       0.891   9.232  20.014  0.00  0.00    +0.000 A 
ENDROOT
BRANCH   1  19
ATOM     19  N   UNL     1      -1.215  13.252  18.768  0.00  0.00    +0.000 N 
ATOM     20  H   UNL     1      -2.146  13.673  18.773  0.00  0.00    +0.000 HD
BRANCH  19  21
ATOM     21  C   UNL     1      -0.215  14.156  18.204  0.00  0.00    +0.000 C 
BRANCH  21  22
ATOM     22  C   UNL     1       0.183  15.207  19.266  0.00  0.00    +0.000 C 
BRANCH  22  24
ATOM     23  C   UNL     1       2.063  16.472  18.365  0.00  0.00    +0.000 C 
ATOM     24  N   UNL     1       1.638  15.475  19.353  0.00  0.00    +0.000 NA
ATOM     25  C   UNL     1       1.952  15.973  20.701  0.00  0.00    +0.000 C 
ENDBRANCH  22  24
ENDBRANCH  21  22
ENDBRANCH  19  21
ENDBRANCH   1  19
BRANCH  16  26
ATOM     26  O   UNL     1       2.780   6.119  20.009  0.00  0.00    +0.000 OA
BRANCH  26  27
ATOM     27  C   UNL     1       3.442   5.249  19.089  0.00  0.00    +0.000 C 
BRANCH  27  28
ATOM     28  C   UNL     1       4.961   5.522  19.108  0.00  0.00    +0.000 C 
BRANCH  28  29
ATOM     29  N   UNL     1       5.637   5.608  17.700  0.00  0.00    +0.000 N 
ATOM     30  C   UNL     1       6.141   7.022  17.439  0.00  0.00    +0.000 C 
ATOM     31  C   UNL     1       6.841   4.608  17.712  0.00  0.00    +0.000 C 
ATOM     32  C   UNL     1       7.416   4.384  16.308  0.00  0.00    +0.000 C 
ATOM     33  O   UNL     1       6.406   3.921  15.410  0.00  0.00    +0.000 OA
ATOM     34  C   UNL     1       5.362   4.883  15.258  0.00  0.00    +0.000 C 
ATOM     35  C   UNL     1       4.653   5.149  16.592  0.00  0.00    +0.000 C 
ENDBRANCH  28  29
ENDBRANCH  27  28
ENDBRANCH  26  27
ENDBRANCH  16  26
TORSDOF 8
ENDMDL
MODEL 6
REMARK VINA RESULT:      -7.2      0.689      1.111
REMARK  Name = 
REMARK  12 active torsions:
REMARK  status: ('A' for Active; 'I' for Inactive)
REMARK    1  A    between atoms: C_1  and  N_2
REMARK    2  A    between atoms: N_2  and  C_3
REMARK    3  A    between atoms: N_2  and  C_4
REMARK    4  A    between atoms: C_4  and  C_5
REMARK    5  A    between atoms: C_5  and  N_6
REMARK    6  A    between atoms: N_6  and  C_7
REMARK    7  A    between atoms: N_14  and  C_15
REMARK    8  A    between atoms: C_22  and  O_23
REMARK    9  A    between atoms: O_23  and  C_24
REMARK   10  A    between atoms: C_24  and  C_25
REMARK   11  A    between atoms: C_25  and  N_26
REMARK   12  A    between atoms: N_26  and  C_27
REMARK                            x       y       z     vdW  Elec       q    Type
REMARK                         _______ _______ _______ _____ _____    ______ ____
ROOT
ATOM      1  C   UNL     1       2.332   6.329  20.329  0.00  0.00    +0.000 A 
ATOM      2  C   UNL     1       3.044   6.407  19.104  0.00  0.00    +0.000 A 
ATOM      3  C   UNL     1       3.815   5.308  18.665  0.00  0.00    +0.000 A 
ATOM      4  C   UNL     1       4.504   5.312  17.454  0.00  0.00    +0.000 A 
ATOM      5  C   UNL     1       4.437   6.422  16.639  0.00  0.00    +0.000 A 
ATOM      6  C   UNL     1       3.686   7.530  17.038  0.00  0.00    +0.000 A 
ATOM      7  C   UNL     1       2.975   7.560  18.260  0.00  0.00    +0.000 A 
ATOM      8  N   UNL     1       2.216   8.634  18.638  0.00  0.00    +0.000 N 
ATOM      9  C   UNL     1       2.058   9.844  17.811  0.00  0.00    +0.000 C 
ATOM     10  C   UNL     1       1.531   8.608  19.864  0.00  0.00    +0.000 A 
ATOM     11  C   UNL     1       1.611   7.474  20.653  0.00  0.00    +0.000 A 
ATOM     12  O   UNL     1       0.885   7.656  21.794  0.00  0.00    +0.000 OA
ATOM     13  C   UNL     1       0.336   8.891  21.748  0.00  0.00    +0.000 A 
ATOM     14  C   UNL     1      -0.473   9.444  22.736  0.00  0.00    +0.000 A 
ATOM     15  C   UNL     1      -0.962  10.737  22.509  0.00  0.00    +0.000 A 
ATOM     16  C   UNL     1      -0.643  11.429  21.342  0.00  0.00    +0.000 A 
ATOM     17  C   UNL     1       0.162  10.828  20.355  0.00  0.00    +0.000 A 
ATOM     18  C   UNL     1       0.682   9.532  20.566  0.00  0.00    +0.000 A 
ENDROOT
BRANCH   1  19
ATOM     19  N   UNL     1       2.308   5.143  21.058  0.00  0.00    +0.000 N 
ATOM     20  H   UNL     1       2.549   5.202  22.049  0.00  0.00    +0.000 HD
BRANCH  19  21
ATOM     21  C   UNL     1       1.351   4.071  20.797  0.00  0.00    +0.000 C 
BRANCH  21  22
ATOM     22  C   UNL     1       2.100   2.721  20.722  0.00  0.00    +0.000 C 
BRANCH  22  24
ATOM     23  C   UNL     1       0.834   2.586  18.643  0.00  0.00    +0.000 C 
ATOM     24  N   UNL     1       1.831   1.932  19.497  0.00  0.00    +0.000 NA
ATOM     25  C   UNL     1       3.084   1.782  18.740  0.00  0.00    +0.000 C 
ENDBRANCH  22  24
ENDBRANCH  21  22
ENDBRANCH  19  21
ENDBRANCH   1  19
BRANCH  16  26
ATOM     26  O   UNL     1      -1.091  12.681  21.010  0.00  0.00    +0.000 OA
BRANCH  26  27
ATOM     27  C   UNL     1      -0.426  13.349  19.936  0.00  0.00    +0.000 C 
BRANCH  27  28
ATOM     28  C   UNL     1       0.363  14.559  20.479  0.00  0.00    +0.000 C 
BRANCH  28  29
ATOM     29  N   UNL     1       1.526  15.059  19.560  0.00  0.00    +0.000 N 
ATOM     30  C   UNL     1       1.979  13.946  18.624  0.00  0.00    +0.000 C 
ATOM     31  C   UNL     1       0.963  16.259  18.727  0.00  0.00    +0.000 C 
ATOM     32  C   UNL     1       2.074  17.021  17.994  0.00  0.00    +0.000 C 
ATOM     33  O   UNL     1       3.065  17.487  18.912  0.00  0.00    +0.000 OA
ATOM     34  C   UNL     1       3.708  16.402  19.581  0.00  0.00    +0.000 C 
ATOM     35  C   UNL     1       2.708  15.591  20.414  0.00  0.00    +0.000 C 
ENDBRANCH  28  29
ENDBRANCH  27  28
ENDBRANCH  26  27
ENDBRANCH  16  26
TORSDOF 8
ENDMDL
MODEL 7
REMARK VINA RESULT:      -7.1      2.769      4.192
REMARK  Name = 
REMARK  12 active torsions:
REMARK  status: ('A' for Active; 'I' for Inactive)
REMARK    1  A    between atoms: C_1  and  N_2
REMARK    2  A    between atoms: N_2  and  C_3
REMARK    3  A    between atoms: N_2  and  C_4
REMARK    4  A    between atoms: C_4  and  C_5
REMARK    5  A    between atoms: C_5  and  N_6
REMARK    6  A    between atoms: N_6  and  C_7
REMARK    7  A    between atoms: N_14  and  C_15
REMARK    8  A    between atoms: C_22  and  O_23
REMARK    9  A    between atoms: O_23  and  C_24
REMARK   10  A    between atoms: C_24  and  C_25
REMARK   11  A    between atoms: C_25  and  N_26
REMARK   12  A    between atoms: N_26  and  C_27
REMARK                            x       y       z     vdW  Elec       q    Type
REMARK                         _______ _______ _______ _____ _____    ______ ____
ROOT
ATOM      1  C   UNL     1       2.466   6.198  20.245  0.00  0.00    +0.000 A 
ATOM      2  C   UNL     1       3.184   6.281  19.024  0.00  0.00    +0.000 A 
ATOM      3  C   UNL     1       3.983   5.195  18.600  0.00  0.00    +0.000 A 
ATOM      4  C   UNL     1       4.679   5.204  17.394  0.00  0.00    +0.000 A 
ATOM      5  C   UNL     1       4.592   6.305  16.568  0.00  0.00    +0.000 A 
ATOM      6  C   UNL     1       3.813   7.399  16.951  0.00  0.00    +0.000 A 
ATOM      7  C   UNL     1       3.094   7.424  18.169  0.00  0.00    +0.000 A 
ATOM      8  N   UNL     1       2.308   8.484  18.532  0.00  0.00    +0.000 N 
ATOM      9  C   UNL     1       2.128   9.682  17.692  0.00  0.00    +0.000 C 
ATOM     10  C   UNL     1       1.616   8.454  19.753  0.00  0.00    +0.000 A 
ATOM     11  C   UNL     1       1.717   7.330  20.554  0.00  0.00    +0.000 A 
ATOM     12  O   UNL     1       0.979   7.505  21.689  0.00  0.00    +0.000 OA
ATOM     13  C   UNL     1       0.403   8.727  21.627  0.00  0.00    +0.000 A 
ATOM     14  C   UNL     1      -0.425   9.270  22.605  0.00  0.00    +0.000 A 
ATOM     15  C   UNL     1      -0.942  10.549  22.363  0.00  0.00    +0.000 A 
ATOM     16  C   UNL     1      -0.632  11.237  21.190  0.00  0.00    +0.000 A 
ATOM     17  C   UNL     1       0.193  10.646  20.215  0.00  0.00    +0.000 A 
ATOM     18  C   UNL     1       0.741   9.364  20.441  0.00  0.00    +0.000 A 
ENDROOT
BRANCH   1  19
ATOM     19  N   UNL     1       2.464   5.018  20.985  0.00  0.00    +0.000 N 
ATOM     20  H   UNL     1       2.848   5.063  21.931  0.00  0.00    +0.000 HD
BRANCH  19  21
ATOM     21  C   UNL     1       1.407   4.016  20.878  0.00  0.00    +0.000 C 
BRANCH  21  22
ATOM     22  C   UNL     1       2.043   2.616  20.712  0.00  0.00    +0.000 C 
BRANCH  22  24
ATOM     23  C   UNL     1       1.051   2.868  18.498  0.00  0.00    +0.000 C 
ATOM     24  N   UNL     1       1.842   2.002  19.379  0.00  0.00    +0.000 NA
ATOM     25  C   UNL     1       3.155   1.763  18.760  0.00  0.00    +0.000 C 
ENDBRANCH  22  24
ENDBRANCH  21  22
ENDBRANCH  19  21
ENDBRANCH   1  19
BRANCH  16  26
ATOM     26  O   UNL     1      -1.107  12.476  20.844  0.00  0.00    +0.000 OA
BRANCH  26  27
ATOM     27  C   UNL     1      -2.329  12.898  21.451  0.00  0.00    +0.000 C 
BRANCH  27  28
ATOM     28  C   UNL     1      -3.486  12.785  20.436  0.00  0.00    +0.000 C 
BRANCH  28  29
ATOM     29  N   UNL     1      -4.910  13.067  21.020  0.00  0.00    +0.000 N 
ATOM     30  C   UNL     1      -4.886  12.987  22.541  0.00  0.00    +0.000 C 
ATOM     31  C   UNL     1      -5.307  14.513  20.569  0.00  0.00    +0.000 C 
ATOM     32  C   UNL     1      -6.789  14.810  20.832  0.00  0.00    +0.000 C 
ATOM     33  O   UNL     1      -7.625  13.850  20.184  0.00  0.00    +0.000 OA
ATOM     34  C   UNL     1      -7.394  12.533  20.685  0.00  0.00    +0.000 C 
ATOM     35  C   UNL     1      -5.951  12.084  20.422  0.00  0.00    +0.000 C 
ENDBRANCH  28  29
ENDBRANCH  27  28
ENDBRANCH  26  27
ENDBRANCH  16  26
TORSDOF 8
ENDMDL
MODEL 8
REMARK VINA RESULT:      -7.1      0.885      1.108
REMARK  Name = 
REMARK  12 active torsions:
REMARK  status: ('A' for Active; 'I' for Inactive)
REMARK    1  A    between atoms: C_1  and  N_2
REMARK    2  A    between atoms: N_2  and  C_3
REMARK    3  A    between atoms: N_2  and  C_4
REMARK    4  A    between atoms: C_4  and  C_5
REMARK    5  A    between atoms: C_5  and  N_6
REMARK    6  A    between atoms: N_6  and  C_7
REMARK    7  A    between atoms: N_14  and  C_15
REMARK    8  A    between atoms: C_22  and  O_23
REMARK    9  A    between atoms: O_23  and  C_24
REMARK   10  A    between atoms: C_24  and  C_25
REMARK   11  A    between atoms: C_25  and  N_26
REMARK   12  A    between atoms: N_26  and  C_27
REMARK                            x       y       z     vdW  Elec       q    Type
REMARK                         _______ _______ _______ _____ _____    ______ ____
ROOT
ATOM      1  C   UNL     1       2.527   6.149  20.201  0.00  0.00    +0.000 A 
ATOM      2  C   UNL     1       3.269   6.205  18.993  0.00  0.00    +0.000 A 
ATOM      3  C   UNL     1       4.054   5.099  18.595  0.00  0.00    +0.000 A 
ATOM      4  C   UNL     1       4.772   5.081  17.402  0.00  0.00    +0.000 A 
ATOM      5  C   UNL     1       4.724   6.174  16.564  0.00  0.00    +0.000 A 
ATOM      6  C   UNL     1       3.961   7.288  16.921  0.00  0.00    +0.000 A 
ATOM      7  C   UNL     1       3.220   7.340  18.125  0.00  0.00    +0.000 A 
ATOM      8  N   UNL     1       2.449   8.421  18.462  0.00  0.00    +0.000 N 
ATOM      9  C   UNL     1       2.311   9.614  17.607  0.00  0.00    +0.000 C 
ATOM     10  C   UNL     1       1.734   8.417  19.670  0.00  0.00    +0.000 A 
ATOM     11  C   UNL     1       1.796   7.300  20.484  0.00  0.00    +0.000 A 
ATOM     12  O   UNL     1       1.041   7.503  21.603  0.00  0.00    +0.000 OA
ATOM     13  C   UNL     1       0.492   8.735  21.518  0.00  0.00    +0.000 A 
ATOM     14  C   UNL     1      -0.343   9.305  22.474  0.00  0.00    +0.000 A 
ATOM     15  C   UNL     1      -0.828  10.593  22.209  0.00  0.00    +0.000 A 
ATOM     16  C   UNL     1      -0.481  11.262  21.036  0.00  0.00    +0.000 A 
ATOM     17  C   UNL     1       0.350  10.643  20.083  0.00  0.00    +0.000 A 
ATOM     18  C   UNL     1       0.866   9.353  20.332  0.00  0.00    +0.000 A 
ENDROOT
BRANCH   1  19
ATOM     19  N   UNL     1       2.487   4.978  20.952  0.00  0.00    +0.000 N 
ATOM     20  H   UNL     1       2.899   5.011  21.887  0.00  0.00    +0.000 HD
BRANCH  19  21
ATOM     21  C   UNL     1       1.378   4.030  20.884  0.00  0.00    +0.000 C 
BRANCH  21  22
ATOM     22  C   UNL     1       1.938   2.592  20.792  0.00  0.00    +0.000 C 
BRANCH  22  24
ATOM     23  C   UNL     1       1.016   2.796  18.544  0.00  0.00    +0.000 C 
ATOM     24  N   UNL     1       1.802   1.961  19.458  0.00  0.00    +0.000 NA
ATOM     25  C   UNL     1       3.143   1.757  18.887  0.00  0.00    +0.000 C 
ENDBRANCH  22  24
ENDBRANCH  21  22
ENDBRANCH  19  21
ENDBRANCH   1  19
BRANCH  16  26
ATOM     26  O   UNL     1      -0.923  12.506  20.669  0.00  0.00    +0.000 OA
BRANCH  26  27
ATOM     27  C   UNL     1       0.068  13.515  20.458  0.00  0.00    +0.000 C 
BRANCH  27  28
ATOM     28  C   UNL     1      -0.441  14.543  19.426  0.00  0.00    +0.000 C 
BRANCH  28  29
ATOM     29  N   UNL     1       0.330  15.905  19.412  0.00  0.00    +0.000 N 
ATOM     30  C   UNL     1       0.296  16.548  20.793  0.00  0.00    +0.000 C 
ATOM     31  C   UNL     1       1.809  15.586  19.009  0.00  0.00    +0.000 C 
ATOM     32  C   UNL     1       2.603  16.856  18.683  0.00  0.00    +0.000 C 
ATOM     33  O   UNL     1       1.965  17.604  17.646  0.00  0.00    +0.000 OA
ATOM     34  C   UNL     1       0.666  18.044  18.042  0.00  0.00    +0.000 C 
ATOM     35  C   UNL     1      -0.258  16.855  18.335  0.00  0.00    +0.000 C 
ENDBRANCH  28  29
ENDBRANCH  27  28
ENDBRANCH  26  27
ENDBRANCH  16  26
TORSDOF 8
ENDMDL
MODEL 9
REMARK VINA RESULT:      -7.1      2.349     10.006
REMARK  Name = 
REMARK  12 active torsions:
REMARK  status: ('A' for Active; 'I' for Inactive)
REMARK    1  A    between atoms: C_1  and  N_2
REMARK    2  A    between atoms: N_2  and  C_3
REMARK    3  A    between atoms: N_2  and  C_4
REMARK    4  A    between atoms: C_4  and  C_5
REMARK    5  A    between atoms: C_5  and  N_6
REMARK    6  A    between atoms: N_6  and  C_7
REMARK    7  A    between atoms: N_14  and  C_15
REMARK    8  A    between atoms: C_22  and  O_23
REMARK    9  A    between atoms: O_23  and  C_24
REMARK   10  A    between atoms: C_24  and  C_25
REMARK   11  A    between atoms: C_25  and  N_26
REMARK   12  A    between atoms: N_26  and  C_27
REMARK                            x       y       z     vdW  Elec       q    Type
REMARK                         _______ _______ _______ _____ _____    ______ ____
ROOT
ATOM      1  C   UNL     1      -0.921  12.932  19.985  0.00  0.00    +0.000 A 
ATOM      2  C   UNL     1      -1.555  12.969  21.253  0.00  0.00    +0.000 A 
ATOM      3  C   UNL     1      -2.339  14.088  21.617  0.00  0.00    +0.000 A 
ATOM      4  C   UNL     1      -3.016  14.164  22.831  0.00  0.00    +0.000 A 
ATOM      5  C   UNL     1      -2.933  13.116  23.723  0.00  0.00    +0.000 A 
ATOM      6  C   UNL     1      -2.168  11.992  23.401  0.00  0.00    +0.000 A 
ATOM      7  C   UNL     1      -1.467  11.881  22.177  0.00  0.00    +0.000 A 
ATOM      8  N   UNL     1      -0.740  10.768  21.849  0.00  0.00    +0.000 N 
ATOM      9  C   UNL     1      -0.630   9.588  22.725  0.00  0.00    +0.000 C 
ATOM     10  C   UNL     1      -0.065  10.714  20.620  0.00  0.00    +0.000 A 
ATOM     11  C   UNL     1      -0.177  11.780  19.744  0.00  0.00    +0.000 A 
ATOM     12  O   UNL     1       0.555  11.530  18.619  0.00  0.00    +0.000 OA
ATOM     13  C   UNL     1       1.135  10.317  18.759  0.00  0.00    +0.000 A 
ATOM     14  C   UNL     1       1.964   9.715  17.818  0.00  0.00    +0.000 A 
ATOM     15  C   UNL     1       2.467   8.445  18.132  0.00  0.00    +0.000 A 
ATOM     16  C   UNL     1       2.144   7.825  19.338  0.00  0.00    +0.000 A 
ATOM     17  C   UNL     1       1.284   8.458  20.257  0.00  0.00    +0.000 A 
ATOM     18  C   UNL     1       0.777   9.745  19.972  0.00  0.00    +0.000 A 
ENDROOT
BRANCH   1  19
ATOM     19  N   UNL     1      -1.140  13.944  19.054  0.00  0.00    +0.000 N 
ATOM     20  H   UNL     1      -2.052  14.404  19.074  0.00  0.00    +0.000 HD
BRANCH  19  21
ATOM     21  C   UNL     1      -0.086  14.852  18.607  0.00  0.00    +0.000 C 
BRANCH  21  22
ATOM     22  C   UNL     1      -0.509  16.310  18.898  0.00  0.00    +0.000 C 
BRANCH  22  24
ATOM     23  C   UNL     1       0.887  17.339  20.613  0.00  0.00    +0.000 C 
ATOM     24  N   UNL     1      -0.405  16.710  20.321  0.00  0.00    +0.000 NA
ATOM     25  C   UNL     1      -1.482  17.664  20.629  0.00  0.00    +0.000 C 
ENDBRANCH  22  24
ENDBRANCH  21  22
ENDBRANCH  19  21
ENDBRANCH   1  19
BRANCH  16  26
ATOM     26  O   UNL     1       2.556   6.577  19.728  0.00  0.00    +0.000 OA
BRANCH  26  27
ATOM     27  C   UNL     1       1.690   5.846  20.598  0.00  0.00    +0.000 C 
BRANCH  27  28
ATOM     28  C   UNL     1       2.460   4.676  21.244  0.00  0.00    +0.000 C 
BRANCH  28  29
ATOM     29  N   UNL     1       2.280   3.292  20.537  0.00  0.00    +0.000 N 
ATOM     30  C   UNL     1       2.024   2.198  21.567  0.00  0.00    +0.000 C 
ATOM     31  C   UNL     1       1.044   3.425  19.585  0.00  0.00    +0.000 C 
ATOM     32  C   UNL     1       0.927   2.236  18.624  0.00  0.00    +0.000 C 
ATOM     33  O   UNL     1       2.122   2.082  17.854  0.00  0.00    +0.000 OA
ATOM     34  C   UNL     1       3.247   1.805  18.688  0.00  0.00    +0.000 C 
ATOM     35  C   UNL     1       3.517   2.960  19.661  0.00  0.00    +0.000 C 
ENDBRANCH  28  29
ENDBRANCH  27  28
ENDBRANCH  26  27
ENDBRANCH  16  26
TORSDOF 8
ENDMDL
