MODEL 1
REMARK VINA RESULT:      -6.4      0.000      0.000
REMARK  Name = 
REMARK  7 active torsions:
REMARK  status: ('A' for Active; 'I' for Inactive)
REMARK    1  A    between atoms: O_1  and  C_2
REMARK    2  A    between atoms: C_2  and  C_3
REMARK    3  A    between atoms: C_3  and  N_4
REMARK    4  A    between atoms: N_4  and  C_5
REMARK    5  A    between atoms: N_4  and  C_12
REMARK    6  A    between atoms: C_5  and  C_6
REMARK    7  A    between atoms: C_12  and  C_13
REMARK                            x       y       z     vdW  Elec       q    Type
REMARK                         _______ _______ _______ _____ _____    ______ ____
ROOT
ATOM      1  N   UNL     1       3.160   4.309  19.385  0.00  0.00    +0.000 NA
ENDROOT
BRANCH   1   2
ATOM      2  C   UNL     1       2.238   3.192  19.723  0.00  0.00    +0.000 C 
BRANCH   2   3
ATOM      3  C   UNL     1       0.958   3.089  18.878  0.00  0.00    +0.000 C 
BRANCH   3   4
ATOM      4  O   UNL     1       1.159   3.775  17.645  0.00  0.00    +0.000 OA
ATOM      5  H   UNL     1       0.649   4.601  17.691  0.00  0.00    +0.000 HD
ENDBRANCH   3   4
ENDBRANCH   2   3
ENDBRANCH   1   2
BRANCH   1   6
ATOM      6  C   UNL     1       2.899   5.458  20.282  0.00  0.00    +0.000 C 
BRANCH   6   7
ATOM      7  C   UNL     1       2.449   6.733  19.602  0.00  0.00    +0.000 A 
ATOM      8  C   UNL     1       1.698   7.695  20.295  0.00  0.00    +0.000 A 
ATOM      9  C   UNL     1       1.341   8.896  19.675  0.00  0.00    +0.000 A 
ATOM     10  C   UNL     1       1.729   9.146  18.359  0.00  0.00    +0.000 A 
ATOM     11  C   UNL     1       2.466   8.196  17.658  0.00  0.00    +0.000 A 
ATOM     12  C   UNL     1       2.825   6.996  18.276  0.00  0.00    +0.000 A 
ENDBRANCH   6   7
ENDBRANCH   1   6
BRANCH   1  13
ATOM     13  C   UNL     1       4.571   3.855  19.534  0.00  0.00    +0.000 C 
BRANCH  13  14
ATOM     14  C   UNL     1       5.542   4.588  18.622  0.00  0.00    +0.000 A 
ATOM     15  C   UNL     1       6.516   5.413  19.220  0.00  0.00    +0.000 A 
ATOM     16  C   UNL     1       7.380   6.187  18.449  0.00  0.00    +0.000 A 
ATOM     17  C   UNL     1       7.295   6.142  17.060  0.00  0.00    +0.000 A 
ATOM     18  C   UNL     1       6.359   5.306  16.442  0.00  0.00    +0.000 A 
ATOM     19 CL   UNL     1       6.331   5.306  14.710  0.00  0.00    +0.000 Cl
ATOM     20  C   UNL     1       5.487   4.520  17.214  0.00  0.00    +0.000 A 
ATOM     21 CL   UNL     1       4.336   3.482  16.428  0.00  0.00    +0.000 Cl
ENDBRANCH  13  14
ENDBRANCH   1  13
TORSDOF 7
ENDMDL
MODEL 2
REMARK VINA RESULT:      -6.4      2.628      5.081
REMARK  Name = 
REMARK  7 active torsions:
REMARK  status: ('A' for Active; 'I' for Inactive)
REMARK    1  A    between atoms: O_1  and  C_2
REMARK    2  A    between atoms: C_2  and  C_3
REMARK    3  A    between atoms: C_3  and  N_4
REMARK    4  A    between atoms: N_4  and  C_5
REMARK    5  A    between atoms: N_4  and  C_12
REMARK    6  A    between atoms: C_5  and  C_6
REMARK    7  A    between atoms: C_12  and  C_13
REMARK                            x       y       z     vdW  Elec       q    Type
REMARK                         _______ _______ _______ _____ _____    ______ ____
ROOT
ATOM      1  N   UNL     1       4.022   4.219  18.784  0.00  0.00    +0.000 NA
ENDROOT
BRANCH   1   2
ATOM      2  C   UNL     1       3.789   2.838  19.283  0.00  0.00    +0.000 C 
BRANCH   2   3
ATOM      3  C   UNL     1       3.472   1.776  18.217  0.00  0.00    +0.000 C 
BRANCH   3   4
ATOM      4  O   UNL     1       4.312   0.643  18.424  0.00  0.00    +0.000 OA
ATOM      5  H   UNL     1       3.864   0.071  19.070  0.00  0.00    +0.000 HD
ENDBRANCH   3   4
ENDBRANCH   2   3
ENDBRANCH   1   2
BRANCH   1   6
ATOM      6  C   UNL     1       5.160   4.220  17.836  0.00  0.00    +0.000 C 
BRANCH   6   7
ATOM      7  C   UNL     1       6.126   5.378  17.972  0.00  0.00    +0.000 A 
ATOM      8  C   UNL     1       7.168   5.342  18.912  0.00  0.00    +0.000 A 
ATOM      9  C   UNL     1       8.090   6.389  18.986  0.00  0.00    +0.000 A 
ATOM     10  C   UNL     1       7.980   7.482  18.126  0.00  0.00    +0.000 A 
ATOM     11  C   UNL     1       6.945   7.533  17.196  0.00  0.00    +0.000 A 
ATOM     12  C   UNL     1       6.023   6.486  17.119  0.00  0.00    +0.000 A 
ENDBRANCH   6   7
ENDBRANCH   1   6
BRANCH   1  13
ATOM     13  C   UNL     1       2.793   4.718  18.105  0.00  0.00    +0.000 C 
BRANCH  13  14
ATOM     14  C   UNL     1       2.424   6.141  18.492  0.00  0.00    +0.000 A 
ATOM     15  C   UNL     1       2.565   7.148  17.515  0.00  0.00    +0.000 A 
ATOM     16  C   UNL     1       2.335   8.488  17.821  0.00  0.00    +0.000 A 
ATOM     17  C   UNL     1       1.947   8.847  19.109  0.00  0.00    +0.000 A 
ATOM     18  C   UNL     1       1.766   7.862  20.087  0.00  0.00    +0.000 A 
ATOM     19 CL   UNL     1       1.273   8.398  21.658  0.00  0.00    +0.000 Cl
ATOM     20  C   UNL     1       1.994   6.508  19.784  0.00  0.00    +0.000 A 
ATOM     21 CL   UNL     1       1.758   5.299  21.009  0.00  0.00    +0.000 Cl
ENDBRANCH  13  14
ENDBRANCH   1  13
TORSDOF 7
ENDMDL
MODEL 3
REMARK VINA RESULT:      -6.4      1.796      2.450
REMARK  Name = 
REMARK  7 active torsions:
REMARK  status: ('A' for Active; 'I' for Inactive)
REMARK    1  A    between atoms: O_1  and  C_2
REMARK    2  A    between atoms: C_2  and  C_3
REMARK    3  A    between atoms: C_3  and  N_4
REMARK    4  A    between atoms: N_4  and  C_5
REMARK    5  A    between atoms: N_4  and  C_12
REMARK    6  A    between atoms: C_5  and  C_6
REMARK    7  A    between atoms: C_12  and  C_13
REMARK                            x       y       z     vdW  Elec       q    Type
REMARK                         _______ _______ _______ _____ _____    ______ ____
ROOT
ATOM      1  N   UNL     1       2.790   3.874  19.145  0.00  0.00    +0.000 NA
ENDROOT
BRANCH   1   2
ATOM      2  C   UNL     1       1.967   2.755  19.675  0.00  0.00    +0.000 C 
BRANCH   2   3
ATOM      3  C   UNL     1       1.196   3.038  20.976  0.00  0.00    +0.000 C 
BRANCH   3   4
ATOM      4  O   UNL     1       1.804   2.315  22.043  0.00  0.00    +0.000 OA
ATOM      5  H   UNL     1       2.452   1.710  21.645  0.00  0.00    +0.000 HD
ENDBRANCH   3   4
ENDBRANCH   2   3
ENDBRANCH   1   2
BRANCH   1   6
ATOM      6  C   UNL     1       2.866   4.957  20.153  0.00  0.00    +0.000 C 
BRANCH   6   7
ATOM      7  C   UNL     1       2.473   6.335  19.667  0.00  0.00    +0.000 A 
ATOM      8  C   UNL     1       2.661   6.708  18.327  0.00  0.00    +0.000 A 
ATOM      9  C   UNL     1       2.238   7.961  17.875  0.00  0.00    +0.000 A 
ATOM     10  C   UNL     1       1.626   8.853  18.756  0.00  0.00    +0.000 A 
ATOM     11  C   UNL     1       1.443   8.498  20.090  0.00  0.00    +0.000 A 
ATOM     12  C   UNL     1       1.863   7.245  20.543  0.00  0.00    +0.000 A 
ENDBRANCH   6   7
ENDBRANCH   1   6
BRANCH   1  13
ATOM     13  C   UNL     1       4.158   3.378  18.825  0.00  0.00    +0.000 C 
BRANCH  13  14
ATOM     14  C   UNL     1       4.846   4.169  17.724  0.00  0.00    +0.000 A 
ATOM     15  C   UNL     1       4.502   3.877  16.388  0.00  0.00    +0.000 A 
ATOM     16  C   UNL     1       5.155   4.494  15.323  0.00  0.00    +0.000 A 
ATOM     17  C   UNL     1       6.158   5.426  15.573  0.00  0.00    +0.000 A 
ATOM     18  C   UNL     1       6.494   5.759  16.890  0.00  0.00    +0.000 A 
ATOM     19 CL   UNL     1       7.746   6.935  17.106  0.00  0.00    +0.000 Cl
ATOM     20  C   UNL     1       5.837   5.143  17.969  0.00  0.00    +0.000 A 
ATOM     21 CL   UNL     1       6.262   5.574  19.597  0.00  0.00    +0.000 Cl
ENDBRANCH  13  14
ENDBRANCH   1  13
TORSDOF 7
ENDMDL
MODEL 4
REMARK VINA RESULT:      -6.4      0.860      1.380
REMARK  Name = 
REMARK  7 active torsions:
REMARK  status: ('A' for Active; 'I' for Inactive)
REMARK    1  A    between atoms: O_1  and  C_2
REMARK    2  A    between atoms: C_2  and  C_3
REMARK    3  A    between atoms: C_3  and  N_4
REMARK    4  A    between atoms: N_4  and  C_5
REMARK    5  A    between atoms: N_4  and  C_12
REMARK    6  A    between atoms: C_5  and  C_6
REMARK    7  A    between atoms: C_12  and  C_13
REMARK                            x       y       z     vdW  Elec       q    Type
REMARK                         _______ _______ _______ _____ _____    ______ ____
ROOT
ATOM      1  N   UNL     1       3.252   4.271  19.285  0.00  0.00    +0.000 NA
ENDROOT
BRANCH   1   2
ATOM      2  C   UNL     1       2.398   3.073  19.504  0.00  0.00    +0.000 C 
BRANCH   2   3
ATOM      3  C   UNL     1       0.924   3.346  19.847  0.00  0.00    +0.000 C 
BRANCH   3   4
ATOM      4  O   UNL     1       0.658   2.868  21.163  0.00  0.00    +0.000 OA
ATOM      5  H   UNL     1       0.237   1.997  21.071  0.00  0.00    +0.000 HD
ENDBRANCH   3   4
ENDBRANCH   2   3
ENDBRANCH   1   2
BRANCH   1   6
ATOM      6  C   UNL     1       2.843   5.350  20.213  0.00  0.00    +0.000 C 
BRANCH   6   7
ATOM      7  C   UNL     1       2.509   6.679  19.569  0.00  0.00    +0.000 A 
ATOM      8  C   UNL     1       2.860   6.943  18.236  0.00  0.00    +0.000 A 
ATOM      9  C   UNL     1       2.493   8.148  17.633  0.00  0.00    +0.000 A 
ATOM     10  C   UNL     1       1.775   9.102  18.354  0.00  0.00    +0.000 A 
ATOM     11  C   UNL     1       1.429   8.855  19.680  0.00  0.00    +0.000 A 
ATOM     12  C   UNL     1       1.794   7.650  20.284  0.00  0.00    +0.000 A 
ENDBRANCH   6   7
ENDBRANCH   1   6
BRANCH   1  13
ATOM     13  C   UNL     1       4.680   3.914  19.515  0.00  0.00    +0.000 C 
BRANCH  13  14
ATOM     14  C   UNL     1       5.644   4.658  18.603  0.00  0.00    +0.000 A 
ATOM     15  C   UNL     1       6.588   5.517  19.200  0.00  0.00    +0.000 A 
ATOM     16  C   UNL     1       7.442   6.301  18.427  0.00  0.00    +0.000 A 
ATOM     17  C   UNL     1       7.376   6.232  17.038  0.00  0.00    +0.000 A 
ATOM     18  C   UNL     1       6.471   5.361  16.422  0.00  0.00    +0.000 A 
ATOM     19 CL   UNL     1       6.465   5.334  14.690  0.00  0.00    +0.000 Cl
ATOM     20  C   UNL     1       5.609   4.565  17.196  0.00  0.00    +0.000 A 
ATOM     21 CL   UNL     1       4.496   3.486  16.413  0.00  0.00    +0.000 Cl
ENDBRANCH  13  14
ENDBRANCH   1  13
TORSDOF 7
ENDMDL
MODEL 5
REMARK VINA RESULT:      -6.4      2.692      4.882
REMARK  Name = 
REMARK  7 active torsions:
REMARK  status: ('A' for Active; 'I' for Inactive)
REMARK    1  A    between atoms: O_1  and  C_2
REMARK    2  A    between atoms: C_2  and  C_3
REMARK    3  A    between atoms: C_3  and  N_4
REMARK    4  A    between atoms: N_4  and  C_5
REMARK    5  A    between atoms: N_4  and  C_12
REMARK    6  A    between atoms: C_5  and  C_6
REMARK    7  A    between atoms: C_12  and  C_13
REMARK                            x       y       z     vdW  Elec       q    Type
REMARK                         _______ _______ _______ _____ _____    ______ ____
ROOT
ATOM      1  N   UNL     1       5.245   4.913  18.228  0.00  0.00    +0.000 NA
ENDROOT
BRANCH   1   2
ATOM      2  C   UNL     1       6.723   4.773  18.135  0.00  0.00    +0.000 C 
BRANCH   2   3
ATOM      3  C   UNL     1       7.551   5.849  18.857  0.00  0.00    +0.000 C 
BRANCH   3   4
ATOM      4  O   UNL     1       7.751   5.452  20.211  0.00  0.00    +0.000 OA
ATOM      5  H   UNL     1       8.442   4.769  20.208  0.00  0.00    +0.000 HD
ENDBRANCH   3   4
ENDBRANCH   2   3
ENDBRANCH   1   2
BRANCH   1   6
ATOM      6  C   UNL     1       4.806   6.087  17.439  0.00  0.00    +0.000 C 
BRANCH   6   7
ATOM      7  C   UNL     1       3.717   6.930  18.068  0.00  0.00    +0.000 A 
ATOM      8  C   UNL     1       3.172   8.030  17.387  0.00  0.00    +0.000 A 
ATOM      9  C   UNL     1       2.124   8.762  17.951  0.00  0.00    +0.000 A 
ATOM     10  C   UNL     1       1.613   8.406  19.199  0.00  0.00    +0.000 A 
ATOM     11  C   UNL     1       2.151   7.322  19.888  0.00  0.00    +0.000 A 
ATOM     12  C   UNL     1       3.197   6.587  19.325  0.00  0.00    +0.000 A 
ENDBRANCH   6   7
ENDBRANCH   1   6
BRANCH   1  13
ATOM     13  C   UNL     1       4.594   3.677  17.709  0.00  0.00    +0.000 C 
BRANCH  13  14
ATOM     14  C   UNL     1       3.262   3.369  18.376  0.00  0.00    +0.000 A 
ATOM     15  C   UNL     1       2.083   3.636  17.650  0.00  0.00    +0.000 A 
ATOM     16  C   UNL     1       0.826   3.467  18.227  0.00  0.00    +0.000 A 
ATOM     17  C   UNL     1       0.724   3.015  19.541  0.00  0.00    +0.000 A 
ATOM     18  C   UNL     1       1.878   2.711  20.270  0.00  0.00    +0.000 A 
ATOM     19 CL   UNL     1       1.655   2.147  21.892  0.00  0.00    +0.000 Cl
ATOM     20  C   UNL     1       3.149   2.876  19.692  0.00  0.00    +0.000 A 
ATOM     21 CL   UNL     1       4.571   2.487  20.611  0.00  0.00    +0.000 Cl
ENDBRANCH  13  14
ENDBRANCH   1  13
TORSDOF 7
ENDMDL
MODEL 6
REMARK VINA RESULT:      -6.4      2.646      5.198
REMARK  Name = 
REMARK  7 active torsions:
REMARK  status: ('A' for Active; 'I' for Inactive)
REMARK    1  A    between atoms: O_1  and  C_2
REMARK    2  A    between atoms: C_2  and  C_3
REMARK    3  A    between atoms: C_3  and  N_4
REMARK    4  A    between atoms: N_4  and  C_5
REMARK    5  A    between atoms: N_4  and  C_12
REMARK    6  A    between atoms: C_5  and  C_6
REMARK    7  A    between atoms: C_12  and  C_13
REMARK                            x       y       z     vdW  Elec       q    Type
REMARK                         _______ _______ _______ _____ _____    ______ ____
ROOT
ATOM      1  N   UNL     1       3.987   4.239  18.437  0.00  0.00    +0.000 NA
ENDROOT
BRANCH   1   2
ATOM      2  C   UNL     1       3.738   2.833  18.852  0.00  0.00    +0.000 C 
BRANCH   2   3
ATOM      3  C   UNL     1       4.355   2.404  20.194  0.00  0.00    +0.000 C 
BRANCH   3   4
ATOM      4  O   UNL     1       5.243   1.312  19.969  0.00  0.00    +0.000 OA
ATOM      5  H   UNL     1       4.949   0.869  19.155  0.00  0.00    +0.000 HD
ENDBRANCH   3   4
ENDBRANCH   2   3
ENDBRANCH   1   2
BRANCH   1   6
ATOM      6  C   UNL     1       5.110   4.281  17.472  0.00  0.00    +0.000 C 
BRANCH   6   7
ATOM      7  C   UNL     1       6.165   5.333  17.739  0.00  0.00    +0.000 A 
ATOM      8  C   UNL     1       6.226   6.506  16.970  0.00  0.00    +0.000 A 
ATOM      9  C   UNL     1       7.165   7.497  17.265  0.00  0.00    +0.000 A 
ATOM     10  C   UNL     1       8.053   7.328  18.328  0.00  0.00    +0.000 A 
ATOM     11  C   UNL     1       8.008   6.164  19.092  0.00  0.00    +0.000 A 
ATOM     12  C   UNL     1       7.069   5.173  18.800  0.00  0.00    +0.000 A 
ENDBRANCH   6   7
ENDBRANCH   1   6
BRANCH   1  13
ATOM     13  C   UNL     1       2.756   4.800  17.812  0.00  0.00    +0.000 C 
BRANCH  13  14
ATOM     14  C   UNL     1       2.421   6.204  18.290  0.00  0.00    +0.000 A 
ATOM     15  C   UNL     1       2.596   7.270  17.385  0.00  0.00    +0.000 A 
ATOM     16  C   UNL     1       2.398   8.592  17.778  0.00  0.00    +0.000 A 
ATOM     17  C   UNL     1       2.008   8.873  19.085  0.00  0.00    +0.000 A 
ATOM     18  C   UNL     1       1.794   7.830  19.993  0.00  0.00    +0.000 A 
ATOM     19 CL   UNL     1       1.301   8.273  21.593  0.00  0.00    +0.000 Cl
ATOM     20  C   UNL     1       1.989   6.495  19.601  0.00  0.00    +0.000 A 
ATOM     21 CL   UNL     1       1.712   5.213  20.741  0.00  0.00    +0.000 Cl
ENDBRANCH  13  14
ENDBRANCH   1  13
TORSDOF 7
ENDMDL
MODEL 7
REMARK VINA RESULT:      -6.3      3.060      6.340
REMARK  Name = 
REMARK  7 active torsions:
REMARK  status: ('A' for Active; 'I' for Inactive)
REMARK    1  A    between atoms: O_1  and  C_2
REMARK    2  A    between atoms: C_2  and  C_3
REMARK    3  A    between atoms: C_3  and  N_4
REMARK    4  A    between atoms: N_4  and  C_5
REMARK    5  A    between atoms: N_4  and  C_12
REMARK    6  A    between atoms: C_5  and  C_6
REMARK    7  A    between atoms: C_12  and  C_13
REMARK                            x       y       z     vdW  Elec       q    Type
REMARK                         _______ _______ _______ _____ _____    ______ ____
ROOT
ATOM      1  N   UNL     1       5.442   4.983  16.781  0.00  0.00    +0.000 NA
ENDROOT
BRANCH   1   2
ATOM      2  C   UNL     1       5.508   6.458  16.601  0.00  0.00    +0.000 C 
BRANCH   2   3
ATOM      3  C   UNL     1       6.499   7.208  17.506  0.00  0.00    +0.000 C 
BRANCH   3   4
ATOM      4  O   UNL     1       7.657   7.546  16.747  0.00  0.00    +0.000 OA
ATOM      5  H   UNL     1       7.548   7.148  15.867  0.00  0.00    +0.000 HD
ENDBRANCH   3   4
ENDBRANCH   2   3
ENDBRANCH   1   2
BRANCH   1   6
ATOM      6  C   UNL     1       6.649   4.357  16.193  0.00  0.00    +0.000 C 
BRANCH   6   7
ATOM      7  C   UNL     1       6.722   4.366  14.681  0.00  0.00    +0.000 A 
ATOM      8  C   UNL     1       7.665   5.160  14.009  0.00  0.00    +0.000 A 
ATOM      9  C   UNL     1       7.764   5.115  12.616  0.00  0.00    +0.000 A 
ATOM     10  C   UNL     1       6.924   4.279  11.881  0.00  0.00    +0.000 A 
ATOM     11  C   UNL     1       5.979   3.493  12.536  0.00  0.00    +0.000 A 
ATOM     12  C   UNL     1       5.878   3.536  13.928  0.00  0.00    +0.000 A 
ENDBRANCH   6   7
ENDBRANCH   1   6
BRANCH   1  13
ATOM     13  C   UNL     1       5.357   4.661  18.233  0.00  0.00    +0.000 C 
BRANCH  13  14
ATOM     14  C   UNL     1       3.931   4.616  18.760  0.00  0.00    +0.000 A 
ATOM     15  C   UNL     1       3.489   5.687  19.562  0.00  0.00    +0.000 A 
ATOM     16  C   UNL     1       2.228   5.672  20.156  0.00  0.00    +0.000 A 
ATOM     17  C   UNL     1       1.379   4.589  19.949  0.00  0.00    +0.000 A 
ATOM     18  C   UNL     1       1.781   3.530  19.128  0.00  0.00    +0.000 A 
ATOM     19 CL   UNL     1       0.657   2.229  18.918  0.00  0.00    +0.000 Cl
ATOM     20  C   UNL     1       3.050   3.540  18.523  0.00  0.00    +0.000 A 
ATOM     21 CL   UNL     1       3.530   2.218  17.502  0.00  0.00    +0.000 Cl
ENDBRANCH  13  14
ENDBRANCH   1  13
TORSDOF 7
ENDMDL
MODEL 8
REMARK VINA RESULT:      -6.3      1.600      2.020
REMARK  Name = 
REMARK  7 active torsions:
REMARK  status: ('A' for Active; 'I' for Inactive)
REMARK    1  A    between atoms: O_1  and  C_2
REMARK    2  A    between atoms: C_2  and  C_3
REMARK    3  A    between atoms: C_3  and  N_4
REMARK    4  A    between atoms: N_4  and  C_5
REMARK    5  A    between atoms: N_4  and  C_12
REMARK    6  A    between atoms: C_5  and  C_6
REMARK    7  A    between atoms: C_12  and  C_13
REMARK                            x       y       z     vdW  Elec       q    Type
REMARK                         _______ _______ _______ _____ _____    ______ ____
ROOT
ATOM      1  N   UNL     1       3.011   3.646  18.963  0.00  0.00    +0.000 NA
ENDROOT
BRANCH   1   2
ATOM      2  C   UNL     1       2.260   2.422  19.348  0.00  0.00    +0.000 C 
BRANCH   2   3
ATOM      3  C   UNL     1       0.831   2.301  18.795  0.00  0.00    +0.000 C 
BRANCH   3   4
ATOM      4  O   UNL     1      -0.076   2.903  19.715  0.00  0.00    +0.000 OA
ATOM      5  H   UNL     1      -0.972   2.765  19.364  0.00  0.00    +0.000 HD
ENDBRANCH   3   4
ENDBRANCH   2   3
ENDBRANCH   1   2
BRANCH   1   6
ATOM      6  C   UNL     1       2.960   4.630  20.069  0.00  0.00    +0.000 C 
BRANCH   6   7
ATOM      7  C   UNL     1       2.488   6.018  19.692  0.00  0.00    +0.000 A 
ATOM      8  C   UNL     1       1.882   6.857  20.640  0.00  0.00    +0.000 A 
ATOM      9  C   UNL     1       1.508   8.158  20.296  0.00  0.00    +0.000 A 
ATOM     10  C   UNL     1       1.731   8.634  19.004  0.00  0.00    +0.000 A 
ATOM     11  C   UNL     1       2.324   7.807  18.052  0.00  0.00    +0.000 A 
ATOM     12  C   UNL     1       2.701   6.507  18.394  0.00  0.00    +0.000 A 
ENDBRANCH   6   7
ENDBRANCH   1   6
BRANCH   1  13
ATOM     13  C   UNL     1       4.426   3.291  18.661  0.00  0.00    +0.000 C 
BRANCH  13  14
ATOM     14  C   UNL     1       5.067   4.192  17.618  0.00  0.00    +0.000 A 
ATOM     15  C   UNL     1       4.753   3.960  16.263  0.00  0.00    +0.000 A 
ATOM     16  C   UNL     1       5.371   4.683  15.245  0.00  0.00    +0.000 A 
ATOM     17  C   UNL     1       6.308   5.662  15.563  0.00  0.00    +0.000 A 
ATOM     18  C   UNL     1       6.612   5.934  16.901  0.00  0.00    +0.000 A 
ATOM     19 CL   UNL     1       7.781   7.175  17.203  0.00  0.00    +0.000 Cl
ATOM     20  C   UNL     1       5.989   5.211  17.933  0.00  0.00    +0.000 A 
ATOM     21 CL   UNL     1       6.374   5.568  19.590  0.00  0.00    +0.000 Cl
ENDBRANCH  13  14
ENDBRANCH   1  13
TORSDOF 7
ENDMDL
MODEL 9
REMARK VINA RESULT:      -6.3      3.362      5.787
REMARK  Name = 
REMARK  7 active torsions:
REMARK  status: ('A' for Active; 'I' for Inactive)
REMARK    1  A    between atoms: O_1  and  C_2
REMARK    2  A    between atoms: C_2  and  C_3
REMARK    3  A    between atoms: C_3  and  N_4
REMARK    4  A    between atoms: N_4  and  C_5
REMARK    5  A    between atoms: N_4  and  C_12
REMARK    6  A    between atoms: C_5  and  C_6
REMARK    7  A    between atoms: C_12  and  C_13
REMARK                            x       y       z     vdW  Elec       q    Type
REMARK                         _______ _______ _______ _____ _____    ______ ____
ROOT
ATOM      1  N   UNL     1       5.401   3.914  15.715  0.00  0.00    +0.000 NA
ENDROOT
BRANCH   1   2
ATOM      2  C   UNL     1       5.291   4.356  14.299  0.00  0.00    +0.000 C 
BRANCH   2   3
ATOM      3  C   UNL     1       6.488   4.027  13.392  0.00  0.00    +0.000 C 
BRANCH   3   4
ATOM      4  O   UNL     1       6.147   2.924  12.555  0.00  0.00    +0.000 OA
ATOM      5  H   UNL     1       5.395   3.204  12.008  0.00  0.00    +0.000 HD
ENDBRANCH   3   4
ENDBRANCH   2   3
ENDBRANCH   1   2
BRANCH   1   6
ATOM      6  C   UNL     1       6.820   3.948  16.138  0.00  0.00    +0.000 C 
BRANCH   6   7
ATOM      7  C   UNL     1       7.204   5.089  17.055  0.00  0.00    +0.000 A 
ATOM      8  C   UNL     1       7.642   4.846  18.366  0.00  0.00    +0.000 A 
ATOM      9  C   UNL     1       8.053   5.902  19.183  0.00  0.00    +0.000 A 
ATOM     10  C   UNL     1       8.028   7.211  18.700  0.00  0.00    +0.000 A 
ATOM     11  C   UNL     1       7.586   7.466  17.405  0.00  0.00    +0.000 A 
ATOM     12  C   UNL     1       7.177   6.411  16.586  0.00  0.00    +0.000 A 
ENDBRANCH   6   7
ENDBRANCH   1   6
BRANCH   1  13
ATOM     13  C   UNL     1       4.588   4.811  16.583  0.00  0.00    +0.000 C 
BRANCH  13  14
ATOM     14  C   UNL     1       3.709   4.062  17.572  0.00  0.00    +0.000 A 
ATOM     15  C   UNL     1       3.021   2.920  17.112  0.00  0.00    +0.000 A 
ATOM     16  C   UNL     1       2.127   2.236  17.933  0.00  0.00    +0.000 A 
ATOM     17  C   UNL     1       1.911   2.675  19.236  0.00  0.00    +0.000 A 
ATOM     18  C   UNL     1       2.607   3.785  19.727  0.00  0.00    +0.000 A 
ATOM     19 CL   UNL     1       2.283   4.253  21.363  0.00  0.00    +0.000 Cl
ATOM     20  C   UNL     1       3.513   4.477  18.906  0.00  0.00    +0.000 A 
ATOM     21 CL   UNL     1       4.373   5.849  19.535  0.00  0.00    +0.000 Cl
ENDBRANCH  13  14
ENDBRANCH   1  13
TORSDOF 7
ENDMDL
