MODEL 1
REMARK VINA RESULT:      -7.7      0.000      0.000
REMARK  Name = 
REMARK  5 active torsions:
REMARK  status: ('A' for Active; 'I' for Inactive)
REMARK    1  A    between atoms: C_1  and  N_2
REMARK    2  A    between atoms: C_3  and  C_5
REMARK    3  A    between atoms: C_17  and  N_18
REMARK    4  A    between atoms: N_18  and  C_19
REMARK    5  A    between atoms: N_18  and  C_20
REMARK                            x       y       z     vdW  Elec       q    Type
REMARK                         _______ _______ _______ _____ _____    ______ ____
ROOT
ATOM      1  C   UNL     1       2.407   7.576  18.871  0.00  0.00    +0.000 A 
ATOM      2  C   UNL     1       2.288   8.520  17.846  0.00  0.00    +0.000 A 
ATOM      3  C   UNL     1       1.534   9.696  18.051  0.00  0.00    +0.000 A 
ATOM      4  C   UNL     1       0.899   9.950  19.282  0.00  0.00    +0.000 A 
ATOM      5  C   UNL     1       1.049   8.996  20.277  0.00  0.00    +0.000 A 
ATOM      6  C   UNL     1       1.778   7.819  20.088  0.00  0.00    +0.000 A 
ATOM      7  S   UNL     1       0.356   9.213  21.853  0.00  0.00    +0.000 S 
ATOM      8  O   UNL     1       1.470   9.423  22.755  0.00  0.00    +0.000 OA
ATOM      9  O   UNL     1      -0.592   8.136  22.043  0.00  0.00    +0.000 OA
ATOM     10  C   UNL     1      -0.562  10.686  21.854  0.00  0.00    +0.000 A 
ATOM     11  C   UNL     1      -1.242  10.987  23.032  0.00  0.00    +0.000 A 
ATOM     12  C   UNL     1      -1.984  12.156  23.115  0.00  0.00    +0.000 A 
ATOM     13  C   UNL     1      -2.080  13.049  22.040  0.00  0.00    +0.000 A 
ATOM     14  C   UNL     1      -1.374  12.703  20.860  0.00  0.00    +0.000 A 
ATOM     15  C   UNL     1      -0.609  11.517  20.748  0.00  0.00    +0.000 A 
ATOM     16  C   UNL     1       0.105  11.210  19.467  0.00  0.00    +0.000 C 
ATOM     17  O   UNL     1       0.039  12.002  18.535  0.00  0.00    +0.000 OA
ENDROOT
BRANCH   1  20
ATOM     18  C   UNL     1       3.829   4.205  19.783  0.00  0.00    +0.000 C 
ATOM     19  N   UNL     1       3.238   5.516  19.884  0.00  0.00    +0.000 N 
ATOM     20  C   UNL     1       3.143   6.292  18.754  0.00  0.00    +0.000 C 
ATOM     21  O   UNL     1       3.588   5.949  17.662  0.00  0.00    +0.000 OA
ATOM     22  H   UNL     1       2.663   5.728  20.687  0.00  0.00    +0.000 HD
ENDBRANCH   1  20
BRANCH  13  23
ATOM     23  N   UNL     1      -2.849  14.195  22.138  0.00  0.00    +0.000 N 
ATOM     24  C   UNL     1      -2.612  15.369  21.305  0.00  0.00    +0.000 C 
ATOM     25  C   UNL     1      -3.849  14.376  23.189  0.00  0.00    +0.000 C 
ENDBRANCH  13  23
TORSDOF 2
ENDMDL
MODEL 2
REMARK VINA RESULT:      -7.6      0.747      1.028
REMARK  Name = 
REMARK  5 active torsions:
REMARK  status: ('A' for Active; 'I' for Inactive)
REMARK    1  A    between atoms: C_1  and  N_2
REMARK    2  A    between atoms: C_3  and  C_5
REMARK    3  A    between atoms: C_17  and  N_18
REMARK    4  A    between atoms: N_18  and  C_19
REMARK    5  A    between atoms: N_18  and  C_20
REMARK                            x       y       z     vdW  Elec       q    Type
REMARK                         _______ _______ _______ _____ _____    ______ ____
ROOT
ATOM      1  C   UNL     1       2.407   7.442  18.913  0.00  0.00    +0.000 A 
ATOM      2  C   UNL     1       2.356   8.390  17.886  0.00  0.00    +0.000 A 
ATOM      3  C   UNL     1       1.651   9.599  18.072  0.00  0.00    +0.000 A 
ATOM      4  C   UNL     1       0.999   9.883  19.287  0.00  0.00    +0.000 A 
ATOM      5  C   UNL     1       1.081   8.924  20.286  0.00  0.00    +0.000 A 
ATOM      6  C   UNL     1       1.760   7.715  20.114  0.00  0.00    +0.000 A 
ATOM      7  S   UNL     1       0.361   9.175  21.844  0.00  0.00    +0.000 S 
ATOM      8  O   UNL     1       1.461   9.335  22.773  0.00  0.00    +0.000 OA
ATOM      9  O   UNL     1      -0.639   8.142  22.012  0.00  0.00    +0.000 OA
ATOM     10  C   UNL     1      -0.489  10.688  21.824  0.00  0.00    +0.000 A 
ATOM     11  C   UNL     1      -1.182  11.021  22.984  0.00  0.00    +0.000 A 
ATOM     12  C   UNL     1      -1.871  12.223  23.049  0.00  0.00    +0.000 A 
ATOM     13  C   UNL     1      -1.901  13.118  21.972  0.00  0.00    +0.000 A 
ATOM     14  C   UNL     1      -1.184  12.739  20.810  0.00  0.00    +0.000 A 
ATOM     15  C   UNL     1      -0.471  11.520  20.716  0.00  0.00    +0.000 A 
ATOM     16  C   UNL     1       0.260  11.178  19.453  0.00  0.00    +0.000 C 
ATOM     17  O   UNL     1       0.252  11.972  18.520  0.00  0.00    +0.000 OA
ENDROOT
BRANCH   1  20
ATOM     18  C   UNL     1       3.282   3.985  17.689  0.00  0.00    +0.000 C 
ATOM     19  N   UNL     1       2.576   5.223  17.912  0.00  0.00    +0.000 N 
ATOM     20  C   UNL     1       3.086   6.126  18.814  0.00  0.00    +0.000 C 
ATOM     21  O   UNL     1       4.091   5.913  19.486  0.00  0.00    +0.000 OA
ATOM     22  H   UNL     1       1.901   5.527  17.225  0.00  0.00    +0.000 HD
ENDBRANCH   1  20
BRANCH  13  23
ATOM     23  N   UNL     1      -2.619  14.299  22.052  0.00  0.00    +0.000 N 
ATOM     24  C   UNL     1      -3.842  14.418  22.837  0.00  0.00    +0.000 C 
ATOM     25  C   UNL     1      -2.295  15.466  21.232  0.00  0.00    +0.000 C 
ENDBRANCH  13  23
TORSDOF 2
ENDMDL
MODEL 3
REMARK VINA RESULT:      -7.2      1.593      2.035
REMARK  Name = 
REMARK  5 active torsions:
REMARK  status: ('A' for Active; 'I' for Inactive)
REMARK    1  A    between atoms: C_1  and  N_2
REMARK    2  A    between atoms: C_3  and  C_5
REMARK    3  A    between atoms: C_17  and  N_18
REMARK    4  A    between atoms: N_18  and  C_19
REMARK    5  A    between atoms: N_18  and  C_20
REMARK                            x       y       z     vdW  Elec       q    Type
REMARK                         _______ _______ _______ _____ _____    ______ ____
ROOT
ATOM      1  C   UNL     1       2.412   6.131  19.750  0.00  0.00    +0.000 A 
ATOM      2  C   UNL     1       2.716   6.691  18.505  0.00  0.00    +0.000 A 
ATOM      3  C   UNL     1       2.356   8.026  18.223  0.00  0.00    +0.000 A 
ATOM      4  C   UNL     1       1.700   8.823  19.180  0.00  0.00    +0.000 A 
ATOM      5  C   UNL     1       1.425   8.236  20.407  0.00  0.00    +0.000 A 
ATOM      6  C   UNL     1       1.759   6.911  20.698  0.00  0.00    +0.000 A 
ATOM      7  S   UNL     1       0.664   9.126  21.687  0.00  0.00    +0.000 S 
ATOM      8  O   UNL     1       1.677   9.308  22.706  0.00  0.00    +0.000 OA
ATOM      9  O   UNL     1      -0.592   8.462  21.965  0.00  0.00    +0.000 OA
ATOM     10  C   UNL     1       0.267  10.710  21.099  0.00  0.00    +0.000 A 
ATOM     11  C   UNL     1      -0.410  11.544  21.985  0.00  0.00    +0.000 A 
ATOM     12  C   UNL     1      -0.746  12.831  21.592  0.00  0.00    +0.000 A 
ATOM     13  C   UNL     1      -0.432  13.322  20.319  0.00  0.00    +0.000 A 
ATOM     14  C   UNL     1       0.256  12.440  19.448  0.00  0.00    +0.000 A 
ATOM     15  C   UNL     1       0.612  11.122  19.823  0.00  0.00    +0.000 A 
ATOM     16  C   UNL     1       1.332  10.239  18.849  0.00  0.00    +0.000 C 
ATOM     17  O   UNL     1       1.627  10.677  17.743  0.00  0.00    +0.000 OA
ENDROOT
BRANCH   1  20
ATOM     18  C   UNL     1       2.281   2.867  21.634  0.00  0.00    +0.000 C 
ATOM     19  N   UNL     1       2.123   4.259  21.290  0.00  0.00    +0.000 N 
ATOM     20  C   UNL     1       2.711   4.730  20.140  0.00  0.00    +0.000 C 
ATOM     21  O   UNL     1       3.415   4.037  19.411  0.00  0.00    +0.000 OA
ATOM     22  H   UNL     1       1.377   4.785  21.723  0.00  0.00    +0.000 HD
ENDBRANCH   1  20
BRANCH  13  23
ATOM     23  N   UNL     1      -0.802  14.601  19.942  0.00  0.00    +0.000 N 
ATOM     24  C   UNL     1      -0.179  15.296  18.821  0.00  0.00    +0.000 C 
ATOM     25  C   UNL     1      -1.730  15.410  20.732  0.00  0.00    +0.000 C 
ENDBRANCH  13  23
TORSDOF 2
ENDMDL
MODEL 4
REMARK VINA RESULT:      -7.1      1.733      7.890
REMARK  Name = 
REMARK  5 active torsions:
REMARK  status: ('A' for Active; 'I' for Inactive)
REMARK    1  A    between atoms: C_1  and  N_2
REMARK    2  A    between atoms: C_3  and  C_5
REMARK    3  A    between atoms: C_17  and  N_18
REMARK    4  A    between atoms: N_18  and  C_19
REMARK    5  A    between atoms: N_18  and  C_20
REMARK                            x       y       z     vdW  Elec       q    Type
REMARK                         _______ _______ _______ _____ _____    ______ ____
ROOT
ATOM      1  C   UNL     1      -2.252  12.731  21.922  0.00  0.00    +0.000 A 
ATOM      2  C   UNL     1      -1.878  11.985  23.046  0.00  0.00    +0.000 A 
ATOM      3  C   UNL     1      -0.987  10.899  22.909  0.00  0.00    +0.000 A 
ATOM      4  C   UNL     1      -0.450  10.549  21.655  0.00  0.00    +0.000 A 
ATOM      5  C   UNL     1      -0.836  11.318  20.567  0.00  0.00    +0.000 A 
ATOM      6  C   UNL     1      -1.729  12.387  20.681  0.00  0.00    +0.000 A 
ATOM      7  S   UNL     1      -0.208  11.020  18.978  0.00  0.00    +0.000 S 
ATOM      8  O   UNL     1       0.654  12.142  18.670  0.00  0.00    +0.000 OA
ATOM      9  O   UNL     1      -1.338  10.670  18.143  0.00  0.00    +0.000 OA
ATOM     10  C   UNL     1       0.812   9.617  19.041  0.00  0.00    +0.000 A 
ATOM     11  C   UNL     1       1.356   9.196  17.830  0.00  0.00    +0.000 A 
ATOM     12  C   UNL     1       2.195   8.092  17.804  0.00  0.00    +0.000 A 
ATOM     13  C   UNL     1       2.511   7.374  18.965  0.00  0.00    +0.000 A 
ATOM     14  C   UNL     1       1.935   7.836  20.175  0.00  0.00    +0.000 A 
ATOM     15  C   UNL     1       1.076   8.960  20.231  0.00  0.00    +0.000 A 
ATOM     16  C   UNL     1       0.495   9.389  21.544  0.00  0.00    +0.000 C 
ATOM     17  O   UNL     1       0.789   8.775  22.563  0.00  0.00    +0.000 OA
ENDROOT
BRANCH   1  20
ATOM     18  C   UNL     1      -4.294  15.673  20.744  0.00  0.00    +0.000 C 
ATOM     19  N   UNL     1      -3.289  14.642  20.812  0.00  0.00    +0.000 N 
ATOM     20  C   UNL     1      -3.207  13.868  21.945  0.00  0.00    +0.000 C 
ATOM     21  O   UNL     1      -3.914  14.043  22.933  0.00  0.00    +0.000 OA
ATOM     22  H   UNL     1      -2.863  14.322  19.954  0.00  0.00    +0.000 HD
ENDBRANCH   1  20
BRANCH  13  23
ATOM     23  N   UNL     1       3.329   6.260  18.908  0.00  0.00    +0.000 N 
ATOM     24  C   UNL     1       4.308   6.063  17.845  0.00  0.00    +0.000 C 
ATOM     25  C   UNL     1       3.166   5.125  19.815  0.00  0.00    +0.000 C 
ENDBRANCH  13  23
TORSDOF 2
ENDMDL
MODEL 5
REMARK VINA RESULT:      -7.0      1.714      7.918
REMARK  Name = 
REMARK  5 active torsions:
REMARK  status: ('A' for Active; 'I' for Inactive)
REMARK    1  A    between atoms: C_1  and  N_2
REMARK    2  A    between atoms: C_3  and  C_5
REMARK    3  A    between atoms: C_17  and  N_18
REMARK    4  A    between atoms: N_18  and  C_19
REMARK    5  A    between atoms: N_18  and  C_20
REMARK                            x       y       z     vdW  Elec       q    Type
REMARK                         _______ _______ _______ _____ _____    ______ ____
ROOT
ATOM      1  C   UNL     1      -2.214  12.673  22.070  0.00  0.00    +0.000 A 
ATOM      2  C   UNL     1      -1.849  11.855  23.145  0.00  0.00    +0.000 A 
ATOM      3  C   UNL     1      -0.967  10.771  22.942  0.00  0.00    +0.000 A 
ATOM      4  C   UNL     1      -0.429  10.496  21.670  0.00  0.00    +0.000 A 
ATOM      5  C   UNL     1      -0.806  11.335  20.632  0.00  0.00    +0.000 A 
ATOM      6  C   UNL     1      -1.690  12.403  20.810  0.00  0.00    +0.000 A 
ATOM      7  S   UNL     1      -0.176  11.132  19.028  0.00  0.00    +0.000 S 
ATOM      8  O   UNL     1       0.696  12.264  18.794  0.00  0.00    +0.000 OA
ATOM      9  O   UNL     1      -1.307  10.845  18.170  0.00  0.00    +0.000 OA
ATOM     10  C   UNL     1       0.832   9.720  19.005  0.00  0.00    +0.000 A 
ATOM     11  C   UNL     1       1.376   9.371  17.772  0.00  0.00    +0.000 A 
ATOM     12  C   UNL     1       2.206   8.263  17.679  0.00  0.00    +0.000 A 
ATOM     13  C   UNL     1       2.513   7.472  18.792  0.00  0.00    +0.000 A 
ATOM     14  C   UNL     1       1.937   7.862  20.028  0.00  0.00    +0.000 A 
ATOM     15  C   UNL     1       1.087   8.987  20.153  0.00  0.00    +0.000 A 
ATOM     16  C   UNL     1       0.506   9.338  21.489  0.00  0.00    +0.000 C 
ATOM     17  O   UNL     1       0.793   8.658  22.467  0.00  0.00    +0.000 OA
ENDROOT
BRANCH   1  20
ATOM     18  C   UNL     1      -4.657  15.148  23.527  0.00  0.00    +0.000 C 
ATOM     19  N   UNL     1      -3.830  13.980  23.350  0.00  0.00    +0.000 N 
ATOM     20  C   UNL     1      -3.159  13.813  22.161  0.00  0.00    +0.000 C 
ATOM     21  O   UNL     1      -3.270  14.584  21.212  0.00  0.00    +0.000 OA
ATOM     22  H   UNL     1      -3.535  13.466  24.168  0.00  0.00    +0.000 HD
ENDBRANCH   1  20
BRANCH  13  23
ATOM     23  N   UNL     1       3.322   6.356  18.668  0.00  0.00    +0.000 N 
ATOM     24  C   UNL     1       3.395   5.325  19.696  0.00  0.00    +0.000 C 
ATOM     25  C   UNL     1       4.282   6.207  17.574  0.00  0.00    +0.000 C 
ENDBRANCH  13  23
TORSDOF 2
ENDMDL
MODEL 6
REMARK VINA RESULT:      -7.0      1.829      7.454
REMARK  Name = 
REMARK  5 active torsions:
REMARK  status: ('A' for Active; 'I' for Inactive)
REMARK    1  A    between atoms: C_1  and  N_2
REMARK    2  A    between atoms: C_3  and  C_5
REMARK    3  A    between atoms: C_17  and  N_18
REMARK    4  A    between atoms: N_18  and  C_19
REMARK    5  A    between atoms: N_18  and  C_20
REMARK                            x       y       z     vdW  Elec       q    Type
REMARK                         _______ _______ _______ _____ _____    ______ ____
ROOT
ATOM      1  C   UNL     1       0.006  12.898  20.949  0.00  0.00    +0.000 A 
ATOM      2  C   UNL     1       0.354  13.128  19.613  0.00  0.00    +0.000 A 
ATOM      3  C   UNL     1       0.890  12.082  18.831  0.00  0.00    +0.000 A 
ATOM      4  C   UNL     1       1.074  10.793  19.365  0.00  0.00    +0.000 A 
ATOM      5  C   UNL     1       0.707  10.600  20.689  0.00  0.00    +0.000 A 
ATOM      6  C   UNL     1       0.191  11.627  21.483  0.00  0.00    +0.000 A 
ATOM      7  S   UNL     1       0.839   9.047  21.450  0.00  0.00    +0.000 S 
ATOM      8  O   UNL     1      -0.517   8.586  21.660  0.00  0.00    +0.000 OA
ATOM      9  O   UNL     1       1.776   9.198  22.544  0.00  0.00    +0.000 OA
ATOM     10  C   UNL     1       1.566   7.941  20.326  0.00  0.00    +0.000 A 
ATOM     11  C   UNL     1       1.805   6.653  20.797  0.00  0.00    +0.000 A 
ATOM     12  C   UNL     1       2.368   5.709  19.951  0.00  0.00    +0.000 A 
ATOM     13  C   UNL     1       2.715   6.013  18.629  0.00  0.00    +0.000 A 
ATOM     14  C   UNL     1       2.457   7.336  18.191  0.00  0.00    +0.000 A 
ATOM     15  C   UNL     1       1.883   8.320  19.032  0.00  0.00    +0.000 A 
ATOM     16  C   UNL     1       1.644   9.703  18.506  0.00  0.00    +0.000 C 
ATOM     17  O   UNL     1       1.927   9.962  17.343  0.00  0.00    +0.000 OA
ENDROOT
BRANCH   1  20
ATOM     18  C   UNL     1      -1.521  14.465  24.020  0.00  0.00    +0.000 C 
ATOM     19  N   UNL     1      -1.107  13.493  23.038  0.00  0.00    +0.000 N 
ATOM     20  C   UNL     1      -0.530  13.931  21.870  0.00  0.00    +0.000 C 
ATOM     21  O   UNL     1      -0.395  15.119  21.590  0.00  0.00    +0.000 OA
ATOM     22  H   UNL     1      -0.986  12.532  23.328  0.00  0.00    +0.000 HD
ENDBRANCH   1  20
BRANCH  13  23
ATOM     23  N   UNL     1       3.300   5.060  17.813  0.00  0.00    +0.000 N 
ATOM     24  C   UNL     1       4.493   5.337  17.021  0.00  0.00    +0.000 C 
ATOM     25  C   UNL     1       2.679   3.760  17.562  0.00  0.00    +0.000 C 
ENDBRANCH  13  23
TORSDOF 2
ENDMDL
MODEL 7
REMARK VINA RESULT:      -6.9      5.331      6.784
REMARK  Name = 
REMARK  5 active torsions:
REMARK  status: ('A' for Active; 'I' for Inactive)
REMARK    1  A    between atoms: C_1  and  N_2
REMARK    2  A    between atoms: C_3  and  C_5
REMARK    3  A    between atoms: C_17  and  N_18
REMARK    4  A    between atoms: N_18  and  C_19
REMARK    5  A    between atoms: N_18  and  C_20
REMARK                            x       y       z     vdW  Elec       q    Type
REMARK                         _______ _______ _______ _____ _____    ______ ____
ROOT
ATOM      1  C   UNL     1      -3.330  10.508  15.461  0.00  0.00    +0.000 A 
ATOM      2  C   UNL     1      -2.167  10.449  16.236  0.00  0.00    +0.000 A 
ATOM      3  C   UNL     1      -2.159  10.982  17.543  0.00  0.00    +0.000 A 
ATOM      4  C   UNL     1      -3.311  11.569  18.098  0.00  0.00    +0.000 A 
ATOM      5  C   UNL     1      -4.448  11.601  17.304  0.00  0.00    +0.000 A 
ATOM      6  C   UNL     1      -4.470  11.093  16.002  0.00  0.00    +0.000 A 
ATOM      7  S   UNL     1      -5.945  12.254  17.888  0.00  0.00    +0.000 S 
ATOM      8  O   UNL     1      -6.842  11.128  18.040  0.00  0.00    +0.000 OA
ATOM      9  O   UNL     1      -6.267  13.382  17.039  0.00  0.00    +0.000 OA
ATOM     10  C   UNL     1      -5.684  12.894  19.481  0.00  0.00    +0.000 A 
ATOM     11  C   UNL     1      -6.775  13.517  20.081  0.00  0.00    +0.000 A 
ATOM     12  C   UNL     1      -6.648  14.037  21.360  0.00  0.00    +0.000 A 
ATOM     13  C   UNL     1      -5.445  13.964  22.073  0.00  0.00    +0.000 A 
ATOM     14  C   UNL     1      -4.359  13.324  21.424  0.00  0.00    +0.000 A 
ATOM     15  C   UNL     1      -4.461  12.783  20.120  0.00  0.00    +0.000 A 
ATOM     16  C   UNL     1      -3.270  12.126  19.491  0.00  0.00    +0.000 C 
ATOM     17  O   UNL     1      -2.224  12.042  20.123  0.00  0.00    +0.000 OA
ENDROOT
BRANCH   1  20
ATOM     18  C   UNL     1      -4.836   9.617  12.121  0.00  0.00    +0.000 C 
ATOM     19  N   UNL     1      -4.698   9.967  13.513  0.00  0.00    +0.000 N 
ATOM     20  C   UNL     1      -3.440  10.014  14.066  0.00  0.00    +0.000 C 
ATOM     21  O   UNL     1      -2.422   9.719  13.447  0.00  0.00    +0.000 OA
ATOM     22  H   UNL     1      -5.466  10.433  13.975  0.00  0.00    +0.000 HD
ENDBRANCH   1  20
BRANCH  13  23
ATOM     23  N   UNL     1      -5.336  14.516  23.337  0.00  0.00    +0.000 N 
ATOM     24  C   UNL     1      -6.285  15.500  23.845  0.00  0.00    +0.000 C 
ATOM     25  C   UNL     1      -4.177  14.275  24.196  0.00  0.00    +0.000 C 
ENDBRANCH  13  23
TORSDOF 2
ENDMDL
MODEL 8
REMARK VINA RESULT:      -6.8      1.656      7.603
REMARK  Name = 
REMARK  5 active torsions:
REMARK  status: ('A' for Active; 'I' for Inactive)
REMARK    1  A    between atoms: C_1  and  N_2
REMARK    2  A    between atoms: C_3  and  C_5
REMARK    3  A    between atoms: C_17  and  N_18
REMARK    4  A    between atoms: N_18  and  C_19
REMARK    5  A    between atoms: N_18  and  C_20
REMARK                            x       y       z     vdW  Elec       q    Type
REMARK                         _______ _______ _______ _____ _____    ______ ____
ROOT
ATOM      1  C   UNL     1      -0.465  12.577  21.119  0.00  0.00    +0.000 A 
ATOM      2  C   UNL     1      -0.096  12.926  19.815  0.00  0.00    +0.000 A 
ATOM      3  C   UNL     1       0.566  11.989  18.992  0.00  0.00    +0.000 A 
ATOM      4  C   UNL     1       0.857  10.691  19.452  0.00  0.00    +0.000 A 
ATOM      5  C   UNL     1       0.467  10.379  20.746  0.00  0.00    +0.000 A 
ATOM      6  C   UNL     1      -0.174  11.298  21.581  0.00  0.00    +0.000 A 
ATOM      7  S   UNL     1       0.725   8.799  21.415  0.00  0.00    +0.000 S 
ATOM      8  O   UNL     1      -0.586   8.198  21.542  0.00  0.00    +0.000 OA
ATOM      9  O   UNL     1       1.605   8.968  22.552  0.00  0.00    +0.000 OA
ATOM     10  C   UNL     1       1.594   7.844  20.255  0.00  0.00    +0.000 A 
ATOM     11  C   UNL     1       1.942   6.556  20.655  0.00  0.00    +0.000 A 
ATOM     12  C   UNL     1       2.623   5.727  19.776  0.00  0.00    +0.000 A 
ATOM     13  C   UNL     1       2.983   6.148  18.490  0.00  0.00    +0.000 A 
ATOM     14  C   UNL     1       2.611   7.466  18.125  0.00  0.00    +0.000 A 
ATOM     15  C   UNL     1       1.916   8.334  19.001  0.00  0.00    +0.000 A 
ATOM     16  C   UNL     1       1.561   9.719  18.552  0.00  0.00    +0.000 C 
ATOM     17  O   UNL     1       1.856  10.079  17.419  0.00  0.00    +0.000 OA
ENDROOT
BRANCH   1  20
ATOM     18  C   UNL     1      -2.718  15.286  22.460  0.00  0.00    +0.000 C 
ATOM     19  N   UNL     1      -1.952  14.462  21.558  0.00  0.00    +0.000 N 
ATOM     20  C   UNL     1      -1.130  13.492  22.080  0.00  0.00    +0.000 C 
ATOM     21  O   UNL     1      -0.968  13.323  23.285  0.00  0.00    +0.000 OA
ATOM     22  H   UNL     1      -2.232  14.413  20.589  0.00  0.00    +0.000 HD
ENDBRANCH   1  20
BRANCH  13  23
ATOM     23  N   UNL     1       3.687   5.311  17.641  0.00  0.00    +0.000 N 
ATOM     24  C   UNL     1       3.315   3.916  17.435  0.00  0.00    +0.000 C 
ATOM     25  C   UNL     1       4.943   5.715  17.012  0.00  0.00    +0.000 C 
ENDBRANCH  13  23
TORSDOF 2
ENDMDL
MODEL 9
REMARK VINA RESULT:      -6.7      1.677      2.970
REMARK  Name = 
REMARK  5 active torsions:
REMARK  status: ('A' for Active; 'I' for Inactive)
REMARK    1  A    between atoms: C_1  and  N_2
REMARK    2  A    between atoms: C_3  and  C_5
REMARK    3  A    between atoms: C_17  and  N_18
REMARK    4  A    between atoms: N_18  and  C_19
REMARK    5  A    between atoms: N_18  and  C_20
REMARK                            x       y       z     vdW  Elec       q    Type
REMARK                         _______ _______ _______ _____ _____    ______ ____
ROOT
ATOM      1  C   UNL     1       2.568   6.993  18.797  0.00  0.00    +0.000 A 
ATOM      2  C   UNL     1       2.341   6.505  20.088  0.00  0.00    +0.000 A 
ATOM      3  C   UNL     1       1.629   7.285  21.025  0.00  0.00    +0.000 A 
ATOM      4  C   UNL     1       1.125   8.555  20.684  0.00  0.00    +0.000 A 
ATOM      5  C   UNL     1       1.361   9.000  19.392  0.00  0.00    +0.000 A 
ATOM      6  C   UNL     1       2.077   8.249  18.456  0.00  0.00    +0.000 A 
ATOM      7  S   UNL     1       0.752  10.526  18.834  0.00  0.00    +0.000 S 
ATOM      8  O   UNL     1      -0.283  10.216  17.870  0.00  0.00    +0.000 OA
ATOM      9  O   UNL     1       1.903  11.333  18.490  0.00  0.00    +0.000 OA
ATOM     10  C   UNL     1      -0.034  11.325  20.160  0.00  0.00    +0.000 A 
ATOM     11  C   UNL     1      -0.532  12.600  19.902  0.00  0.00    +0.000 A 
ATOM     12  C   UNL     1      -1.188  13.294  20.908  0.00  0.00    +0.000 A 
ATOM     13  C   UNL     1      -1.361  12.755  22.189  0.00  0.00    +0.000 A 
ATOM     14  C   UNL     1      -0.837  11.456  22.408  0.00  0.00    +0.000 A 
ATOM     15  C   UNL     1      -0.164  10.724  21.400  0.00  0.00    +0.000 A 
ATOM     16  C   UNL     1       0.372   9.358  21.704  0.00  0.00    +0.000 C 
ATOM     17  O   UNL     1       0.201   8.877  22.817  0.00  0.00    +0.000 OA
ENDROOT
BRANCH   1  20
ATOM     18  C   UNL     1       5.149   6.297  16.138  0.00  0.00    +0.000 C 
ATOM     19  N   UNL     1       4.296   6.988  17.073  0.00  0.00    +0.000 N 
ATOM     20  C   UNL     1       3.332   6.276  17.746  0.00  0.00    +0.000 C 
ATOM     21  O   UNL     1       3.120   5.082  17.554  0.00  0.00    +0.000 OA
ATOM     22  H   UNL     1       4.589   7.890  17.423  0.00  0.00    +0.000 HD
ENDBRANCH   1  20
BRANCH  13  23
ATOM     23  N   UNL     1      -1.995  13.479  23.183  0.00  0.00    +0.000 N 
ATOM     24  C   UNL     1      -1.326  14.544  23.921  0.00  0.00    +0.000 C 
ATOM     25  C   UNL     1      -3.326  13.127  23.676  0.00  0.00    +0.000 C 
ENDBRANCH  13  23
TORSDOF 2
ENDMDL
