MODEL 1
REMARK VINA RESULT:      -8.4      0.000      0.000
REMARK  Name = 
REMARK  4 active torsions:
REMARK  status: ('A' for Active; 'I' for Inactive)
REMARK    1  A    between atoms: C_1  and  C_2
REMARK    2  A    between atoms: C_5  and  C_6
REMARK    3  A    between atoms: N_14  and  C_15
REMARK    4  A    between atoms: C_15  and  C_16
REMARK                            x       y       z     vdW  Elec       q    Type
REMARK                         _______ _______ _______ _____ _____    ______ ____
ROOT
ATOM      1  C   UNL     1       6.784   4.446  17.371  0.00  0.00    +0.000 C 
ATOM      2  O   UNL     1       7.820   4.408  18.029  0.00  0.00    +0.000 OA
ATOM      3  N   UNL     1       5.523   4.508  17.956  0.00  0.00    +0.000 N 
ATOM      4  C   UNL     1       5.379   4.694  19.394  0.00  0.00    +0.000 C 
ATOM      5  C   UNL     1       4.060   4.030  19.774  0.00  0.00    +0.000 C 
ATOM      6  C   UNL     1       3.267   4.099  18.482  0.00  0.00    +0.000 C 
ATOM      7  C   UNL     1       2.065   3.150  18.198  0.00  0.00    +0.000 C 
ATOM      8  C   UNL     1       1.456   4.403  17.503  0.00  0.00    +0.000 C 
ATOM      9  N   UNL     1       2.214   5.196  18.497  0.00  0.00    +0.000 NA
ATOM     10  C   UNL     1       4.298   4.025  17.339  0.00  0.00    +0.000 C 
ENDROOT
BRANCH   1  15
ATOM     11  C   UNL     1       7.147   4.879  11.663  0.00  0.00    +0.000 C 
ATOM     12  C   UNL     1       7.086   4.676  13.148  0.00  0.00    +0.000 A 
ATOM     13  C   UNL     1       6.230   3.724  13.693  0.00  0.00    +0.000 A 
ATOM     14  C   UNL     1       6.125   3.630  15.079  0.00  0.00    +0.000 A 
ATOM     15  C   UNL     1       6.902   4.455  15.895  0.00  0.00    +0.000 A 
ATOM     16  C   UNL     1       7.719   5.384  15.268  0.00  0.00    +0.000 A 
ATOM     17  N   UNL     1       7.834   5.504  13.918  0.00  0.00    +0.000 NA
ENDBRANCH   1  15
BRANCH   9  18
ATOM     18  C   UNL     1       2.718   6.498  18.068  0.00  0.00    +0.000 C 
BRANCH  18  19
ATOM     19  C   UNL     1       2.116   7.739  18.701  0.00  0.00    +0.000 A 
ATOM     20  C   UNL     1       1.739   8.881  17.980  0.00  0.00    +0.000 A 
ATOM     21  C   UNL     1       1.126   9.960  18.631  0.00  0.00    +0.000 A 
ATOM     22  C   UNL     1       0.863   9.885  19.993  0.00  0.00    +0.000 A 
ATOM     23  F   UNL     1       0.260  10.907  20.611  0.00  0.00    +0.000 F 
ATOM     24  C   UNL     1       1.207   8.755  20.726  0.00  0.00    +0.000 A 
ATOM     25  C   UNL     1       1.829   7.690  20.082  0.00  0.00    +0.000 A 
ENDBRANCH  18  19
ENDBRANCH   9  18
TORSDOF 3
ENDMDL
MODEL 2
REMARK VINA RESULT:      -8.1      3.442      7.683
REMARK  Name = 
REMARK  4 active torsions:
REMARK  status: ('A' for Active; 'I' for Inactive)
REMARK    1  A    between atoms: C_1  and  C_2
REMARK    2  A    between atoms: C_5  and  C_6
REMARK    3  A    between atoms: N_14  and  C_15
REMARK    4  A    between atoms: C_15  and  C_16
REMARK                            x       y       z     vdW  Elec       q    Type
REMARK                         _______ _______ _______ _____ _____    ______ ____
ROOT
ATOM      1  C   UNL     1       2.536   5.748  19.005  0.00  0.00    +0.000 C 
ATOM      2  O   UNL     1       1.686   4.909  19.291  0.00  0.00    +0.000 OA
ATOM      3  N   UNL     1       3.827   5.408  18.616  0.00  0.00    +0.000 N 
ATOM      4  C   UNL     1       4.189   4.018  18.375  0.00  0.00    +0.000 C 
ATOM      5  C   UNL     1       5.680   3.912  18.678  0.00  0.00    +0.000 C 
ATOM      6  C   UNL     1       6.171   5.327  18.433  0.00  0.00    +0.000 C 
ATOM      7  C   UNL     1       7.497   5.861  19.052  0.00  0.00    +0.000 C 
ATOM      8  C   UNL     1       7.629   6.618  17.699  0.00  0.00    +0.000 C 
ATOM      9  N   UNL     1       6.898   5.476  17.106  0.00  0.00    +0.000 NA
ATOM     10  C   UNL     1       4.995   6.259  18.784  0.00  0.00    +0.000 C 
ENDROOT
BRANCH   1  15
ATOM     11  C   UNL     1       0.657  11.157  19.348  0.00  0.00    +0.000 C 
ATOM     12  C   UNL     1       1.235   9.778  19.232  0.00  0.00    +0.000 A 
ATOM     13  C   UNL     1       1.651   9.291  17.996  0.00  0.00    +0.000 A 
ATOM     14  C   UNL     1       2.089   7.972  17.906  0.00  0.00    +0.000 A 
ATOM     15  C   UNL     1       2.142   7.175  19.051  0.00  0.00    +0.000 A 
ATOM     16  C   UNL     1       1.697   7.735  20.239  0.00  0.00    +0.000 A 
ATOM     17  N   UNL     1       1.256   9.018  20.354  0.00  0.00    +0.000 NA
ENDBRANCH   1  15
BRANCH   9  18
ATOM     18  C   UNL     1       6.011   5.761  15.981  0.00  0.00    +0.000 C 
BRANCH  18  19
ATOM     19  C   UNL     1       6.325   5.115  14.644  0.00  0.00    +0.000 A 
ATOM     20  C   UNL     1       7.479   5.387  13.895  0.00  0.00    +0.000 A 
ATOM     21  C   UNL     1       7.729   4.697  12.702  0.00  0.00    +0.000 A 
ATOM     22  C   UNL     1       6.843   3.715  12.274  0.00  0.00    +0.000 A 
ATOM     23  F   UNL     1       7.092   3.043  11.144  0.00  0.00    +0.000 F 
ATOM     24  C   UNL     1       5.704   3.411  13.010  0.00  0.00    +0.000 A 
ATOM     25  C   UNL     1       5.449   4.108  14.187  0.00  0.00    +0.000 A 
ENDBRANCH  18  19
ENDBRANCH   9  18
TORSDOF 3
ENDMDL
MODEL 3
REMARK VINA RESULT:      -8.1      3.370      7.602
REMARK  Name = 
REMARK  4 active torsions:
REMARK  status: ('A' for Active; 'I' for Inactive)
REMARK    1  A    between atoms: C_1  and  C_2
REMARK    2  A    between atoms: C_5  and  C_6
REMARK    3  A    between atoms: N_14  and  C_15
REMARK    4  A    between atoms: C_15  and  C_16
REMARK                            x       y       z     vdW  Elec       q    Type
REMARK                         _______ _______ _______ _____ _____    ______ ____
ROOT
ATOM      1  C   UNL     1       2.595   5.667  18.709  0.00  0.00    +0.000 C 
ATOM      2  O   UNL     1       1.729   4.802  18.807  0.00  0.00    +0.000 OA
ATOM      3  N   UNL     1       3.922   5.373  18.415  0.00  0.00    +0.000 N 
ATOM      4  C   UNL     1       4.320   4.020  18.049  0.00  0.00    +0.000 C 
ATOM      5  C   UNL     1       5.774   3.877  18.486  0.00  0.00    +0.000 C 
ATOM      6  C   UNL     1       6.274   5.310  18.460  0.00  0.00    +0.000 C 
ATOM      7  C   UNL     1       7.524   5.765  19.268  0.00  0.00    +0.000 C 
ATOM      8  C   UNL     1       7.784   6.676  18.034  0.00  0.00    +0.000 C 
ATOM      9  N   UNL     1       7.128   5.613  17.240  0.00  0.00    +0.000 NA
ATOM     10  C   UNL     1       5.058   6.196  18.799  0.00  0.00    +0.000 C 
ENDROOT
BRANCH   1  15
ATOM     11  C   UNL     1       0.655  11.001  19.543  0.00  0.00    +0.000 C 
ATOM     12  C   UNL     1       1.248   9.644  19.300  0.00  0.00    +0.000 A 
ATOM     13  C   UNL     1       1.645   9.270  18.020  0.00  0.00    +0.000 A 
ATOM     14  C   UNL     1       2.098   7.969  17.810  0.00  0.00    +0.000 A 
ATOM     15  C   UNL     1       2.184   7.079  18.883  0.00  0.00    +0.000 A 
ATOM     16  C   UNL     1       1.755   7.531  20.122  0.00  0.00    +0.000 A 
ATOM     17  N   UNL     1       1.301   8.793  20.353  0.00  0.00    +0.000 NA
ENDBRANCH   1  15
BRANCH   9  18
ATOM     18  C   UNL     1       6.356   6.031  16.073  0.00  0.00    +0.000 C 
BRANCH  18  19
ATOM     19  C   UNL     1       6.347   5.119  14.859  0.00  0.00    +0.000 A 
ATOM     20  C   UNL     1       5.278   4.277  14.521  0.00  0.00    +0.000 A 
ATOM     21  C   UNL     1       5.319   3.516  13.346  0.00  0.00    +0.000 A 
ATOM     22  C   UNL     1       6.412   3.620  12.495  0.00  0.00    +0.000 A 
ATOM     23  F   UNL     1       6.443   2.907  11.363  0.00  0.00    +0.000 F 
ATOM     24  C   UNL     1       7.475   4.464  12.796  0.00  0.00    +0.000 A 
ATOM     25  C   UNL     1       7.440   5.209  13.971  0.00  0.00    +0.000 A 
ENDBRANCH  18  19
ENDBRANCH   9  18
TORSDOF 3
ENDMDL
MODEL 4
REMARK VINA RESULT:      -8.0      1.477      1.888
REMARK  Name = 
REMARK  4 active torsions:
REMARK  status: ('A' for Active; 'I' for Inactive)
REMARK    1  A    between atoms: C_1  and  C_2
REMARK    2  A    between atoms: C_5  and  C_6
REMARK    3  A    between atoms: N_14  and  C_15
REMARK    4  A    between atoms: C_15  and  C_16
REMARK                            x       y       z     vdW  Elec       q    Type
REMARK                         _______ _______ _______ _____ _____    ______ ____
ROOT
ATOM      1  C   UNL     1       6.832   5.509  15.853  0.00  0.00    +0.000 C 
ATOM      2  O   UNL     1       7.813   6.248  15.829  0.00  0.00    +0.000 OA
ATOM      3  N   UNL     1       6.057   5.325  16.993  0.00  0.00    +0.000 N 
ATOM      4  C   UNL     1       6.281   6.133  18.184  0.00  0.00    +0.000 C 
ATOM      5  C   UNL     1       5.845   5.273  19.365  0.00  0.00    +0.000 C 
ATOM      6  C   UNL     1       4.826   4.338  18.739  0.00  0.00    +0.000 C 
ATOM      7  C   UNL     1       4.444   2.976  19.390  0.00  0.00    +0.000 C 
ATOM      8  C   UNL     1       3.020   3.313  18.861  0.00  0.00    +0.000 C 
ATOM      9  N   UNL     1       3.393   4.731  19.059  0.00  0.00    +0.000 NA
ATOM     10  C   UNL     1       5.269   4.135  17.277  0.00  0.00    +0.000 C 
ENDROOT
BRANCH   1  15
ATOM     11  C   UNL     1       5.261   2.512  11.221  0.00  0.00    +0.000 C 
ATOM     12  C   UNL     1       5.686   3.372  12.375  0.00  0.00    +0.000 A 
ATOM     13  C   UNL     1       6.985   3.864  12.443  0.00  0.00    +0.000 A 
ATOM     14  C   UNL     1       7.376   4.576  13.576  0.00  0.00    +0.000 A 
ATOM     15  C   UNL     1       6.457   4.817  14.599  0.00  0.00    +0.000 A 
ATOM     16  C   UNL     1       5.187   4.279  14.455  0.00  0.00    +0.000 A 
ATOM     17  N   UNL     1       4.781   3.573  13.364  0.00  0.00    +0.000 NA
ENDBRANCH   1  15
BRANCH   9  18
ATOM     18  C   UNL     1       2.831   5.706  18.128  0.00  0.00    +0.000 C 
BRANCH  18  19
ATOM     19  C   UNL     1       2.312   7.016  18.694  0.00  0.00    +0.000 A 
ATOM     20  C   UNL     1       2.013   8.142  17.914  0.00  0.00    +0.000 A 
ATOM     21  C   UNL     1       1.473   9.291  18.505  0.00  0.00    +0.000 A 
ATOM     22  C   UNL     1       1.203   9.304  19.868  0.00  0.00    +0.000 A 
ATOM     23  F   UNL     1       0.669  10.395  20.430  0.00  0.00    +0.000 F 
ATOM     24  C   UNL     1       1.469   8.193  20.660  0.00  0.00    +0.000 A 
ATOM     25  C   UNL     1       2.020   7.057  20.074  0.00  0.00    +0.000 A 
ENDBRANCH  18  19
ENDBRANCH   9  18
TORSDOF 3
ENDMDL
MODEL 5
REMARK VINA RESULT:      -7.7      0.652      1.389
REMARK  Name = 
REMARK  4 active torsions:
REMARK  status: ('A' for Active; 'I' for Inactive)
REMARK    1  A    between atoms: C_1  and  C_2
REMARK    2  A    between atoms: C_5  and  C_6
REMARK    3  A    between atoms: N_14  and  C_15
REMARK    4  A    between atoms: C_15  and  C_16
REMARK                            x       y       z     vdW  Elec       q    Type
REMARK                         _______ _______ _______ _____ _____    ______ ____
ROOT
ATOM      1  C   UNL     1       6.744   4.460  17.266  0.00  0.00    +0.000 C 
ATOM      2  O   UNL     1       7.814   4.430  17.868  0.00  0.00    +0.000 OA
ATOM      3  N   UNL     1       5.516   4.515  17.917  0.00  0.00    +0.000 N 
ATOM      4  C   UNL     1       5.447   4.702  19.360  0.00  0.00    +0.000 C 
ATOM      5  C   UNL     1       4.155   4.030  19.810  0.00  0.00    +0.000 C 
ATOM      6  C   UNL     1       3.293   4.093  18.562  0.00  0.00    +0.000 C 
ATOM      7  C   UNL     1       2.085   3.136  18.343  0.00  0.00    +0.000 C 
ATOM      8  C   UNL     1       1.432   4.384  17.681  0.00  0.00    +0.000 C 
ATOM      9  N   UNL     1       2.236   5.182  18.632  0.00  0.00    +0.000 NA
ATOM     10  C   UNL     1       4.263   4.024  17.366  0.00  0.00    +0.000 C 
ENDROOT
BRANCH   1  15
ATOM     11  C   UNL     1       6.997   4.098  11.546  0.00  0.00    +0.000 C 
ATOM     12  C   UNL     1       6.895   4.282  13.031  0.00  0.00    +0.000 A 
ATOM     13  C   UNL     1       7.665   5.245  13.675  0.00  0.00    +0.000 A 
ATOM     14  C   UNL     1       7.622   5.322  15.066  0.00  0.00    +0.000 A 
ATOM     15  C   UNL     1       6.783   4.469  15.785  0.00  0.00    +0.000 A 
ATOM     16  C   UNL     1       6.060   3.530  15.065  0.00  0.00    +0.000 A 
ATOM     17  N   UNL     1       6.090   3.427  13.709  0.00  0.00    +0.000 NA
ENDBRANCH   1  15
BRANCH   9  18
ATOM     18  C   UNL     1       2.708   6.487  18.176  0.00  0.00    +0.000 C 
BRANCH  18  19
ATOM     19  C   UNL     1       2.043   7.726  18.748  0.00  0.00    +0.000 A 
ATOM     20  C   UNL     1       1.709   7.881  20.101  0.00  0.00    +0.000 A 
ATOM     21  C   UNL     1       1.159   9.083  20.562  0.00  0.00    +0.000 A 
ATOM     22  C   UNL     1       0.972  10.140  19.680  0.00  0.00    +0.000 A 
ATOM     23  F   UNL     1       0.465  11.296  20.125  0.00  0.00    +0.000 F 
ATOM     24  C   UNL     1       1.316  10.020  18.339  0.00  0.00    +0.000 A 
ATOM     25  C   UNL     1       1.849   8.820  17.878  0.00  0.00    +0.000 A 
ENDBRANCH  18  19
ENDBRANCH   9  18
TORSDOF 3
ENDMDL
MODEL 6
REMARK VINA RESULT:      -7.6      0.398      1.042
REMARK  Name = 
REMARK  4 active torsions:
REMARK  status: ('A' for Active; 'I' for Inactive)
REMARK    1  A    between atoms: C_1  and  C_2
REMARK    2  A    between atoms: C_5  and  C_6
REMARK    3  A    between atoms: N_14  and  C_15
REMARK    4  A    between atoms: C_15  and  C_16
REMARK                            x       y       z     vdW  Elec       q    Type
REMARK                         _______ _______ _______ _____ _____    ______ ____
ROOT
ATOM      1  C   UNL     1       6.886   4.892  17.225  0.00  0.00    +0.000 C 
ATOM      2  O   UNL     1       7.941   5.091  17.821  0.00  0.00    +0.000 OA
ATOM      3  N   UNL     1       5.653   4.857  17.868  0.00  0.00    +0.000 N 
ATOM      4  C   UNL     1       5.538   5.217  19.275  0.00  0.00    +0.000 C 
ATOM      5  C   UNL     1       4.346   4.432  19.814  0.00  0.00    +0.000 C 
ATOM      6  C   UNL     1       3.503   4.211  18.571  0.00  0.00    +0.000 C 
ATOM      7  C   UNL     1       2.444   3.073  18.483  0.00  0.00    +0.000 C 
ATOM      8  C   UNL     1       1.632   4.120  17.667  0.00  0.00    +0.000 C 
ATOM      9  N   UNL     1       2.302   5.140  18.503  0.00  0.00    +0.000 NA
ATOM     10  C   UNL     1       4.490   4.126  17.390  0.00  0.00    +0.000 C 
ENDROOT
BRANCH   1  15
ATOM     11  C   UNL     1       7.028   4.602  11.498  0.00  0.00    +0.000 C 
ATOM     12  C   UNL     1       7.024   4.587  12.997  0.00  0.00    +0.000 A 
ATOM     13  C   UNL     1       6.176   3.728  13.690  0.00  0.00    +0.000 A 
ATOM     14  C   UNL     1       6.124   3.810  15.080  0.00  0.00    +0.000 A 
ATOM     15  C   UNL     1       6.945   4.715  15.756  0.00  0.00    +0.000 A 
ATOM     16  C   UNL     1       7.750   5.542  14.987  0.00  0.00    +0.000 A 
ATOM     17  N   UNL     1       7.814   5.490  13.629  0.00  0.00    +0.000 NA
ENDBRANCH   1  15
BRANCH   9  18
ATOM     18  C   UNL     1       2.592   6.429  17.880  0.00  0.00    +0.000 C 
BRANCH  18  19
ATOM     19  C   UNL     1       2.015   7.678  18.521  0.00  0.00    +0.000 A 
ATOM     20  C   UNL     1       1.696   7.782  19.883  0.00  0.00    +0.000 A 
ATOM     21  C   UNL     1       1.231   8.993  20.411  0.00  0.00    +0.000 A 
ATOM     22  C   UNL     1       1.115  10.106  19.587  0.00  0.00    +0.000 A 
ATOM     23  F   UNL     1       0.690  11.268  20.097  0.00  0.00    +0.000 F 
ATOM     24  C   UNL     1       1.447  10.035  18.240  0.00  0.00    +0.000 A 
ATOM     25  C   UNL     1       1.895   8.828  17.712  0.00  0.00    +0.000 A 
ENDBRANCH  18  19
ENDBRANCH   9  18
TORSDOF 3
ENDMDL
MODEL 7
REMARK VINA RESULT:      -7.6      1.359      1.968
REMARK  Name = 
REMARK  4 active torsions:
REMARK  status: ('A' for Active; 'I' for Inactive)
REMARK    1  A    between atoms: C_1  and  C_2
REMARK    2  A    between atoms: C_5  and  C_6
REMARK    3  A    between atoms: N_14  and  C_15
REMARK    4  A    between atoms: C_15  and  C_16
REMARK                            x       y       z     vdW  Elec       q    Type
REMARK                         _______ _______ _______ _____ _____    ______ ____
ROOT
ATOM      1  C   UNL     1       6.815   5.451  15.924  0.00  0.00    +0.000 C 
ATOM      2  O   UNL     1       7.770   6.221  15.850  0.00  0.00    +0.000 OA
ATOM      3  N   UNL     1       6.067   5.289  17.085  0.00  0.00    +0.000 N 
ATOM      4  C   UNL     1       6.285   6.153  18.237  0.00  0.00    +0.000 C 
ATOM      5  C   UNL     1       5.900   5.329  19.461  0.00  0.00    +0.000 C 
ATOM      6  C   UNL     1       4.902   4.336  18.894  0.00  0.00    +0.000 C 
ATOM      7  C   UNL     1       4.579   2.990  19.607  0.00  0.00    +0.000 C 
ATOM      8  C   UNL     1       3.135   3.257  19.093  0.00  0.00    +0.000 C 
ATOM      9  N   UNL     1       3.463   4.694  19.225  0.00  0.00    +0.000 NA
ATOM     10  C   UNL     1       5.326   4.086  17.433  0.00  0.00    +0.000 C 
ENDROOT
BRANCH   1  15
ATOM     11  C   UNL     1       5.472   2.851  10.990  0.00  0.00    +0.000 C 
ATOM     12  C   UNL     1       5.809   3.446  12.325  0.00  0.00    +0.000 A 
ATOM     13  C   UNL     1       4.842   3.529  13.322  0.00  0.00    +0.000 A 
ATOM     14  C   UNL     1       5.159   4.178  14.514  0.00  0.00    +0.000 A 
ATOM     15  C   UNL     1       6.441   4.695  14.706  0.00  0.00    +0.000 A 
ATOM     16  C   UNL     1       7.339   4.580  13.656  0.00  0.00    +0.000 A 
ATOM     17  N   UNL     1       7.054   3.960  12.478  0.00  0.00    +0.000 NA
ENDBRANCH   1  15
BRANCH   9  18
ATOM     18  C   UNL     1       2.851   5.610  18.266  0.00  0.00    +0.000 C 
BRANCH  18  19
ATOM     19  C   UNL     1       2.251   6.900  18.794  0.00  0.00    +0.000 A 
ATOM     20  C   UNL     1       1.908   7.111  20.138  0.00  0.00    +0.000 A 
ATOM     21  C   UNL     1       1.423   8.355  20.559  0.00  0.00    +0.000 A 
ATOM     22  C   UNL     1       1.309   9.396  19.645  0.00  0.00    +0.000 A 
ATOM     23  F   UNL     1       0.863  10.591  20.051  0.00  0.00    +0.000 F 
ATOM     24  C   UNL     1       1.663   9.219  18.313  0.00  0.00    +0.000 A 
ATOM     25  C   UNL     1       2.131   7.978  17.892  0.00  0.00    +0.000 A 
ENDBRANCH  18  19
ENDBRANCH   9  18
TORSDOF 3
ENDMDL
MODEL 8
REMARK VINA RESULT:      -7.5      0.997      1.289
REMARK  Name = 
REMARK  4 active torsions:
REMARK  status: ('A' for Active; 'I' for Inactive)
REMARK    1  A    between atoms: C_1  and  C_2
REMARK    2  A    between atoms: C_5  and  C_6
REMARK    3  A    between atoms: N_14  and  C_15
REMARK    4  A    between atoms: C_15  and  C_16
REMARK                            x       y       z     vdW  Elec       q    Type
REMARK                         _______ _______ _______ _____ _____    ______ ____
ROOT
ATOM      1  C   UNL     1       6.835   4.909  17.097  0.00  0.00    +0.000 C 
ATOM      2  O   UNL     1       7.763   5.498  17.645  0.00  0.00    +0.000 OA
ATOM      3  N   UNL     1       5.710   4.470  17.787  0.00  0.00    +0.000 N 
ATOM      4  C   UNL     1       5.506   4.833  19.184  0.00  0.00    +0.000 C 
ATOM      5  C   UNL     1       4.684   3.704  19.796  0.00  0.00    +0.000 C 
ATOM      6  C   UNL     1       3.947   3.139  18.596  0.00  0.00    +0.000 C 
ATOM      7  C   UNL     1       3.360   1.696  18.590  0.00  0.00    +0.000 C 
ATOM      8  C   UNL     1       2.211   2.346  17.767  0.00  0.00    +0.000 C 
ATOM      9  N   UNL     1       2.492   3.577  18.539  0.00  0.00    +0.000 NA
ATOM     10  C   UNL     1       4.872   3.352  17.382  0.00  0.00    +0.000 C 
ENDROOT
BRANCH   1  15
ATOM     11  C   UNL     1       7.100   4.475  11.383  0.00  0.00    +0.000 C 
ATOM     12  C   UNL     1       7.059   4.496  12.883  0.00  0.00    +0.000 A 
ATOM     13  C   UNL     1       6.151   3.699  13.572  0.00  0.00    +0.000 A 
ATOM     14  C   UNL     1       6.070   3.817  14.958  0.00  0.00    +0.000 A 
ATOM     15  C   UNL     1       6.920   4.694  15.634  0.00  0.00    +0.000 A 
ATOM     16  C   UNL     1       7.786   5.459  14.868  0.00  0.00    +0.000 A 
ATOM     17  N   UNL     1       7.880   5.371  13.513  0.00  0.00    +0.000 NA
ENDBRANCH   1  15
BRANCH   9  18
ATOM     18  C   UNL     1       2.291   4.853  17.858  0.00  0.00    +0.000 C 
BRANCH  18  19
ATOM     19  C   UNL     1       2.117   6.097  18.710  0.00  0.00    +0.000 A 
ATOM     20  C   UNL     1       2.136   7.404  18.202  0.00  0.00    +0.000 A 
ATOM     21  C   UNL     1       1.900   8.496  19.045  0.00  0.00    +0.000 A 
ATOM     22  C   UNL     1       1.614   8.282  20.388  0.00  0.00    +0.000 A 
ATOM     23  F   UNL     1       1.368   9.325  21.190  0.00  0.00    +0.000 F 
ATOM     24  C   UNL     1       1.567   6.996  20.912  0.00  0.00    +0.000 A 
ATOM     25  C   UNL     1       1.817   5.911  20.076  0.00  0.00    +0.000 A 
ENDBRANCH  18  19
ENDBRANCH   9  18
TORSDOF 3
ENDMDL
MODEL 9
REMARK VINA RESULT:      -7.4      4.522      6.956
REMARK  Name = 
REMARK  4 active torsions:
REMARK  status: ('A' for Active; 'I' for Inactive)
REMARK    1  A    between atoms: C_1  and  C_2
REMARK    2  A    between atoms: C_5  and  C_6
REMARK    3  A    between atoms: N_14  and  C_15
REMARK    4  A    between atoms: C_15  and  C_16
REMARK                            x       y       z     vdW  Elec       q    Type
REMARK                         _______ _______ _______ _____ _____    ______ ____
ROOT
ATOM      1  C   UNL     1       2.579   7.555  18.158  0.00  0.00    +0.000 C 
ATOM      2  O   UNL     1       3.461   7.508  17.305  0.00  0.00    +0.000 OA
ATOM      3  N   UNL     1       1.923   8.734  18.497  0.00  0.00    +0.000 N 
ATOM      4  C   UNL     1       2.145   9.955  17.734  0.00  0.00    +0.000 C 
ATOM      5  C   UNL     1       1.908  11.107  18.704  0.00  0.00    +0.000 C 
ATOM      6  C   UNL     1       0.958  10.498  19.720  0.00  0.00    +0.000 C 
ATOM      7  C   UNL     1       0.791  11.086  21.152  0.00  0.00    +0.000 C 
ATOM      8  C   UNL     1      -0.700  10.684  20.962  0.00  0.00    +0.000 C 
ATOM      9  N   UNL     1      -0.481  10.945  19.522  0.00  0.00    +0.000 NA
ATOM     10  C   UNL     1       1.305   8.997  19.787  0.00  0.00    +0.000 C 
ENDROOT
BRANCH   1  15
ATOM     11  C   UNL     1       1.435   2.646  20.896  0.00  0.00    +0.000 C 
ATOM     12  C   UNL     1       1.642   3.932  20.152  0.00  0.00    +0.000 A 
ATOM     13  C   UNL     1       1.495   3.976  18.770  0.00  0.00    +0.000 A 
ATOM     14  C   UNL     1       1.792   5.161  18.099  0.00  0.00    +0.000 A 
ATOM     15  C   UNL     1       2.188   6.290  18.820  0.00  0.00    +0.000 A 
ATOM     16  C   UNL     1       2.320   6.154  20.194  0.00  0.00    +0.000 A 
ATOM     17  N   UNL     1       2.047   5.007  20.873  0.00  0.00    +0.000 NA
ENDBRANCH   1  15
BRANCH   9  18
ATOM     18  C   UNL     1      -1.225  10.122  18.573  0.00  0.00    +0.000 C 
BRANCH  18  19
ATOM     19  C   UNL     1      -2.486  10.704  17.959  0.00  0.00    +0.000 A 
ATOM     20  C   UNL     1      -2.947  10.389  16.673  0.00  0.00    +0.000 A 
ATOM     21  C   UNL     1      -4.157  10.917  16.206  0.00  0.00    +0.000 A 
ATOM     22  C   UNL     1      -4.920  11.731  17.033  0.00  0.00    +0.000 A 
ATOM     23  F   UNL     1      -6.087  12.219  16.594  0.00  0.00    +0.000 F 
ATOM     24  C   UNL     1      -4.496  12.040  18.320  0.00  0.00    +0.000 A 
ATOM     25  C   UNL     1      -3.287  11.527  18.779  0.00  0.00    +0.000 A 
ENDBRANCH  18  19
ENDBRANCH   9  18
TORSDOF 3
ENDMDL
