MODEL 1
REMARK VINA RESULT:      -6.7      0.000      0.000
REMARK  Name = 
REMARK  5 active torsions:
REMARK  status: ('A' for Active; 'I' for Inactive)
REMARK    1  A    between atoms: C_1  and  S_2
REMARK    2  A    between atoms: S_2  and  N_5
REMARK    3  A    between atoms: C_6  and  C_8
REMARK    4  A    between atoms: N_11  and  C_12
REMARK    5  A    between atoms: C_18  and  C_19
REMARK                            x       y       z     vdW  Elec       q    Type
REMARK                         _______ _______ _______ _____ _____    ______ ____
ROOT
ATOM      1  C   UNL     1       3.194   7.028  17.968  0.00  0.00    +0.000 A 
ATOM      2  N   UNL     1       2.893   8.167  17.261  0.00  0.00    +0.000 NA
ATOM      3  N   UNL     1       2.118   8.931  18.017  0.00  0.00    +0.000 NA
ATOM      4  N   UNL     1       1.833   8.261  19.162  0.00  0.00    +0.000 N 
ATOM      5  C   UNL     1       2.448   7.015  19.136  0.00  0.00    +0.000 A 
ENDROOT
BRANCH   4   6
ATOM      6  C   UNL     1       1.074   8.856  20.202  0.00  0.00    +0.000 A 
ATOM      7  C   UNL     1       1.324   8.543  21.543  0.00  0.00    +0.000 A 
ATOM      8  C   UNL     1       0.715   9.268  22.566  0.00  0.00    +0.000 A 
ATOM      9  C   UNL     1      -0.169  10.294  22.252  0.00  0.00    +0.000 A 
ATOM     10  C   UNL     1      -0.486  10.560  20.919  0.00  0.00    +0.000 A 
ATOM     11  C   UNL     1       0.117   9.830  19.891  0.00  0.00    +0.000 A 
ENDBRANCH   4   6
BRANCH   1  13
ATOM     12  N   UNL     1       5.519   6.492  18.138  0.00  0.00    +0.000 N 
ATOM     13  C   UNL     1       4.289   6.158  17.568  0.00  0.00    +0.000 C 
ATOM     14  O   UNL     1       4.139   5.162  16.876  0.00  0.00    +0.000 OA
ATOM     15  H   UNL     1       5.598   7.277  18.780  0.00  0.00    +0.000 HD
BRANCH  12  17
ATOM     16  C   UNL     1       8.143   6.579  18.748  0.00  0.00    +0.000 C 
ATOM     17  S   UNL     1       6.933   5.734  17.745  0.00  0.00    +0.000 S 
ATOM     18  O   UNL     1       7.183   6.083  16.360  0.00  0.00    +0.000 OA
ATOM     19  O   UNL     1       6.848   4.350  18.144  0.00  0.00    +0.000 OA
ENDBRANCH  12  17
ENDBRANCH   1  13
BRANCH   5  20
ATOM     20  C   UNL     1       2.501   5.999  20.269  0.00  0.00    +0.000 C 
ATOM     21  C   UNL     1       1.366   5.012  20.407  0.00  0.00    +0.000 C 
ATOM     22  C   UNL     1       2.738   4.531  20.056  0.00  0.00    +0.000 C 
ENDBRANCH   5  20
TORSDOF 4
ENDMDL
MODEL 2
REMARK VINA RESULT:      -6.4      0.525      1.177
REMARK  Name = 
REMARK  5 active torsions:
REMARK  status: ('A' for Active; 'I' for Inactive)
REMARK    1  A    between atoms: C_1  and  S_2
REMARK    2  A    between atoms: S_2  and  N_5
REMARK    3  A    between atoms: C_6  and  C_8
REMARK    4  A    between atoms: N_11  and  C_12
REMARK    5  A    between atoms: C_18  and  C_19
REMARK                            x       y       z     vdW  Elec       q    Type
REMARK                         _______ _______ _______ _____ _____    ______ ____
ROOT
ATOM      1  C   UNL     1       2.899   6.983  18.290  0.00  0.00    +0.000 A 
ATOM      2  N   UNL     1       2.747   8.138  17.562  0.00  0.00    +0.000 NA
ATOM      3  N   UNL     1       2.077   9.008  18.301  0.00  0.00    +0.000 NA
ATOM      4  N   UNL     1       1.707   8.402  19.458  0.00  0.00    +0.000 N 
ATOM      5  C   UNL     1       2.157   7.087  19.456  0.00  0.00    +0.000 A 
ENDROOT
BRANCH   4   6
ATOM      6  C   UNL     1       1.030   9.108  20.484  0.00  0.00    +0.000 A 
ATOM      7  C   UNL     1       0.062  10.071  20.176  0.00  0.00    +0.000 A 
ATOM      8  C   UNL     1      -0.735  10.622  21.177  0.00  0.00    +0.000 A 
ATOM      9  C   UNL     1      -0.552  10.230  22.499  0.00  0.00    +0.000 A 
ATOM     10  C   UNL     1       0.464   9.330  22.826  0.00  0.00    +0.000 A 
ATOM     11  C   UNL     1       1.271   8.782  21.825  0.00  0.00    +0.000 A 
ENDBRANCH   4   6
BRANCH   1  13
ATOM     12  N   UNL     1       5.153   6.192  18.424  0.00  0.00    +0.000 N 
ATOM     13  C   UNL     1       3.873   5.972  17.909  0.00  0.00    +0.000 C 
ATOM     14  O   UNL     1       3.587   4.964  17.280  0.00  0.00    +0.000 OA
ATOM     15  H   UNL     1       5.343   6.996  19.017  0.00  0.00    +0.000 HD
BRANCH  12  17
ATOM     16  C   UNL     1       7.807   6.062  18.880  0.00  0.00    +0.000 C 
ATOM     17  S   UNL     1       6.457   5.256  18.034  0.00  0.00    +0.000 S 
ATOM     18  O   UNL     1       6.651   5.443  16.610  0.00  0.00    +0.000 OA
ATOM     19  O   UNL     1       6.262   3.934  18.576  0.00  0.00    +0.000 OA
ENDBRANCH  12  17
ENDBRANCH   1  13
BRANCH   5  20
ATOM     20  C   UNL     1       2.078   6.093  20.607  0.00  0.00    +0.000 C 
ATOM     21  C   UNL     1       1.133   4.921  20.486  0.00  0.00    +0.000 C 
ATOM     22  C   UNL     1       2.610   4.690  20.530  0.00  0.00    +0.000 C 
ENDBRANCH   5  20
TORSDOF 4
ENDMDL
MODEL 3
REMARK VINA RESULT:      -6.4      4.415      6.837
REMARK  Name = 
REMARK  5 active torsions:
REMARK  status: ('A' for Active; 'I' for Inactive)
REMARK    1  A    between atoms: C_1  and  S_2
REMARK    2  A    between atoms: S_2  and  N_5
REMARK    3  A    between atoms: C_6  and  C_8
REMARK    4  A    between atoms: N_11  and  C_12
REMARK    5  A    between atoms: C_18  and  C_19
REMARK                            x       y       z     vdW  Elec       q    Type
REMARK                         _______ _______ _______ _____ _____    ______ ____
ROOT
ATOM      1  C   UNL     1       1.613   9.527  18.710  0.00  0.00    +0.000 A 
ATOM      2  N   UNL     1       2.291   9.427  17.519  0.00  0.00    +0.000 NA
ATOM      3  N   UNL     1       2.711   8.177  17.387  0.00  0.00    +0.000 NA
ATOM      4  N   UNL     1       2.402   7.493  18.518  0.00  0.00    +0.000 N 
ATOM      5  C   UNL     1       1.760   8.340  19.412  0.00  0.00    +0.000 A 
ENDROOT
BRANCH   4   6
ATOM      6  C   UNL     1       2.669   6.105  18.643  0.00  0.00    +0.000 A 
ATOM      7  C   UNL     1       1.908   5.161  17.944  0.00  0.00    +0.000 A 
ATOM      8  C   UNL     1       2.291   3.822  17.916  0.00  0.00    +0.000 A 
ATOM      9  C   UNL     1       3.425   3.414  18.609  0.00  0.00    +0.000 A 
ATOM     10  C   UNL     1       4.143   4.333  19.375  0.00  0.00    +0.000 A 
ATOM     11  C   UNL     1       3.758   5.676  19.411  0.00  0.00    +0.000 A 
ENDBRANCH   4   6
BRANCH   1  13
ATOM     12  N   UNL     1      -0.477  10.618  18.306  0.00  0.00    +0.000 N 
ATOM     13  C   UNL     1       0.741  10.657  18.990  0.00  0.00    +0.000 C 
ATOM     14  O   UNL     1       0.996  11.516  19.821  0.00  0.00    +0.000 OA
ATOM     15  H   UNL     1      -0.699   9.845  17.684  0.00  0.00    +0.000 HD
BRANCH  12  17
ATOM     16  C   UNL     1      -2.786  11.363  17.132  0.00  0.00    +0.000 C 
ATOM     17  S   UNL     1      -1.583  11.844  18.359  0.00  0.00    +0.000 S 
ATOM     18  O   UNL     1      -0.884  13.013  17.861  0.00  0.00    +0.000 OA
ATOM     19  O   UNL     1      -2.196  11.864  19.665  0.00  0.00    +0.000 OA
ENDBRANCH  12  17
ENDBRANCH   1  13
BRANCH   5  20
ATOM     20  C   UNL     1       1.125   7.955  20.741  0.00  0.00    +0.000 C 
ATOM     21  C   UNL     1       1.406   8.814  21.952  0.00  0.00    +0.000 C 
ATOM     22  C   UNL     1       0.021   8.738  21.392  0.00  0.00    +0.000 C 
ENDBRANCH   5  20
TORSDOF 4
ENDMDL
MODEL 4
REMARK VINA RESULT:      -6.4      1.119      1.184
REMARK  Name = 
REMARK  5 active torsions:
REMARK  status: ('A' for Active; 'I' for Inactive)
REMARK    1  A    between atoms: C_1  and  S_2
REMARK    2  A    between atoms: S_2  and  N_5
REMARK    3  A    between atoms: C_6  and  C_8
REMARK    4  A    between atoms: N_11  and  C_12
REMARK    5  A    between atoms: C_18  and  C_19
REMARK                            x       y       z     vdW  Elec       q    Type
REMARK                         _______ _______ _______ _____ _____    ______ ____
ROOT
ATOM      1  C   UNL     1       2.950   6.954  18.552  0.00  0.00    +0.000 A 
ATOM      2  N   UNL     1       2.871   8.133  17.851  0.00  0.00    +0.000 NA
ATOM      3  N   UNL     1       2.105   8.970  18.535  0.00  0.00    +0.000 NA
ATOM      4  N   UNL     1       1.607   8.318  19.616  0.00  0.00    +0.000 N 
ATOM      5  C   UNL     1       2.071   7.009  19.623  0.00  0.00    +0.000 A 
ENDROOT
BRANCH   4   6
ATOM      6  C   UNL     1       0.802   8.980  20.579  0.00  0.00    +0.000 A 
ATOM      7  C   UNL     1       0.965   8.731  21.946  0.00  0.00    +0.000 A 
ATOM      8  C   UNL     1       0.314   9.518  22.893  0.00  0.00    +0.000 A 
ATOM      9  C   UNL     1      -0.525  10.546  22.477  0.00  0.00    +0.000 A 
ATOM     10  C   UNL     1      -0.757  10.750  21.116  0.00  0.00    +0.000 A 
ATOM     11  C   UNL     1      -0.111   9.957  20.163  0.00  0.00    +0.000 A 
ENDBRANCH   4   6
BRANCH   1  13
ATOM     12  N   UNL     1       5.089   6.032  19.097  0.00  0.00    +0.000 N 
ATOM     13  C   UNL     1       3.976   5.966  18.255  0.00  0.00    +0.000 C 
ATOM     14  O   UNL     1       3.844   5.089  17.415  0.00  0.00    +0.000 OA
ATOM     15  H   UNL     1       5.134   6.719  19.845  0.00  0.00    +0.000 HD
BRANCH  12  17
ATOM     16  C   UNL     1       7.097   5.686  17.332  0.00  0.00    +0.000 C 
ATOM     17  S   UNL     1       6.438   5.103  18.885  0.00  0.00    +0.000 S 
ATOM     18  O   UNL     1       5.947   3.754  18.681  0.00  0.00    +0.000 OA
ATOM     19  O   UNL     1       7.371   5.386  19.949  0.00  0.00    +0.000 OA
ENDBRANCH  12  17
ENDBRANCH   1  13
BRANCH   5  20
ATOM     20  C   UNL     1       1.869   5.972  20.720  0.00  0.00    +0.000 C 
ATOM     21  C   UNL     1       1.018   4.760  20.421  0.00  0.00    +0.000 C 
ATOM     22  C   UNL     1       2.481   4.601  20.690  0.00  0.00    +0.000 C 
ENDBRANCH   5  20
TORSDOF 4
ENDMDL
MODEL 5
REMARK VINA RESULT:      -6.4      1.438      1.616
REMARK  Name = 
REMARK  5 active torsions:
REMARK  status: ('A' for Active; 'I' for Inactive)
REMARK    1  A    between atoms: C_1  and  S_2
REMARK    2  A    between atoms: S_2  and  N_5
REMARK    3  A    between atoms: C_6  and  C_8
REMARK    4  A    between atoms: N_11  and  C_12
REMARK    5  A    between atoms: C_18  and  C_19
REMARK                            x       y       z     vdW  Elec       q    Type
REMARK                         _______ _______ _______ _____ _____    ______ ____
ROOT
ATOM      1  C   UNL     1       3.683   6.449  18.146  0.00  0.00    +0.000 A 
ATOM      2  N   UNL     1       3.597   7.596  17.396  0.00  0.00    +0.000 NA
ATOM      3  N   UNL     1       2.774   8.433  18.012  0.00  0.00    +0.000 NA
ATOM      4  N   UNL     1       2.251   7.807  19.096  0.00  0.00    +0.000 N 
ATOM      5  C   UNL     1       2.757   6.515  19.176  0.00  0.00    +0.000 A 
ENDROOT
BRANCH   4   6
ATOM      6  C   UNL     1       1.383   8.478  19.996  0.00  0.00    +0.000 A 
ATOM      7  C   UNL     1       1.479   8.270  21.376  0.00  0.00    +0.000 A 
ATOM      8  C   UNL     1       0.763   9.069  22.265  0.00  0.00    +0.000 A 
ATOM      9  C   UNL     1      -0.073  10.067  21.777  0.00  0.00    +0.000 A 
ATOM     10  C   UNL     1      -0.236  10.229  20.400  0.00  0.00    +0.000 A 
ATOM     11  C   UNL     1       0.475   9.424  19.505  0.00  0.00    +0.000 A 
ENDBRANCH   4   6
BRANCH   1  13
ATOM     12  N   UNL     1       5.298   5.516  16.648  0.00  0.00    +0.000 N 
ATOM     13  C   UNL     1       4.752   5.486  17.934  0.00  0.00    +0.000 C 
ATOM     14  O   UNL     1       5.209   4.780  18.820  0.00  0.00    +0.000 OA
ATOM     15  H   UNL     1       4.955   6.174  15.954  0.00  0.00    +0.000 HD
BRANCH  12  17
ATOM     16  C   UNL     1       6.748   4.957  14.445  0.00  0.00    +0.000 C 
ATOM     17  S   UNL     1       6.436   4.439  16.124  0.00  0.00    +0.000 S 
ATOM     18  O   UNL     1       5.758   3.158  16.075  0.00  0.00    +0.000 OA
ATOM     19  O   UNL     1       7.631   4.601  16.916  0.00  0.00    +0.000 OA
ENDBRANCH  12  17
ENDBRANCH   1  13
BRANCH   5  20
ATOM     20  C   UNL     1       2.540   5.516  20.304  0.00  0.00    +0.000 C 
ATOM     21  C   UNL     1       1.187   4.858  20.435  0.00  0.00    +0.000 C 
ATOM     22  C   UNL     1       2.388   4.038  20.086  0.00  0.00    +0.000 C 
ENDBRANCH   5  20
TORSDOF 4
ENDMDL
MODEL 6
REMARK VINA RESULT:      -6.4      1.048      1.048
REMARK  Name = 
REMARK  5 active torsions:
REMARK  status: ('A' for Active; 'I' for Inactive)
REMARK    1  A    between atoms: C_1  and  S_2
REMARK    2  A    between atoms: S_2  and  N_5
REMARK    3  A    between atoms: C_6  and  C_8
REMARK    4  A    between atoms: N_11  and  C_12
REMARK    5  A    between atoms: C_18  and  C_19
REMARK                            x       y       z     vdW  Elec       q    Type
REMARK                         _______ _______ _______ _____ _____    ______ ____
ROOT
ATOM      1  C   UNL     1       3.453   6.491  18.075  0.00  0.00    +0.000 A 
ATOM      2  N   UNL     1       3.374   7.665  17.365  0.00  0.00    +0.000 NA
ATOM      3  N   UNL     1       2.620   8.513  18.049  0.00  0.00    +0.000 NA
ATOM      4  N   UNL     1       2.130   7.873  19.141  0.00  0.00    +0.000 N 
ATOM      5  C   UNL     1       2.587   6.561  19.155  0.00  0.00    +0.000 A 
ENDROOT
BRANCH   4   6
ATOM      6  C   UNL     1       1.339   8.549  20.106  0.00  0.00    +0.000 A 
ATOM      7  C   UNL     1       1.552   8.353  21.475  0.00  0.00    +0.000 A 
ATOM      8  C   UNL     1       0.912   9.156  22.415  0.00  0.00    +0.000 A 
ATOM      9  C   UNL     1       0.033  10.148  21.992  0.00  0.00    +0.000 A 
ATOM     10  C   UNL     1      -0.247  10.297  20.633  0.00  0.00    +0.000 A 
ATOM     11  C   UNL     1       0.388   9.488  19.687  0.00  0.00    +0.000 A 
ENDBRANCH   4   6
BRANCH   1  13
ATOM     12  N   UNL     1       5.490   5.956  16.941  0.00  0.00    +0.000 N 
ATOM     13  C   UNL     1       4.470   5.495  17.777  0.00  0.00    +0.000 C 
ATOM     14  O   UNL     1       4.495   4.384  18.285  0.00  0.00    +0.000 OA
ATOM     15  H   UNL     1       5.490   6.914  16.601  0.00  0.00    +0.000 HD
BRANCH  12  17
ATOM     16  C   UNL     1       7.670   4.627  17.808  0.00  0.00    +0.000 C 
ATOM     17  S   UNL     1       6.691   4.982  16.358  0.00  0.00    +0.000 S 
ATOM     18  O   UNL     1       7.480   5.827  15.485  0.00  0.00    +0.000 OA
ATOM     19  O   UNL     1       6.101   3.764  15.857  0.00  0.00    +0.000 OA
ENDBRANCH  12  17
ENDBRANCH   1  13
BRANCH   5  20
ATOM     20  C   UNL     1       2.390   5.536  20.264  0.00  0.00    +0.000 C 
ATOM     21  C   UNL     1       1.013   4.948  20.468  0.00  0.00    +0.000 C 
ATOM     22  C   UNL     1       2.140   4.077  20.010  0.00  0.00    +0.000 C 
ENDBRANCH   5  20
TORSDOF 4
ENDMDL
MODEL 7
REMARK VINA RESULT:      -6.4      3.757      6.350
REMARK  Name = 
REMARK  5 active torsions:
REMARK  status: ('A' for Active; 'I' for Inactive)
REMARK    1  A    between atoms: C_1  and  S_2
REMARK    2  A    between atoms: S_2  and  N_5
REMARK    3  A    between atoms: C_6  and  C_8
REMARK    4  A    between atoms: N_11  and  C_12
REMARK    5  A    between atoms: C_18  and  C_19
REMARK                            x       y       z     vdW  Elec       q    Type
REMARK                         _______ _______ _______ _____ _____    ______ ____
ROOT
ATOM      1  C   UNL     1       2.503   7.594  18.862  0.00  0.00    +0.000 A 
ATOM      2  N   UNL     1       3.308   7.639  17.750  0.00  0.00    +0.000 NA
ATOM      3  N   UNL     1       3.700   6.404  17.472  0.00  0.00    +0.000 NA
ATOM      4  N   UNL     1       3.242   5.574  18.443  0.00  0.00    +0.000 N 
ATOM      5  C   UNL     1       2.530   6.309  19.383  0.00  0.00    +0.000 A 
ENDROOT
BRANCH   4   6
ATOM      6  C   UNL     1       3.447   4.172  18.381  0.00  0.00    +0.000 A 
ATOM      7  C   UNL     1       4.398   3.548  19.196  0.00  0.00    +0.000 A 
ATOM      8  C   UNL     1       4.463   2.159  19.274  0.00  0.00    +0.000 A 
ATOM      9  C   UNL     1       3.592   1.383  18.517  0.00  0.00    +0.000 A 
ATOM     10  C   UNL     1       2.694   1.996  17.641  0.00  0.00    +0.000 A 
ATOM     11  C   UNL     1       2.631   3.389  17.555  0.00  0.00    +0.000 A 
ENDBRANCH   4   6
BRANCH   1  13
ATOM     12  N   UNL     1       1.484   8.892  20.593  0.00  0.00    +0.000 N 
ATOM     13  C   UNL     1       1.642   8.711  19.217  0.00  0.00    +0.000 C 
ATOM     14  O   UNL     1       1.174   9.488  18.398  0.00  0.00    +0.000 OA
ATOM     15  H   UNL     1       1.955   8.281  21.255  0.00  0.00    +0.000 HD
BRANCH  12  17
ATOM     16  C   UNL     1       0.206   9.417  22.908  0.00  0.00    +0.000 C 
ATOM     17  S   UNL     1       0.458  10.012  21.244  0.00  0.00    +0.000 S 
ATOM     18  O   UNL     1      -0.789   9.856  20.523  0.00  0.00    +0.000 OA
ATOM     19  O   UNL     1       1.125  11.291  21.279  0.00  0.00    +0.000 OA
ENDBRANCH  12  17
ENDBRANCH   1  13
BRANCH   5  20
ATOM     20  C   UNL     1       1.736   5.761  20.561  0.00  0.00    +0.000 C 
ATOM     21  C   UNL     1       0.866   4.545  20.343  0.00  0.00    +0.000 C 
ATOM     22  C   UNL     1       2.055   4.464  21.247  0.00  0.00    +0.000 C 
ENDBRANCH   5  20
TORSDOF 4
ENDMDL
MODEL 8
REMARK VINA RESULT:      -6.3      4.403      6.740
REMARK  Name = 
REMARK  5 active torsions:
REMARK  status: ('A' for Active; 'I' for Inactive)
REMARK    1  A    between atoms: C_1  and  S_2
REMARK    2  A    between atoms: S_2  and  N_5
REMARK    3  A    between atoms: C_6  and  C_8
REMARK    4  A    between atoms: N_11  and  C_12
REMARK    5  A    between atoms: C_18  and  C_19
REMARK                            x       y       z     vdW  Elec       q    Type
REMARK                         _______ _______ _______ _____ _____    ______ ____
ROOT
ATOM      1  C   UNL     1       1.608   9.542  18.704  0.00  0.00    +0.000 A 
ATOM      2  N   UNL     1       2.276   9.452  17.507  0.00  0.00    +0.000 NA
ATOM      3  N   UNL     1       2.696   8.204  17.359  0.00  0.00    +0.000 NA
ATOM      4  N   UNL     1       2.396   7.509  18.486  0.00  0.00    +0.000 N 
ATOM      5  C   UNL     1       1.760   8.348  19.393  0.00  0.00    +0.000 A 
ENDROOT
BRANCH   4   6
ATOM      6  C   UNL     1       2.663   6.120  18.596  0.00  0.00    +0.000 A 
ATOM      7  C   UNL     1       3.683   5.649  19.431  0.00  0.00    +0.000 A 
ATOM      8  C   UNL     1       3.817   4.286  19.686  0.00  0.00    +0.000 A 
ATOM      9  C   UNL     1       2.946   3.383  19.087  0.00  0.00    +0.000 A 
ATOM     10  C   UNL     1       1.978   3.836  18.190  0.00  0.00    +0.000 A 
ATOM     11  C   UNL     1       1.845   5.202  17.926  0.00  0.00    +0.000 A 
ENDBRANCH   4   6
BRANCH   1  13
ATOM     12  N   UNL     1      -0.482  10.639  18.322  0.00  0.00    +0.000 N 
ATOM     13  C   UNL     1       0.738  10.668  19.001  0.00  0.00    +0.000 C 
ATOM     14  O   UNL     1       0.997  11.516  19.842  0.00  0.00    +0.000 OA
ATOM     15  H   UNL     1      -0.707   9.874  17.691  0.00  0.00    +0.000 HD
BRANCH  12  17
ATOM     16  C   UNL     1      -2.811  11.387  17.187  0.00  0.00    +0.000 C 
ATOM     17  S   UNL     1      -1.587  11.866  18.394  0.00  0.00    +0.000 S 
ATOM     18  O   UNL     1      -0.895  13.035  17.886  0.00  0.00    +0.000 OA
ATOM     19  O   UNL     1      -2.179  11.884  19.710  0.00  0.00    +0.000 OA
ENDBRANCH  12  17
ENDBRANCH   1  13
BRANCH   5  20
ATOM     20  C   UNL     1       1.136   7.950  20.724  0.00  0.00    +0.000 C 
ATOM     21  C   UNL     1       1.419   8.803  21.938  0.00  0.00    +0.000 C 
ATOM     22  C   UNL     1       0.031   8.723  21.387  0.00  0.00    +0.000 C 
ENDBRANCH   5  20
TORSDOF 4
ENDMDL
MODEL 9
REMARK VINA RESULT:      -6.3      4.412      6.818
REMARK  Name = 
REMARK  5 active torsions:
REMARK  status: ('A' for Active; 'I' for Inactive)
REMARK    1  A    between atoms: C_1  and  S_2
REMARK    2  A    between atoms: S_2  and  N_5
REMARK    3  A    between atoms: C_6  and  C_8
REMARK    4  A    between atoms: N_11  and  C_12
REMARK    5  A    between atoms: C_18  and  C_19
REMARK                            x       y       z     vdW  Elec       q    Type
REMARK                         _______ _______ _______ _____ _____    ______ ____
ROOT
ATOM      1  C   UNL     1       1.199   9.597  18.706  0.00  0.00    +0.000 A 
ATOM      2  N   UNL     1       1.990   9.289  17.626  0.00  0.00    +0.000 NA
ATOM      3  N   UNL     1       2.545   8.106  17.843  0.00  0.00    +0.000 NA
ATOM      4  N   UNL     1       2.204   7.688  19.088  0.00  0.00    +0.000 N 
ATOM      5  C   UNL     1       1.400   8.645  19.695  0.00  0.00    +0.000 A 
ENDROOT
BRANCH   4   6
ATOM      6  C   UNL     1       2.596   6.417  19.580  0.00  0.00    +0.000 A 
ATOM      7  C   UNL     1       1.784   5.709  20.473  0.00  0.00    +0.000 A 
ATOM      8  C   UNL     1       2.074   4.387  20.802  0.00  0.00    +0.000 A 
ATOM      9  C   UNL     1       3.196   3.771  20.257  0.00  0.00    +0.000 A 
ATOM     10  C   UNL     1       4.056   4.494  19.429  0.00  0.00    +0.000 A 
ATOM     11  C   UNL     1       3.772   5.823  19.103  0.00  0.00    +0.000 A 
ENDBRANCH   4   6
BRANCH   1  13
ATOM     12  N   UNL     1      -1.095  10.182  18.363  0.00  0.00    +0.000 N 
ATOM     13  C   UNL     1       0.195  10.646  18.633  0.00  0.00    +0.000 C 
ATOM     14  O   UNL     1       0.427  11.820  18.881  0.00  0.00    +0.000 OA
ATOM     15  H   UNL     1      -1.275   9.188  18.245  0.00  0.00    +0.000 HD
BRANCH  12  17
ATOM     16  C   UNL     1      -3.713  10.058  17.733  0.00  0.00    +0.000 C 
ATOM     17  S   UNL     1      -2.382  11.186  18.108  0.00  0.00    +0.000 S 
ATOM     18  O   UNL     1      -2.064  11.916  16.896  0.00  0.00    +0.000 OA
ATOM     19  O   UNL     1      -2.671  11.894  19.331  0.00  0.00    +0.000 OA
ENDBRANCH  12  17
ENDBRANCH   1  13
BRANCH   5  20
ATOM     20  C   UNL     1       0.687   8.525  21.035  0.00  0.00    +0.000 C 
ATOM     21  C   UNL     1       1.390   9.026  22.274  0.00  0.00    +0.000 C 
ATOM     22  C   UNL     1       0.144   9.701  21.795  0.00  0.00    +0.000 C 
ENDBRANCH   5  20
TORSDOF 4
ENDMDL
