MODEL 1
REMARK VINA RESULT:      -8.8      0.000      0.000
REMARK  Name = 
REMARK  4 active torsions:
REMARK  status: ('A' for Active; 'I' for Inactive)
REMARK    1  A    between atoms: C_1  and  N_2
REMARK    2  A    between atoms: C_15  and  C_16
REMARK    3  A    between atoms: N_18  and  C_19
REMARK    4  A    between atoms: C_19  and  C_20
REMARK                            x       y       z     vdW  Elec       q    Type
REMARK                         _______ _______ _______ _____ _____    ______ ____
ROOT
ATOM      1  C   UNL     1       4.461   6.867  16.674  0.00  0.00    +0.000 C 
ATOM      2  N   UNL     1       3.990   6.255  17.906  0.00  0.00    +0.000 N 
ATOM      3  C   UNL     1       4.613   5.056  18.237  0.00  0.00    +0.000 C 
ATOM      4  O   UNL     1       5.787   4.796  17.976  0.00  0.00    +0.000 OA
ATOM      5  C   UNL     1       3.726   3.954  18.609  0.00  0.00    +0.000 A 
ATOM      6  C   UNL     1       3.779   2.794  17.826  0.00  0.00    +0.000 A 
ATOM      7  C   UNL     1       2.875   1.763  18.053  0.00  0.00    +0.000 A 
ATOM      8  C   UNL     1       1.937   1.884  19.078  0.00  0.00    +0.000 A 
ATOM      9  C   UNL     1       1.909   3.034  19.876  0.00  0.00    +0.000 A 
ATOM     10  C   UNL     1       2.796   4.083  19.625  0.00  0.00    +0.000 A 
ATOM     11  O   UNL     1       2.795   5.161  20.464  0.00  0.00    +0.000 OA
ATOM     12  C   UNL     1       2.475   6.377  19.907  0.00  0.00    +0.000 A 
ATOM     13  C   UNL     1       1.598   7.135  20.703  0.00  0.00    +0.000 A 
ATOM     14  C   UNL     1       1.180   8.404  20.306  0.00  0.00    +0.000 A 
ATOM     15  C   UNL     1       1.647   8.933  19.105  0.00  0.00    +0.000 A 
ATOM     16  C   UNL     1       2.519   8.175  18.308  0.00  0.00    +0.000 A 
ATOM     17  C   UNL     1       2.977   6.898  18.697  0.00  0.00    +0.000 A 
ENDROOT
BRANCH  15  18
ATOM     18  C   UNL     1       1.191  10.289  18.687  0.00  0.00    +0.000 C 
ATOM     19  O   UNL     1       1.994  11.089  18.220  0.00  0.00    +0.000 OA
ATOM     20  N   UNL     1      -0.150  10.560  18.848  0.00  0.00    +0.000 N 
ATOM     21  H   UNL     1      -0.800   9.795  18.965  0.00  0.00    +0.000 HD
BRANCH  20  22
ATOM     22  C   UNL     1      -0.708  11.841  18.474  0.00  0.00    +0.000 C 
BRANCH  22  23
ATOM     23  C   UNL     1      -2.184  11.713  18.184  0.00  0.00    +0.000 A 
ATOM     24  C   UNL     1      -2.621  11.229  16.938  0.00  0.00    +0.000 A 
ATOM     25  C   UNL     1      -3.983  11.118  16.661  0.00  0.00    +0.000 A 
ATOM     26  C   UNL     1      -4.914  11.481  17.624  0.00  0.00    +0.000 A 
ATOM     27  F   UNL     1      -6.221  11.380  17.353  0.00  0.00    +0.000 F 
ATOM     28  C   UNL     1      -4.505  11.946  18.868  0.00  0.00    +0.000 A 
ATOM     29  C   UNL     1      -3.140  12.061  19.150  0.00  0.00    +0.000 A 
ENDBRANCH  22  23
ENDBRANCH  20  22
ENDBRANCH  15  18
TORSDOF 3
ENDMDL
MODEL 2
REMARK VINA RESULT:      -8.8      3.657      9.319
REMARK  Name = 
REMARK  4 active torsions:
REMARK  status: ('A' for Active; 'I' for Inactive)
REMARK    1  A    between atoms: C_1  and  N_2
REMARK    2  A    between atoms: C_15  and  C_16
REMARK    3  A    between atoms: N_18  and  C_19
REMARK    4  A    between atoms: C_19  and  C_20
REMARK                            x       y       z     vdW  Elec       q    Type
REMARK                         _______ _______ _______ _____ _____    ______ ____
ROOT
ATOM      1  C   UNL     1      -0.024   9.545  23.275  0.00  0.00    +0.000 C 
ATOM      2  N   UNL     1      -0.017  10.260  22.009  0.00  0.00    +0.000 N 
ATOM      3  C   UNL     1      -0.520  11.557  22.067  0.00  0.00    +0.000 C 
ATOM      4  O   UNL     1      -0.415  12.291  23.048  0.00  0.00    +0.000 OA
ATOM      5  C   UNL     1      -1.496  11.911  21.037  0.00  0.00    +0.000 A 
ATOM      6  C   UNL     1      -2.773  12.294  21.467  0.00  0.00    +0.000 A 
ATOM      7  C   UNL     1      -3.778  12.523  20.533  0.00  0.00    +0.000 A 
ATOM      8  C   UNL     1      -3.496  12.393  19.175  0.00  0.00    +0.000 A 
ATOM      9  C   UNL     1      -2.210  12.038  18.751  0.00  0.00    +0.000 A 
ATOM     10  C   UNL     1      -1.211  11.776  19.691  0.00  0.00    +0.000 A 
ATOM     11  O   UNL     1       0.053  11.505  19.249  0.00  0.00    +0.000 OA
ATOM     12  C   UNL     1       0.565  10.267  19.565  0.00  0.00    +0.000 A 
ATOM     13  C   UNL     1       1.233   9.656  18.488  0.00  0.00    +0.000 A 
ATOM     14  C   UNL     1       1.833   8.405  18.631  0.00  0.00    +0.000 A 
ATOM     15  C   UNL     1       1.777   7.755  19.861  0.00  0.00    +0.000 A 
ATOM     16  C   UNL     1       1.106   8.364  20.934  0.00  0.00    +0.000 A 
ATOM     17  C   UNL     1       0.510   9.639  20.825  0.00  0.00    +0.000 A 
ENDROOT
BRANCH  15  18
ATOM     18  C   UNL     1       2.417   6.417  20.003  0.00  0.00    +0.000 C 
ATOM     19  O   UNL     1       1.941   5.587  20.768  0.00  0.00    +0.000 OA
ATOM     20  N   UNL     1       3.534   6.190  19.229  0.00  0.00    +0.000 N 
ATOM     21  H   UNL     1       3.713   6.781  18.430  0.00  0.00    +0.000 HD
BRANCH  20  22
ATOM     22  C   UNL     1       4.238   4.927  19.280  0.00  0.00    +0.000 C 
BRANCH  22  23
ATOM     23  C   UNL     1       5.080   4.739  18.042  0.00  0.00    +0.000 A 
ATOM     24  C   UNL     1       6.483   4.787  18.125  0.00  0.00    +0.000 A 
ATOM     25  C   UNL     1       7.266   4.624  16.983  0.00  0.00    +0.000 A 
ATOM     26  C   UNL     1       6.656   4.404  15.756  0.00  0.00    +0.000 A 
ATOM     27  F   UNL     1       7.409   4.254  14.659  0.00  0.00    +0.000 F 
ATOM     28  C   UNL     1       5.272   4.336  15.652  0.00  0.00    +0.000 A 
ATOM     29  C   UNL     1       4.483   4.501  16.794  0.00  0.00    +0.000 A 
ENDBRANCH  22  23
ENDBRANCH  20  22
ENDBRANCH  15  18
TORSDOF 3
ENDMDL
MODEL 3
REMARK VINA RESULT:      -8.7      2.788      4.746
REMARK  Name = 
REMARK  4 active torsions:
REMARK  status: ('A' for Active; 'I' for Inactive)
REMARK    1  A    between atoms: C_1  and  N_2
REMARK    2  A    between atoms: C_15  and  C_16
REMARK    3  A    between atoms: N_18  and  C_19
REMARK    4  A    between atoms: C_19  and  C_20
REMARK                            x       y       z     vdW  Elec       q    Type
REMARK                         _______ _______ _______ _____ _____    ______ ____
ROOT
ATOM      1  C   UNL     1       6.923   6.085  19.018  0.00  0.00    +0.000 C 
ATOM      2  N   UNL     1       6.320   5.131  18.102  0.00  0.00    +0.000 N 
ATOM      3  C   UNL     1       7.223   4.441  17.298  0.00  0.00    +0.000 C 
ATOM      4  O   UNL     1       8.360   4.134  17.649  0.00  0.00    +0.000 OA
ATOM      5  C   UNL     1       6.899   4.389  15.873  0.00  0.00    +0.000 A 
ATOM      6  C   UNL     1       7.825   4.950  14.983  0.00  0.00    +0.000 A 
ATOM      7  C   UNL     1       7.517   5.041  13.630  0.00  0.00    +0.000 A 
ATOM      8  C   UNL     1       6.298   4.549  13.168  0.00  0.00    +0.000 A 
ATOM      9  C   UNL     1       5.390   3.962  14.058  0.00  0.00    +0.000 A 
ATOM     10  C   UNL     1       5.686   3.902  15.422  0.00  0.00    +0.000 A 
ATOM     11  O   UNL     1       4.816   3.260  16.256  0.00  0.00    +0.000 OA
ATOM     12  C   UNL     1       4.236   4.019  17.246  0.00  0.00    +0.000 A 
ATOM     13  C   UNL     1       2.860   3.768  17.399  0.00  0.00    +0.000 A 
ATOM     14  C   UNL     1       2.111   4.432  18.369  0.00  0.00    +0.000 A 
ATOM     15  C   UNL     1       2.737   5.353  19.205  0.00  0.00    +0.000 A 
ATOM     16  C   UNL     1       4.109   5.607  19.050  0.00  0.00    +0.000 A 
ATOM     17  C   UNL     1       4.897   4.932  18.092  0.00  0.00    +0.000 A 
ENDROOT
BRANCH  15  18
ATOM     18  C   UNL     1       1.927   6.061  20.236  0.00  0.00    +0.000 C 
ATOM     19  O   UNL     1       1.163   5.430  20.957  0.00  0.00    +0.000 OA
ATOM     20  N   UNL     1       2.105   7.425  20.321  0.00  0.00    +0.000 N 
ATOM     21  H   UNL     1       2.929   7.844  19.914  0.00  0.00    +0.000 HD
BRANCH  20  22
ATOM     22  C   UNL     1       1.375   8.219  21.286  0.00  0.00    +0.000 C 
BRANCH  22  23
ATOM     23  C   UNL     1       0.661   9.360  20.603  0.00  0.00    +0.000 A 
ATOM     24  C   UNL     1       0.856   9.597  19.231  0.00  0.00    +0.000 A 
ATOM     25  C   UNL     1       0.208  10.655  18.596  0.00  0.00    +0.000 A 
ATOM     26  C   UNL     1      -0.644  11.476  19.323  0.00  0.00    +0.000 A 
ATOM     27  F   UNL     1      -1.260  12.496  18.713  0.00  0.00    +0.000 F 
ATOM     28  C   UNL     1      -0.865  11.250  20.676  0.00  0.00    +0.000 A 
ATOM     29  C   UNL     1      -0.215  10.192  21.317  0.00  0.00    +0.000 A 
ENDBRANCH  22  23
ENDBRANCH  20  22
ENDBRANCH  15  18
TORSDOF 3
ENDMDL
MODEL 4
REMARK VINA RESULT:      -8.6      3.923      9.285
REMARK  Name = 
REMARK  4 active torsions:
REMARK  status: ('A' for Active; 'I' for Inactive)
REMARK    1  A    between atoms: C_1  and  N_2
REMARK    2  A    between atoms: C_15  and  C_16
REMARK    3  A    between atoms: N_18  and  C_19
REMARK    4  A    between atoms: C_19  and  C_20
REMARK                            x       y       z     vdW  Elec       q    Type
REMARK                         _______ _______ _______ _____ _____    ______ ____
ROOT
ATOM      1  C   UNL     1      -2.052  11.992  18.619  0.00  0.00    +0.000 C 
ATOM      2  N   UNL     1      -2.015  11.951  20.072  0.00  0.00    +0.000 N 
ATOM      3  C   UNL     1      -2.994  12.713  20.703  0.00  0.00    +0.000 C 
ATOM      4  O   UNL     1      -4.119  12.902  20.245  0.00  0.00    +0.000 OA
ATOM      5  C   UNL     1      -2.529  13.584  21.783  0.00  0.00    +0.000 A 
ATOM      6  C   UNL     1      -2.743  14.961  21.635  0.00  0.00    +0.000 A 
ATOM      7  C   UNL     1      -2.216  15.847  22.567  0.00  0.00    +0.000 A 
ATOM      8  C   UNL     1      -1.499  15.354  23.656  0.00  0.00    +0.000 A 
ATOM      9  C   UNL     1      -1.315  13.975  23.814  0.00  0.00    +0.000 A 
ATOM     10  C   UNL     1      -1.816  13.088  22.859  0.00  0.00    +0.000 A 
ATOM     11  O   UNL     1      -1.686  11.745  23.076  0.00  0.00    +0.000 OA
ATOM     12  C   UNL     1      -0.945  11.041  22.155  0.00  0.00    +0.000 A 
ATOM     13  C   UNL     1      -0.067  10.115  22.747  0.00  0.00    +0.000 A 
ATOM     14  C   UNL     1       0.750   9.298  21.967  0.00  0.00    +0.000 A 
ATOM     15  C   UNL     1       0.688   9.394  20.579  0.00  0.00    +0.000 A 
ATOM     16  C   UNL     1      -0.185  10.321  19.988  0.00  0.00    +0.000 A 
ATOM     17  C   UNL     1      -1.040  11.145  20.753  0.00  0.00    +0.000 A 
ENDROOT
BRANCH  15  18
ATOM     18  C   UNL     1       1.568   8.519  19.753  0.00  0.00    +0.000 C 
ATOM     19  O   UNL     1       1.777   8.794  18.577  0.00  0.00    +0.000 OA
ATOM     20  N   UNL     1       2.115   7.427  20.390  0.00  0.00    +0.000 N 
ATOM     21  H   UNL     1       2.142   7.404  21.400  0.00  0.00    +0.000 HD
BRANCH  20  22
ATOM     22  C   UNL     1       2.987   6.509  19.691  0.00  0.00    +0.000 C 
BRANCH  22  23
ATOM     23  C   UNL     1       2.268   5.215  19.397  0.00  0.00    +0.000 A 
ATOM     24  C   UNL     1       2.332   4.645  18.113  0.00  0.00    +0.000 A 
ATOM     25  C   UNL     1       1.662   3.456  17.832  0.00  0.00    +0.000 A 
ATOM     26  C   UNL     1       0.932   2.824  18.830  0.00  0.00    +0.000 A 
ATOM     27  F   UNL     1       0.283   1.686  18.556  0.00  0.00    +0.000 F 
ATOM     28  C   UNL     1       0.868   3.360  20.111  0.00  0.00    +0.000 A 
ATOM     29  C   UNL     1       1.537   4.553  20.396  0.00  0.00    +0.000 A 
ENDBRANCH  22  23
ENDBRANCH  20  22
ENDBRANCH  15  18
TORSDOF 3
ENDMDL
MODEL 5
REMARK VINA RESULT:      -8.6      2.305      3.760
REMARK  Name = 
REMARK  4 active torsions:
REMARK  status: ('A' for Active; 'I' for Inactive)
REMARK    1  A    between atoms: C_1  and  N_2
REMARK    2  A    between atoms: C_15  and  C_16
REMARK    3  A    between atoms: N_18  and  C_19
REMARK    4  A    between atoms: C_19  and  C_20
REMARK                            x       y       z     vdW  Elec       q    Type
REMARK                         _______ _______ _______ _____ _____    ______ ____
ROOT
ATOM      1  C   UNL     1       2.509   4.604  20.831  0.00  0.00    +0.000 C 
ATOM      2  N   UNL     1       2.874   5.330  19.625  0.00  0.00    +0.000 N 
ATOM      3  C   UNL     1       3.577   4.583  18.684  0.00  0.00    +0.000 C 
ATOM      4  O   UNL     1       3.414   3.378  18.502  0.00  0.00    +0.000 OA
ATOM      5  C   UNL     1       4.781   5.210  18.139  0.00  0.00    +0.000 A 
ATOM      6  C   UNL     1       5.998   4.545  18.339  0.00  0.00    +0.000 A 
ATOM      7  C   UNL     1       7.189   5.150  17.953  0.00  0.00    +0.000 A 
ATOM      8  C   UNL     1       7.158   6.406  17.349  0.00  0.00    +0.000 A 
ATOM      9  C   UNL     1       5.936   7.052  17.126  0.00  0.00    +0.000 A 
ATOM     10  C   UNL     1       4.743   6.458  17.544  0.00  0.00    +0.000 A 
ATOM     11  O   UNL     1       3.561   7.076  17.248  0.00  0.00    +0.000 OA
ATOM     12  C   UNL     1       2.788   7.472  18.315  0.00  0.00    +0.000 A 
ATOM     13  C   UNL     1       2.245   8.759  18.154  0.00  0.00    +0.000 A 
ATOM     14  C   UNL     1       1.418   9.318  19.127  0.00  0.00    +0.000 A 
ATOM     15  C   UNL     1       1.118   8.586  20.273  0.00  0.00    +0.000 A 
ATOM     16  C   UNL     1       1.665   7.303  20.436  0.00  0.00    +0.000 A 
ATOM     17  C   UNL     1       2.485   6.703  19.457  0.00  0.00    +0.000 A 
ENDROOT
BRANCH  15  18
ATOM     18  C   UNL     1       0.237   9.193  21.311  0.00  0.00    +0.000 C 
ATOM     19  O   UNL     1      -0.519   8.484  21.964  0.00  0.00    +0.000 OA
ATOM     20  N   UNL     1       0.343  10.556  21.479  0.00  0.00    +0.000 N 
ATOM     21  H   UNL     1       1.158  11.038  21.129  0.00  0.00    +0.000 HD
BRANCH  20  22
ATOM     22  C   UNL     1      -0.461  11.256  22.459  0.00  0.00    +0.000 C 
BRANCH  22  23
ATOM     23  C   UNL     1      -1.674  11.872  21.807  0.00  0.00    +0.000 A 
ATOM     24  C   UNL     1      -2.762  12.294  22.591  0.00  0.00    +0.000 A 
ATOM     25  C   UNL     1      -3.891  12.854  21.995  0.00  0.00    +0.000 A 
ATOM     26  C   UNL     1      -3.937  13.005  20.616  0.00  0.00    +0.000 A 
ATOM     27  F   UNL     1      -5.024  13.536  20.044  0.00  0.00    +0.000 F 
ATOM     28  C   UNL     1      -2.867  12.610  19.821  0.00  0.00    +0.000 A 
ATOM     29  C   UNL     1      -1.735  12.046  20.416  0.00  0.00    +0.000 A 
ENDBRANCH  22  23
ENDBRANCH  20  22
ENDBRANCH  15  18
TORSDOF 3
ENDMDL
MODEL 6
REMARK VINA RESULT:      -8.5      1.770      3.253
REMARK  Name = 
REMARK  4 active torsions:
REMARK  status: ('A' for Active; 'I' for Inactive)
REMARK    1  A    between atoms: C_1  and  N_2
REMARK    2  A    between atoms: C_15  and  C_16
REMARK    3  A    between atoms: N_18  and  C_19
REMARK    4  A    between atoms: C_19  and  C_20
REMARK                            x       y       z     vdW  Elec       q    Type
REMARK                         _______ _______ _______ _____ _____    ______ ____
ROOT
ATOM      1  C   UNL     1       2.247   5.346  20.813  0.00  0.00    +0.000 C 
ATOM      2  N   UNL     1       2.804   5.856  19.571  0.00  0.00    +0.000 N 
ATOM      3  C   UNL     1       3.612   4.957  18.881  0.00  0.00    +0.000 C 
ATOM      4  O   UNL     1       3.440   3.739  18.879  0.00  0.00    +0.000 OA
ATOM      5  C   UNL     1       4.901   5.475  18.423  0.00  0.00    +0.000 A 
ATOM      6  C   UNL     1       6.055   4.845  18.907  0.00  0.00    +0.000 A 
ATOM      7  C   UNL     1       7.307   5.368  18.607  0.00  0.00    +0.000 A 
ATOM      8  C   UNL     1       7.403   6.504  17.805  0.00  0.00    +0.000 A 
ATOM      9  C   UNL     1       6.247   7.112  17.301  0.00  0.00    +0.000 A 
ATOM     10  C   UNL     1       4.989   6.605  17.631  0.00  0.00    +0.000 A 
ATOM     11  O   UNL     1       3.882   7.172  17.066  0.00  0.00    +0.000 OA
ATOM     12  C   UNL     1       2.976   7.747  17.926  0.00  0.00    +0.000 A 
ATOM     13  C   UNL     1       2.502   8.993  17.476  0.00  0.00    +0.000 A 
ATOM     14  C   UNL     1       1.561   9.713  18.211  0.00  0.00    +0.000 A 
ATOM     15  C   UNL     1       1.077   9.186  19.406  0.00  0.00    +0.000 A 
ATOM     16  C   UNL     1       1.553   7.945  19.858  0.00  0.00    +0.000 A 
ATOM     17  C   UNL     1       2.488   7.184  19.123  0.00  0.00    +0.000 A 
ENDROOT
BRANCH  15  18
ATOM     18  C   UNL     1       0.075   9.965  20.187  0.00  0.00    +0.000 C 
ATOM     19  O   UNL     1      -0.141   9.684  21.360  0.00  0.00    +0.000 OA
ATOM     20  N   UNL     1      -0.556  10.991  19.519  0.00  0.00    +0.000 N 
ATOM     21  H   UNL     1      -0.150  11.354  18.668  0.00  0.00    +0.000 HD
BRANCH  20  22
ATOM     22  C   UNL     1      -1.546  11.818  20.175  0.00  0.00    +0.000 C 
BRANCH  22  23
ATOM     23  C   UNL     1      -2.811  11.884  19.354  0.00  0.00    +0.000 A 
ATOM     24  C   UNL     1      -3.973  12.468  19.889  0.00  0.00    +0.000 A 
ATOM     25  C   UNL     1      -5.147  12.523  19.140  0.00  0.00    +0.000 A 
ATOM     26  C   UNL     1      -5.167  12.005  17.852  0.00  0.00    +0.000 A 
ATOM     27  F   UNL     1      -6.297  12.053  17.137  0.00  0.00    +0.000 F 
ATOM     28  C   UNL     1      -4.026  11.438  17.296  0.00  0.00    +0.000 A 
ATOM     29  C   UNL     1      -2.847  11.379  18.045  0.00  0.00    +0.000 A 
ENDBRANCH  22  23
ENDBRANCH  20  22
ENDBRANCH  15  18
TORSDOF 3
ENDMDL
MODEL 7
REMARK VINA RESULT:      -8.4      3.376      9.295
REMARK  Name = 
REMARK  4 active torsions:
REMARK  status: ('A' for Active; 'I' for Inactive)
REMARK    1  A    between atoms: C_1  and  N_2
REMARK    2  A    between atoms: C_15  and  C_16
REMARK    3  A    between atoms: N_18  and  C_19
REMARK    4  A    between atoms: C_19  and  C_20
REMARK                            x       y       z     vdW  Elec       q    Type
REMARK                         _______ _______ _______ _____ _____    ______ ____
ROOT
ATOM      1  C   UNL     1      -1.321  12.646  21.515  0.00  0.00    +0.000 C 
ATOM      2  N   UNL     1      -2.243  12.483  20.403  0.00  0.00    +0.000 N 
ATOM      3  C   UNL     1      -3.362  13.310  20.446  0.00  0.00    +0.000 C 
ATOM      4  O   UNL     1      -3.360  14.444  20.922  0.00  0.00    +0.000 OA
ATOM      5  C   UNL     1      -4.650  12.657  20.216  0.00  0.00    +0.000 A 
ATOM      6  C   UNL     1      -5.599  12.728  21.244  0.00  0.00    +0.000 A 
ATOM      7  C   UNL     1      -6.793  12.024  21.134  0.00  0.00    +0.000 A 
ATOM      8  C   UNL     1      -7.044  11.271  19.988  0.00  0.00    +0.000 A 
ATOM      9  C   UNL     1      -6.103  11.228  18.951  0.00  0.00    +0.000 A 
ATOM     10  C   UNL     1      -4.891  11.909  19.077  0.00  0.00    +0.000 A 
ATOM     11  O   UNL     1      -4.024  11.911  18.021  0.00  0.00    +0.000 OA
ATOM     12  C   UNL     1      -2.791  11.338  18.235  0.00  0.00    +0.000 A 
ATOM     13  C   UNL     1      -2.372  10.519  17.171  0.00  0.00    +0.000 A 
ATOM     14  C   UNL     1      -1.137   9.872  17.204  0.00  0.00    +0.000 A 
ATOM     15  C   UNL     1      -0.302  10.047  18.304  0.00  0.00    +0.000 A 
ATOM     16  C   UNL     1      -0.723  10.861  19.369  0.00  0.00    +0.000 A 
ATOM     17  C   UNL     1      -1.957  11.547  19.351  0.00  0.00    +0.000 A 
ENDROOT
BRANCH  15  18
ATOM     18  C   UNL     1       1.013   9.349  18.333  0.00  0.00    +0.000 C 
ATOM     19  O   UNL     1       1.884   9.647  17.525  0.00  0.00    +0.000 OA
ATOM     20  N   UNL     1       1.173   8.387  19.307  0.00  0.00    +0.000 N 
ATOM     21  H   UNL     1       0.551   8.379  20.103  0.00  0.00    +0.000 HD
BRANCH  20  22
ATOM     22  C   UNL     1       2.408   7.644  19.434  0.00  0.00    +0.000 C 
BRANCH  22  23
ATOM     23  C   UNL     1       2.143   6.159  19.379  0.00  0.00    +0.000 A 
ATOM     24  C   UNL     1       2.244   5.467  18.159  0.00  0.00    +0.000 A 
ATOM     25  C   UNL     1       1.990   4.098  18.099  0.00  0.00    +0.000 A 
ATOM     26  C   UNL     1       1.643   3.411  19.255  0.00  0.00    +0.000 A 
ATOM     27  F   UNL     1       1.392   2.097  19.194  0.00  0.00    +0.000 F 
ATOM     28  C   UNL     1       1.552   4.071  20.474  0.00  0.00    +0.000 A 
ATOM     29  C   UNL     1       1.804   5.445  20.538  0.00  0.00    +0.000 A 
ENDBRANCH  22  23
ENDBRANCH  20  22
ENDBRANCH  15  18
TORSDOF 3
ENDMDL
MODEL 8
REMARK VINA RESULT:      -8.4      3.375      9.228
REMARK  Name = 
REMARK  4 active torsions:
REMARK  status: ('A' for Active; 'I' for Inactive)
REMARK    1  A    between atoms: C_1  and  N_2
REMARK    2  A    between atoms: C_15  and  C_16
REMARK    3  A    between atoms: N_18  and  C_19
REMARK    4  A    between atoms: C_19  and  C_20
REMARK                            x       y       z     vdW  Elec       q    Type
REMARK                         _______ _______ _______ _____ _____    ______ ____
ROOT
ATOM      1  C   UNL     1      -0.404  12.494  21.908  0.00  0.00    +0.000 C 
ATOM      2  N   UNL     1      -1.414  12.513  20.862  0.00  0.00    +0.000 N 
ATOM      3  C   UNL     1      -2.396  13.487  21.017  0.00  0.00    +0.000 C 
ATOM      4  O   UNL     1      -2.198  14.587  21.530  0.00  0.00    +0.000 OA
ATOM      5  C   UNL     1      -3.777  13.033  20.860  0.00  0.00    +0.000 A 
ATOM      6  C   UNL     1      -4.634  13.191  21.958  0.00  0.00    +0.000 A 
ATOM      7  C   UNL     1      -5.921  12.668  21.912  0.00  0.00    +0.000 A 
ATOM      8  C   UNL     1      -6.356  12.011  20.762  0.00  0.00    +0.000 A 
ATOM      9  C   UNL     1      -5.505  11.883  19.658  0.00  0.00    +0.000 A 
ATOM     10  C   UNL     1      -4.201  12.379  19.717  0.00  0.00    +0.000 A 
ATOM     11  O   UNL     1      -3.417  12.305  18.601  0.00  0.00    +0.000 OA
ATOM     12  C   UNL     1      -2.268  11.556  18.702  0.00  0.00    +0.000 A 
ATOM     13  C   UNL     1      -2.045  10.734  17.582  0.00  0.00    +0.000 A 
ATOM     14  C   UNL     1      -0.917   9.919  17.501  0.00  0.00    +0.000 A 
ATOM     15  C   UNL     1       0.007   9.924  18.542  0.00  0.00    +0.000 A 
ATOM     16  C   UNL     1      -0.217  10.741  19.662  0.00  0.00    +0.000 A 
ATOM     17  C   UNL     1      -1.338  11.594  19.761  0.00  0.00    +0.000 A 
ENDROOT
BRANCH  15  18
ATOM     18  C   UNL     1       1.207   9.046  18.449  0.00  0.00    +0.000 C 
ATOM     19  O   UNL     1       1.948   9.120  17.476  0.00  0.00    +0.000 OA
ATOM     20  N   UNL     1       1.418   8.186  19.505  0.00  0.00    +0.000 N 
ATOM     21  H   UNL     1       0.955   8.359  20.386  0.00  0.00    +0.000 HD
BRANCH  20  22
ATOM     22  C   UNL     1       2.552   7.287  19.527  0.00  0.00    +0.000 C 
BRANCH  22  23
ATOM     23  C   UNL     1       2.101   5.860  19.338  0.00  0.00    +0.000 A 
ATOM     24  C   UNL     1       1.614   5.120  20.430  0.00  0.00    +0.000 A 
ATOM     25  C   UNL     1       1.205   3.798  20.265  0.00  0.00    +0.000 A 
ATOM     26  C   UNL     1       1.273   3.209  19.010  0.00  0.00    +0.000 A 
ATOM     27  F   UNL     1       0.886   1.937  18.855  0.00  0.00    +0.000 F 
ATOM     28  C   UNL     1       1.736   3.924  17.912  0.00  0.00    +0.000 A 
ATOM     29  C   UNL     1       2.148   5.250  18.075  0.00  0.00    +0.000 A 
ENDBRANCH  22  23
ENDBRANCH  20  22
ENDBRANCH  15  18
TORSDOF 3
ENDMDL
MODEL 9
REMARK VINA RESULT:      -8.4      2.766      4.213
REMARK  Name = 
REMARK  4 active torsions:
REMARK  status: ('A' for Active; 'I' for Inactive)
REMARK    1  A    between atoms: C_1  and  N_2
REMARK    2  A    between atoms: C_15  and  C_16
REMARK    3  A    between atoms: N_18  and  C_19
REMARK    4  A    between atoms: C_19  and  C_20
REMARK                            x       y       z     vdW  Elec       q    Type
REMARK                         _______ _______ _______ _____ _____    ______ ____
ROOT
ATOM      1  C   UNL     1       2.689   4.363  20.691  0.00  0.00    +0.000 C 
ATOM      2  N   UNL     1       3.044   5.164  19.531  0.00  0.00    +0.000 N 
ATOM      3  C   UNL     1       3.806   4.500  18.574  0.00  0.00    +0.000 C 
ATOM      4  O   UNL     1       3.708   3.298  18.331  0.00  0.00    +0.000 OA
ATOM      5  C   UNL     1       4.989   5.211  18.091  0.00  0.00    +0.000 A 
ATOM      6  C   UNL     1       6.233   4.597  18.289  0.00  0.00    +0.000 A 
ATOM      7  C   UNL     1       7.401   5.278  17.964  0.00  0.00    +0.000 A 
ATOM      8  C   UNL     1       7.321   6.558  17.420  0.00  0.00    +0.000 A 
ATOM      9  C   UNL     1       6.073   7.154  17.196  0.00  0.00    +0.000 A 
ATOM     10  C   UNL     1       4.903   6.483  17.555  0.00  0.00    +0.000 A 
ATOM     11  O   UNL     1       3.698   7.056  17.258  0.00  0.00    +0.000 OA
ATOM     12  C   UNL     1       2.882   7.361  18.322  0.00  0.00    +0.000 A 
ATOM     13  C   UNL     1       2.278   8.626  18.209  0.00  0.00    +0.000 A 
ATOM     14  C   UNL     1       1.402   9.096  19.187  0.00  0.00    +0.000 A 
ATOM     15  C   UNL     1       1.113   8.295  20.288  0.00  0.00    +0.000 A 
ATOM     16  C   UNL     1       1.719   7.033  20.404  0.00  0.00    +0.000 A 
ATOM     17  C   UNL     1       2.592   6.523  19.418  0.00  0.00    +0.000 A 
ENDROOT
BRANCH  15  18
ATOM     18  C   UNL     1       0.179   8.806  21.330  0.00  0.00    +0.000 C 
ATOM     19  O   UNL     1      -0.684   8.071  21.795  0.00  0.00    +0.000 OA
ATOM     20  N   UNL     1       0.360  10.115  21.723  0.00  0.00    +0.000 N 
ATOM     21  H   UNL     1       1.237  10.576  21.525  0.00  0.00    +0.000 HD
BRANCH  20  22
ATOM     22  C   UNL     1      -0.485  10.720  22.730  0.00  0.00    +0.000 C 
BRANCH  22  23
ATOM     23  C   UNL     1      -1.084  12.007  22.216  0.00  0.00    +0.000 A 
ATOM     24  C   UNL     1      -1.509  13.000  23.116  0.00  0.00    +0.000 A 
ATOM     25  C   UNL     1      -2.072  14.186  22.649  0.00  0.00    +0.000 A 
ATOM     26  C   UNL     1      -2.207  14.392  21.282  0.00  0.00    +0.000 A 
ATOM     27  F   UNL     1      -2.754  15.529  20.835  0.00  0.00    +0.000 F 
ATOM     28  C   UNL     1      -1.779  13.432  20.373  0.00  0.00    +0.000 A 
ATOM     29  C   UNL     1      -1.216  12.240  20.838  0.00  0.00    +0.000 A 
ENDBRANCH  22  23
ENDBRANCH  20  22
ENDBRANCH  15  18
TORSDOF 3
ENDMDL
