MODEL 1
REMARK VINA RESULT:      -6.3      0.000      0.000
REMARK  Name = 
REMARK  14 active torsions:
REMARK  status: ('A' for Active; 'I' for Inactive)
REMARK    1  A    between atoms: C_1  and  C_2
REMARK    2  A    between atoms: C_2  and  C_3
REMARK    3  A    between atoms: C_3  and  C_20
REMARK    4  A    between atoms: C_4  and  C_5
REMARK    5  A    between atoms: C_5  and  C_6
REMARK    6  A    between atoms: C_6  and  C_7
REMARK    7  A    between atoms: C_9  and  C_10
REMARK    8  A    between atoms: C_10  and  C_11
REMARK    9  A    between atoms: C_12  and  C_13
REMARK   10  A    between atoms: C_13  and  C_14
REMARK   11  A    between atoms: C_14  and  O_16
REMARK   12  A    between atoms: O_16  and  C_17
REMARK   13  A    between atoms: C_22  and  C_23
REMARK   14  A    between atoms: C_23  and  C_24
REMARK                            x       y       z     vdW  Elec       q    Type
REMARK                         _______ _______ _______ _____ _____    ______ ____
ROOT
ATOM      1  C   UNL     1       2.823   6.809  18.054  0.00  0.00    +0.000 C 
ATOM      2  C   UNL     1       2.095   5.489  17.650  0.00  0.00    +0.000 C 
ATOM      3  C   UNL     1       2.529   4.317  18.552  0.00  0.00    +0.000 C 
ATOM      4  C   UNL     1       2.244   4.696  20.038  0.00  0.00    +0.000 C 
ATOM      5  O   UNL     1       1.894   6.098  20.084  0.00  0.00    +0.000 OA
ATOM      6  O   UNL     1       3.013   6.816  19.483  0.00  0.00    +0.000 OA
ENDROOT
BRANCH   1   8
ATOM      7  C   UNL     1       5.423   6.406  17.770  0.00  0.00    +0.000 C 
ATOM      8  C   UNL     1       4.204   6.861  17.392  0.00  0.00    +0.000 C 
BRANCH   7   9
ATOM      9  C   UNL     1       6.579   6.422  16.835  0.00  0.00    +0.000 C 
ATOM     10  O   UNL     1       7.573   5.389  16.750  0.00  0.00    +0.000 OA
ATOM     11  C   UNL     1       6.666   5.499  15.636  0.00  0.00    +0.000 C 
BRANCH  11  12
ATOM     12  C   UNL     1       5.925   4.217  15.422  0.00  0.00    +0.000 C 
ATOM     13  C   UNL     1       5.553   3.995  13.966  0.00  0.00    +0.000 C 
ENDBRANCH  11  12
ENDBRANCH   7   9
BRANCH   7  15
ATOM     14  C   UNL     1       5.711   4.183  19.039  0.00  0.00    +0.000 C 
ATOM     15  C   UNL     1       5.740   5.702  19.081  0.00  0.00    +0.000 C 
ENDBRANCH   7  15
ENDBRANCH   1   8
BRANCH   1  16
ATOM     16  C   UNL     1       1.963   8.028  17.656  0.00  0.00    +0.000 C 
ATOM     17  C   UNL     1       2.483   9.373  18.150  0.00  0.00    +0.000 C 
ENDBRANCH   1  16
BRANCH   3  18
ATOM     18  C   UNL     1       1.971   2.964  18.074  0.00  0.00    +0.000 C 
ATOM     19  C   UNL     1       3.059   2.025  17.555  0.00  0.00    +0.000 C 
ENDBRANCH   3  18
BRANCH   4  20
ATOM     20  C   UNL     1       1.111   3.952  20.740  0.00  0.00    +0.000 C 
BRANCH  20  21
ATOM     21  C   UNL     1       1.719   2.968  21.710  0.00  0.00    +0.000 C 
ATOM     22  O   UNL     1       1.065   2.208  22.415  0.00  0.00    +0.000 OA
BRANCH  21  23
ATOM     23  O   UNL     1       3.079   3.031  21.677  0.00  0.00    +0.000 OA
ATOM     24  C   UNL     1       3.725   1.870  21.149  0.00  0.00    +0.000 C 
ENDBRANCH  21  23
ENDBRANCH  20  21
ENDBRANCH   4  20
TORSDOF 9
ENDMDL
MODEL 2
REMARK VINA RESULT:      -6.2      1.872      6.254
REMARK  Name = 
REMARK  14 active torsions:
REMARK  status: ('A' for Active; 'I' for Inactive)
REMARK    1  A    between atoms: C_1  and  C_2
REMARK    2  A    between atoms: C_2  and  C_3
REMARK    3  A    between atoms: C_3  and  C_20
REMARK    4  A    between atoms: C_4  and  C_5
REMARK    5  A    between atoms: C_5  and  C_6
REMARK    6  A    between atoms: C_6  and  C_7
REMARK    7  A    between atoms: C_9  and  C_10
REMARK    8  A    between atoms: C_10  and  C_11
REMARK    9  A    between atoms: C_12  and  C_13
REMARK   10  A    between atoms: C_13  and  C_14
REMARK   11  A    between atoms: C_14  and  O_16
REMARK   12  A    between atoms: O_16  and  C_17
REMARK   13  A    between atoms: C_22  and  C_23
REMARK   14  A    between atoms: C_23  and  C_24
REMARK                            x       y       z     vdW  Elec       q    Type
REMARK                         _______ _______ _______ _____ _____    ______ ____
ROOT
ATOM      1  C   UNL     1       4.025   5.790  18.120  0.00  0.00    +0.000 C 
ATOM      2  C   UNL     1       5.503   6.155  18.464  0.00  0.00    +0.000 C 
ATOM      3  C   UNL     1       6.463   5.015  18.071  0.00  0.00    +0.000 C 
ATOM      4  C   UNL     1       6.288   4.715  16.551  0.00  0.00    +0.000 C 
ATOM      5  O   UNL     1       5.126   5.436  16.082  0.00  0.00    +0.000 OA
ATOM      6  O   UNL     1       4.011   4.998  16.916  0.00  0.00    +0.000 OA
ENDROOT
BRANCH   1   8
ATOM      7  C   UNL     1       3.578   3.648  19.608  0.00  0.00    +0.000 C 
ATOM      8  C   UNL     1       3.425   4.945  19.250  0.00  0.00    +0.000 C 
BRANCH   7   9
ATOM      9  C   UNL     1       3.015   3.126  20.883  0.00  0.00    +0.000 C 
ATOM     10  O   UNL     1       2.120   3.854  21.737  0.00  0.00    +0.000 OA
ATOM     11  C   UNL     1       1.559   2.733  21.027  0.00  0.00    +0.000 C 
BRANCH  11  12
ATOM     12  C   UNL     1       0.412   3.166  20.167  0.00  0.00    +0.000 C 
ATOM     13  C   UNL     1       0.408   2.480  18.811  0.00  0.00    +0.000 C 
ENDBRANCH  11  12
ENDBRANCH   7   9
BRANCH   7  15
ATOM     14  C   UNL     1       3.679   1.514  18.168  0.00  0.00    +0.000 C 
ATOM     15  C   UNL     1       4.435   2.622  18.884  0.00  0.00    +0.000 C 
ENDBRANCH   7  15
ENDBRANCH   1   8
BRANCH   1  16
ATOM     16  C   UNL     1       3.206   7.077  17.885  0.00  0.00    +0.000 C 
ATOM     17  C   UNL     1       2.312   7.493  19.046  0.00  0.00    +0.000 C 
ENDBRANCH   1  16
BRANCH   3  18
ATOM     18  C   UNL     1       7.904   5.261  18.555  0.00  0.00    +0.000 C 
ATOM     19  C   UNL     1       8.190   6.735  18.836  0.00  0.00    +0.000 C 
ENDBRANCH   3  18
BRANCH   4  20
ATOM     20  C   UNL     1       7.436   5.111  15.626  0.00  0.00    +0.000 C 
BRANCH  20  21
ATOM     21  C   UNL     1       7.029   4.801  14.205  0.00  0.00    +0.000 C 
ATOM     22  O   UNL     1       7.381   5.460  13.233  0.00  0.00    +0.000 OA
BRANCH  21  23
ATOM     23  O   UNL     1       6.241   3.692  14.157  0.00  0.00    +0.000 OA
ATOM     24  C   UNL     1       5.687   3.400  12.870  0.00  0.00    +0.000 C 
ENDBRANCH  21  23
ENDBRANCH  20  21
ENDBRANCH   4  20
TORSDOF 9
ENDMDL
MODEL 3
REMARK VINA RESULT:      -6.1      1.314      1.882
REMARK  Name = 
REMARK  14 active torsions:
REMARK  status: ('A' for Active; 'I' for Inactive)
REMARK    1  A    between atoms: C_1  and  C_2
REMARK    2  A    between atoms: C_2  and  C_3
REMARK    3  A    between atoms: C_3  and  C_20
REMARK    4  A    between atoms: C_4  and  C_5
REMARK    5  A    between atoms: C_5  and  C_6
REMARK    6  A    between atoms: C_6  and  C_7
REMARK    7  A    between atoms: C_9  and  C_10
REMARK    8  A    between atoms: C_10  and  C_11
REMARK    9  A    between atoms: C_12  and  C_13
REMARK   10  A    between atoms: C_13  and  C_14
REMARK   11  A    between atoms: C_14  and  O_16
REMARK   12  A    between atoms: O_16  and  C_17
REMARK   13  A    between atoms: C_22  and  C_23
REMARK   14  A    between atoms: C_23  and  C_24
REMARK                            x       y       z     vdW  Elec       q    Type
REMARK                         _______ _______ _______ _____ _____    ______ ____
ROOT
ATOM      1  C   UNL     1       3.666   5.664  18.257  0.00  0.00    +0.000 C 
ATOM      2  C   UNL     1       3.095   4.246  17.944  0.00  0.00    +0.000 C 
ATOM      3  C   UNL     1       4.046   3.140  18.444  0.00  0.00    +0.000 C 
ATOM      4  C   UNL     1       4.281   3.337  19.973  0.00  0.00    +0.000 C 
ATOM      5  O   UNL     1       3.724   4.616  20.353  0.00  0.00    +0.000 OA
ATOM      6  O   UNL     1       4.379   5.611  19.509  0.00  0.00    +0.000 OA
ENDROOT
BRANCH   1   8
ATOM      7  C   UNL     1       5.970   5.806  16.965  0.00  0.00    +0.000 C 
ATOM      8  C   UNL     1       4.658   6.074  17.163  0.00  0.00    +0.000 C 
BRANCH   7   9
ATOM      9  C   UNL     1       6.654   6.180  15.698  0.00  0.00    +0.000 C 
ATOM     10  O   UNL     1       7.766   5.471  15.131  0.00  0.00    +0.000 OA
ATOM     11  C   UNL     1       6.513   5.366  14.428  0.00  0.00    +0.000 C 
BRANCH  11  12
ATOM     12  C   UNL     1       6.085   3.937  14.309  0.00  0.00    +0.000 C 
ATOM     13  C   UNL     1       5.968   3.481  12.864  0.00  0.00    +0.000 C 
ENDBRANCH  11  12
ENDBRANCH   7   9
BRANCH   7  15
ATOM     14  C   UNL     1       7.698   5.776  18.876  0.00  0.00    +0.000 C 
ATOM     15  C   UNL     1       6.858   4.984  17.887  0.00  0.00    +0.000 C 
ENDBRANCH   7  15
ENDBRANCH   1   8
BRANCH   1  16
ATOM     16  C   UNL     1       2.512   6.681  18.379  0.00  0.00    +0.000 C 
ATOM     17  C   UNL     1       2.830   8.082  17.869  0.00  0.00    +0.000 C 
ENDBRANCH   1  16
BRANCH   3  18
ATOM     18  C   UNL     1       3.606   1.734  17.997  0.00  0.00    +0.000 C 
ATOM     19  C   UNL     1       2.128   1.670  17.616  0.00  0.00    +0.000 C 
ENDBRANCH   3  18
BRANCH   4  20
ATOM     20  C   UNL     1       3.656   2.307  20.912  0.00  0.00    +0.000 C 
BRANCH  20  21
ATOM     21  C   UNL     1       2.401   2.904  21.501  0.00  0.00    +0.000 C 
ATOM     22  O   UNL     1       2.364   3.502  22.571  0.00  0.00    +0.000 OA
BRANCH  21  23
ATOM     23  O   UNL     1       1.334   2.701  20.680  0.00  0.00    +0.000 OA
ATOM     24  C   UNL     1       0.643   3.889  20.283  0.00  0.00    +0.000 C 
ENDBRANCH  21  23
ENDBRANCH  20  21
ENDBRANCH   4  20
TORSDOF 9
ENDMDL
MODEL 4
REMARK VINA RESULT:      -6.1      2.707      5.631
REMARK  Name = 
REMARK  14 active torsions:
REMARK  status: ('A' for Active; 'I' for Inactive)
REMARK    1  A    between atoms: C_1  and  C_2
REMARK    2  A    between atoms: C_2  and  C_3
REMARK    3  A    between atoms: C_3  and  C_20
REMARK    4  A    between atoms: C_4  and  C_5
REMARK    5  A    between atoms: C_5  and  C_6
REMARK    6  A    between atoms: C_6  and  C_7
REMARK    7  A    between atoms: C_9  and  C_10
REMARK    8  A    between atoms: C_10  and  C_11
REMARK    9  A    between atoms: C_12  and  C_13
REMARK   10  A    between atoms: C_13  and  C_14
REMARK   11  A    between atoms: C_14  and  O_16
REMARK   12  A    between atoms: O_16  and  C_17
REMARK   13  A    between atoms: C_22  and  C_23
REMARK   14  A    between atoms: C_23  and  C_24
REMARK                            x       y       z     vdW  Elec       q    Type
REMARK                         _______ _______ _______ _____ _____    ______ ____
ROOT
ATOM      1  C   UNL     1       2.669   6.223  18.607  0.00  0.00    +0.000 C 
ATOM      2  C   UNL     1       1.795   6.731  19.796  0.00  0.00    +0.000 C 
ATOM      3  C   UNL     1       2.025   8.234  20.052  0.00  0.00    +0.000 C 
ATOM      4  C   UNL     1       1.716   9.018  18.740  0.00  0.00    +0.000 C 
ATOM      5  O   UNL     1       1.552   8.058  17.671  0.00  0.00    +0.000 OA
ATOM      6  O   UNL     1       2.786   7.278  17.632  0.00  0.00    +0.000 OA
ENDROOT
BRANCH   1   8
ATOM      7  C   UNL     1       5.070   5.108  18.611  0.00  0.00    +0.000 C 
ATOM      8  C   UNL     1       4.078   5.884  19.109  0.00  0.00    +0.000 C 
BRANCH   7   9
ATOM      9  C   UNL     1       6.429   5.107  19.216  0.00  0.00    +0.000 C 
ATOM     10  O   UNL     1       7.624   4.696  18.534  0.00  0.00    +0.000 OA
ATOM     11  C   UNL     1       7.497   6.103  18.814  0.00  0.00    +0.000 C 
BRANCH  11  12
ATOM     12  C   UNL     1       7.561   6.907  17.552  0.00  0.00    +0.000 C 
ATOM     13  C   UNL     1       7.931   8.359  17.803  0.00  0.00    +0.000 C 
ENDBRANCH  11  12
ENDBRANCH   7   9
BRANCH   7  15
ATOM     14  C   UNL     1       5.129   5.070  16.036  0.00  0.00    +0.000 C 
ATOM     15  C   UNL     1       4.998   4.288  17.332  0.00  0.00    +0.000 C 
ENDBRANCH   7  15
ENDBRANCH   1   8
BRANCH   1  16
ATOM     16  C   UNL     1       2.000   5.000  17.946  0.00  0.00    +0.000 C 
ATOM     17  C   UNL     1       1.470   3.951  18.916  0.00  0.00    +0.000 C 
ENDBRANCH   1  16
BRANCH   3  18
ATOM     18  C   UNL     1       1.317   8.732  21.326  0.00  0.00    +0.000 C 
ATOM     19  C   UNL     1      -0.029   8.049  21.559  0.00  0.00    +0.000 C 
ENDBRANCH   3  18
BRANCH   4  20
ATOM     20  C   UNL     1       0.461   9.886  18.726  0.00  0.00    +0.000 C 
BRANCH  20  21
ATOM     21  C   UNL     1       0.885  11.334  18.768  0.00  0.00    +0.000 C 
ATOM     22  O   UNL     1       2.029  11.718  18.553  0.00  0.00    +0.000 OA
BRANCH  21  23
ATOM     23  O   UNL     1      -0.172  12.142  19.058  0.00  0.00    +0.000 OA
ATOM     24  C   UNL     1      -1.403  11.774  18.428  0.00  0.00    +0.000 C 
ENDBRANCH  21  23
ENDBRANCH  20  21
ENDBRANCH   4  20
TORSDOF 9
ENDMDL
MODEL 5
REMARK VINA RESULT:      -5.9      2.092      6.662
REMARK  Name = 
REMARK  14 active torsions:
REMARK  status: ('A' for Active; 'I' for Inactive)
REMARK    1  A    between atoms: C_1  and  C_2
REMARK    2  A    between atoms: C_2  and  C_3
REMARK    3  A    between atoms: C_3  and  C_20
REMARK    4  A    between atoms: C_4  and  C_5
REMARK    5  A    between atoms: C_5  and  C_6
REMARK    6  A    between atoms: C_6  and  C_7
REMARK    7  A    between atoms: C_9  and  C_10
REMARK    8  A    between atoms: C_10  and  C_11
REMARK    9  A    between atoms: C_12  and  C_13
REMARK   10  A    between atoms: C_13  and  C_14
REMARK   11  A    between atoms: C_14  and  O_16
REMARK   12  A    between atoms: O_16  and  C_17
REMARK   13  A    between atoms: C_22  and  C_23
REMARK   14  A    between atoms: C_23  and  C_24
REMARK                            x       y       z     vdW  Elec       q    Type
REMARK                         _______ _______ _______ _____ _____    ______ ____
ROOT
ATOM      1  C   UNL     1       5.451   4.168  17.057  0.00  0.00    +0.000 C 
ATOM      2  C   UNL     1       4.730   5.517  16.745  0.00  0.00    +0.000 C 
ATOM      3  C   UNL     1       5.140   6.612  17.749  0.00  0.00    +0.000 C 
ATOM      4  C   UNL     1       6.691   6.770  17.710  0.00  0.00    +0.000 C 
ATOM      5  O   UNL     1       7.235   5.683  16.928  0.00  0.00    +0.000 OA
ATOM      6  O   UNL     1       6.770   4.453  17.564  0.00  0.00    +0.000 OA
ENDROOT
BRANCH   1   8
ATOM      7  C   UNL     1       3.404   2.962  18.221  0.00  0.00    +0.000 C 
ATOM      8  C   UNL     1       4.680   3.409  18.142  0.00  0.00    +0.000 C 
BRANCH   7   9
ATOM      9  C   UNL     1       2.962   2.072  19.329  0.00  0.00    +0.000 C 
ATOM     10  O   UNL     1       3.184   2.335  20.723  0.00  0.00    +0.000 OA
ATOM     11  C   UNL     1       1.824   2.438  20.260  0.00  0.00    +0.000 C 
BRANCH  11  12
ATOM     12  C   UNL     1       1.271   3.804  20.525  0.00  0.00    +0.000 C 
ATOM     13  C   UNL     1       2.279   4.721  21.196  0.00  0.00    +0.000 C 
ENDBRANCH  11  12
ENDBRANCH   7   9
BRANCH   7  15
ATOM     14  C   UNL     1       1.422   4.362  17.354  0.00  0.00    +0.000 C 
ATOM     15  C   UNL     1       2.328   3.156  17.164  0.00  0.00    +0.000 C 
ENDBRANCH   7  15
ENDBRANCH   1   8
BRANCH   1  16
ATOM     16  C   UNL     1       5.579   3.329  15.768  0.00  0.00    +0.000 C 
ATOM     17  C   UNL     1       5.488   4.121  14.470  0.00  0.00    +0.000 C 
ENDBRANCH   1  16
BRANCH   3  18
ATOM     18  C   UNL     1       4.318   7.904  17.585  0.00  0.00    +0.000 C 
ATOM     19  C   UNL     1       2.833   7.701  17.880  0.00  0.00    +0.000 C 
ENDBRANCH   3  18
BRANCH   4  20
ATOM     20  C   UNL     1       7.245   8.053  17.094  0.00  0.00    +0.000 C 
BRANCH  20  21
ATOM     21  C   UNL     1       8.195   8.682  18.084  0.00  0.00    +0.000 C 
ATOM     22  O   UNL     1       8.751   8.066  18.986  0.00  0.00    +0.000 OA
BRANCH  21  23
ATOM     23  O   UNL     1       8.359  10.009  17.825  0.00  0.00    +0.000 OA
ATOM     24  C   UNL     1       9.296  10.679  18.672  0.00  0.00    +0.000 C 
ENDBRANCH  21  23
ENDBRANCH  20  21
ENDBRANCH   4  20
TORSDOF 9
ENDMDL
MODEL 6
REMARK VINA RESULT:      -5.7      1.842      6.176
REMARK  Name = 
REMARK  14 active torsions:
REMARK  status: ('A' for Active; 'I' for Inactive)
REMARK    1  A    between atoms: C_1  and  C_2
REMARK    2  A    between atoms: C_2  and  C_3
REMARK    3  A    between atoms: C_3  and  C_20
REMARK    4  A    between atoms: C_4  and  C_5
REMARK    5  A    between atoms: C_5  and  C_6
REMARK    6  A    between atoms: C_6  and  C_7
REMARK    7  A    between atoms: C_9  and  C_10
REMARK    8  A    between atoms: C_10  and  C_11
REMARK    9  A    between atoms: C_12  and  C_13
REMARK   10  A    between atoms: C_13  and  C_14
REMARK   11  A    between atoms: C_14  and  O_16
REMARK   12  A    between atoms: O_16  and  C_17
REMARK   13  A    between atoms: C_22  and  C_23
REMARK   14  A    between atoms: C_23  and  C_24
REMARK                            x       y       z     vdW  Elec       q    Type
REMARK                         _______ _______ _______ _____ _____    ______ ____
ROOT
ATOM      1  C   UNL     1       4.010   6.369  17.861  0.00  0.00    +0.000 C 
ATOM      2  C   UNL     1       5.531   6.551  18.160  0.00  0.00    +0.000 C 
ATOM      3  C   UNL     1       6.290   5.217  18.012  0.00  0.00    +0.000 C 
ATOM      4  C   UNL     1       6.053   4.664  16.573  0.00  0.00    +0.000 C 
ATOM      5  O   UNL     1       5.019   5.460  15.951  0.00  0.00    +0.000 OA
ATOM      6  O   UNL     1       3.856   5.374  16.829  0.00  0.00    +0.000 OA
ENDROOT
BRANCH   1   8
ATOM      7  C   UNL     1       2.239   5.034  19.304  0.00  0.00    +0.000 C 
ATOM      8  C   UNL     1       3.293   5.863  19.118  0.00  0.00    +0.000 C 
BRANCH   7   9
ATOM      9  C   UNL     1       1.862   4.553  20.660  0.00  0.00    +0.000 C 
ATOM     10  O   UNL     1       1.064   3.388  20.920  0.00  0.00    +0.000 OA
ATOM     11  C   UNL     1       2.458   3.302  21.273  0.00  0.00    +0.000 C 
BRANCH  11  12
ATOM     12  C   UNL     1       3.122   2.168  20.556  0.00  0.00    +0.000 C 
ATOM     13  C   UNL     1       4.574   2.460  20.220  0.00  0.00    +0.000 C 
ENDBRANCH  11  12
ENDBRANCH   7   9
BRANCH   7  15
ATOM     14  C   UNL     1       2.066   3.174  17.529  0.00  0.00    +0.000 C 
ATOM     15  C   UNL     1       1.422   4.375  18.203  0.00  0.00    +0.000 C 
ENDBRANCH   7  15
ENDBRANCH   1   8
BRANCH   1  16
ATOM     16  C   UNL     1       3.407   7.701  17.368  0.00  0.00    +0.000 C 
ATOM     17  C   UNL     1       2.280   8.257  18.230  0.00  0.00    +0.000 C 
ENDBRANCH   1  16
BRANCH   3  18
ATOM     18  C   UNL     1       7.756   5.317  18.471  0.00  0.00    +0.000 C 
ATOM     19  C   UNL     1       7.890   5.581  19.970  0.00  0.00    +0.000 C 
ENDBRANCH   3  18
BRANCH   4  20
ATOM     20  C   UNL     1       7.240   4.687  15.614  0.00  0.00    +0.000 C 
BRANCH  20  21
ATOM     21  C   UNL     1       6.738   4.356  14.229  0.00  0.00    +0.000 C 
ATOM     22  O   UNL     1       5.895   3.498  13.994  0.00  0.00    +0.000 OA
BRANCH  21  23
ATOM     23  O   UNL     1       7.332   5.148  13.295  0.00  0.00    +0.000 OA
ATOM     24  C   UNL     1       7.399   4.586  11.981  0.00  0.00    +0.000 C 
ENDBRANCH  21  23
ENDBRANCH  20  21
ENDBRANCH   4  20
TORSDOF 9
ENDMDL
MODEL 7
REMARK VINA RESULT:      -5.7      2.051      6.203
REMARK  Name = 
REMARK  14 active torsions:
REMARK  status: ('A' for Active; 'I' for Inactive)
REMARK    1  A    between atoms: C_1  and  C_2
REMARK    2  A    between atoms: C_2  and  C_3
REMARK    3  A    between atoms: C_3  and  C_20
REMARK    4  A    between atoms: C_4  and  C_5
REMARK    5  A    between atoms: C_5  and  C_6
REMARK    6  A    between atoms: C_6  and  C_7
REMARK    7  A    between atoms: C_9  and  C_10
REMARK    8  A    between atoms: C_10  and  C_11
REMARK    9  A    between atoms: C_12  and  C_13
REMARK   10  A    between atoms: C_13  and  C_14
REMARK   11  A    between atoms: C_14  and  O_16
REMARK   12  A    between atoms: O_16  and  C_17
REMARK   13  A    between atoms: C_22  and  C_23
REMARK   14  A    between atoms: C_23  and  C_24
REMARK                            x       y       z     vdW  Elec       q    Type
REMARK                         _______ _______ _______ _____ _____    ______ ____
ROOT
ATOM      1  C   UNL     1       4.118   6.245  17.785  0.00  0.00    +0.000 C 
ATOM      2  C   UNL     1       5.664   6.251  18.003  0.00  0.00    +0.000 C 
ATOM      3  C   UNL     1       6.290   4.907  17.582  0.00  0.00    +0.000 C 
ATOM      4  C   UNL     1       5.924   4.630  16.092  0.00  0.00    +0.000 C 
ATOM      5  O   UNL     1       4.932   5.600  15.685  0.00  0.00    +0.000 OA
ATOM      6  O   UNL     1       3.818   5.457  16.616  0.00  0.00    +0.000 OA
ENDROOT
BRANCH   1   8
ATOM      7  C   UNL     1       3.492   4.344  19.517  0.00  0.00    +0.000 C 
ATOM      8  C   UNL     1       3.430   5.590  18.988  0.00  0.00    +0.000 C 
BRANCH   7   9
ATOM      9  C   UNL     1       2.855   4.026  20.823  0.00  0.00    +0.000 C 
ATOM     10  O   UNL     1       1.705   4.700  21.355  0.00  0.00    +0.000 OA
ATOM     11  C   UNL     1       1.507   3.341  20.923  0.00  0.00    +0.000 C 
BRANCH  11  12
ATOM     12  C   UNL     1       0.447   3.264  19.869  0.00  0.00    +0.000 C 
ATOM     13  C   UNL     1       0.730   2.189  18.834  0.00  0.00    +0.000 C 
ENDBRANCH  11  12
ENDBRANCH   7   9
BRANCH   7  15
ATOM     14  C   UNL     1       4.568   2.040  19.934  0.00  0.00    +0.000 C 
ATOM     15  C   UNL     1       4.312   3.187  18.969  0.00  0.00    +0.000 C 
ENDBRANCH   7  15
ENDBRANCH   1   8
BRANCH   1  16
ATOM     16  C   UNL     1       3.611   7.685  17.564  0.00  0.00    +0.000 C 
ATOM     17  C   UNL     1       2.188   7.949  18.043  0.00  0.00    +0.000 C 
ENDBRANCH   1  16
BRANCH   3  18
ATOM     18  C   UNL     1       7.783   4.809  17.947  0.00  0.00    +0.000 C 
ATOM     19  C   UNL     1       8.145   5.636  19.180  0.00  0.00    +0.000 C 
ENDBRANCH   3  18
BRANCH   4  20
ATOM     20  C   UNL     1       7.053   4.722  15.069  0.00  0.00    +0.000 C 
BRANCH  20  21
ATOM     21  C   UNL     1       6.532   4.229  13.741  0.00  0.00    +0.000 C 
ATOM     22  O   UNL     1       5.479   3.616  13.604  0.00  0.00    +0.000 OA
BRANCH  21  23
ATOM     23  O   UNL     1       7.376   4.572  12.729  0.00  0.00    +0.000 OA
ATOM     24  C   UNL     1       8.238   5.678  13.011  0.00  0.00    +0.000 C 
ENDBRANCH  21  23
ENDBRANCH  20  21
ENDBRANCH   4  20
TORSDOF 9
ENDMDL
MODEL 8
REMARK VINA RESULT:      -5.7      1.788      3.152
REMARK  Name = 
REMARK  14 active torsions:
REMARK  status: ('A' for Active; 'I' for Inactive)
REMARK    1  A    between atoms: C_1  and  C_2
REMARK    2  A    between atoms: C_2  and  C_3
REMARK    3  A    between atoms: C_3  and  C_20
REMARK    4  A    between atoms: C_4  and  C_5
REMARK    5  A    between atoms: C_5  and  C_6
REMARK    6  A    between atoms: C_6  and  C_7
REMARK    7  A    between atoms: C_9  and  C_10
REMARK    8  A    between atoms: C_10  and  C_11
REMARK    9  A    between atoms: C_12  and  C_13
REMARK   10  A    between atoms: C_13  and  C_14
REMARK   11  A    between atoms: C_14  and  O_16
REMARK   12  A    between atoms: O_16  and  C_17
REMARK   13  A    between atoms: C_22  and  C_23
REMARK   14  A    between atoms: C_23  and  C_24
REMARK                            x       y       z     vdW  Elec       q    Type
REMARK                         _______ _______ _______ _____ _____    ______ ____
ROOT
ATOM      1  C   UNL     1       5.379   4.403  18.515  0.00  0.00    +0.000 C 
ATOM      2  C   UNL     1       3.862   4.725  18.342  0.00  0.00    +0.000 C 
ATOM      3  C   UNL     1       3.083   3.488  17.855  0.00  0.00    +0.000 C 
ATOM      4  C   UNL     1       3.308   2.324  18.868  0.00  0.00    +0.000 C 
ATOM      5  O   UNL     1       4.353   2.722  19.785  0.00  0.00    +0.000 OA
ATOM      6  O   UNL     1       5.516   3.040  18.963  0.00  0.00    +0.000 OA
ENDROOT
BRANCH   1   8
ATOM      7  C   UNL     1       5.969   5.411  16.140  0.00  0.00    +0.000 C 
ATOM      8  C   UNL     1       6.092   4.532  17.164  0.00  0.00    +0.000 C 
BRANCH   7   9
ATOM      9  C   UNL     1       6.935   5.420  15.009  0.00  0.00    +0.000 C 
ATOM     10  O   UNL     1       7.708   4.286  14.588  0.00  0.00    +0.000 OA
ATOM     11  C   UNL     1       6.658   4.711  13.699  0.00  0.00    +0.000 C 
BRANCH  11  12
ATOM     12  C   UNL     1       5.682   3.601  13.456  0.00  0.00    +0.000 C 
ATOM     13  C   UNL     1       5.669   3.143  12.008  0.00  0.00    +0.000 C 
ENDBRANCH  11  12
ENDBRANCH   7   9
BRANCH   7  15
ATOM     14  C   UNL     1       5.265   7.739  16.991  0.00  0.00    +0.000 C 
ATOM     15  C   UNL     1       4.978   6.562  16.072  0.00  0.00    +0.000 C 
ENDBRANCH   7  15
ENDBRANCH   1   8
BRANCH   1  16
ATOM     16  C   UNL     1       6.000   5.343  19.570  0.00  0.00    +0.000 C 
ATOM     17  C   UNL     1       7.471   5.675  19.351  0.00  0.00    +0.000 C 
ENDBRANCH   1  16
BRANCH   3  18
ATOM     18  C   UNL     1       1.619   3.810  17.502  0.00  0.00    +0.000 C 
ATOM     19  C   UNL     1       1.300   5.301  17.610  0.00  0.00    +0.000 C 
ENDBRANCH   3  18
BRANCH   4  20
ATOM     20  C   UNL     1       2.119   1.913  19.733  0.00  0.00    +0.000 C 
BRANCH  20  21
ATOM     21  C   UNL     1       2.154   2.727  21.004  0.00  0.00    +0.000 C 
ATOM     22  O   UNL     1       2.818   2.428  21.990  0.00  0.00    +0.000 OA
BRANCH  21  23
ATOM     23  O   UNL     1       1.368   3.833  20.894  0.00  0.00    +0.000 OA
ATOM     24  C   UNL     1       2.031   5.073  21.156  0.00  0.00    +0.000 C 
ENDBRANCH  21  23
ENDBRANCH  20  21
ENDBRANCH   4  20
TORSDOF 9
ENDMDL
MODEL 9
REMARK VINA RESULT:      -5.6      2.871      5.514
REMARK  Name = 
REMARK  14 active torsions:
REMARK  status: ('A' for Active; 'I' for Inactive)
REMARK    1  A    between atoms: C_1  and  C_2
REMARK    2  A    between atoms: C_2  and  C_3
REMARK    3  A    between atoms: C_3  and  C_20
REMARK    4  A    between atoms: C_4  and  C_5
REMARK    5  A    between atoms: C_5  and  C_6
REMARK    6  A    between atoms: C_6  and  C_7
REMARK    7  A    between atoms: C_9  and  C_10
REMARK    8  A    between atoms: C_10  and  C_11
REMARK    9  A    between atoms: C_12  and  C_13
REMARK   10  A    between atoms: C_13  and  C_14
REMARK   11  A    between atoms: C_14  and  O_16
REMARK   12  A    between atoms: O_16  and  C_17
REMARK   13  A    between atoms: C_22  and  C_23
REMARK   14  A    between atoms: C_23  and  C_24
REMARK                            x       y       z     vdW  Elec       q    Type
REMARK                         _______ _______ _______ _____ _____    ______ ____
ROOT
ATOM      1  C   UNL     1       3.011   6.458  18.405  0.00  0.00    +0.000 C 
ATOM      2  C   UNL     1       1.958   6.579  19.550  0.00  0.00    +0.000 C 
ATOM      3  C   UNL     1       1.915   8.011  20.118  0.00  0.00    +0.000 C 
ATOM      4  C   UNL     1       1.608   9.002  18.952  0.00  0.00    +0.000 C 
ATOM      5  O   UNL     1       1.704   8.274  17.707  0.00  0.00    +0.000 OA
ATOM      6  O   UNL     1       3.046   7.700  17.673  0.00  0.00    +0.000 OA
ENDROOT
BRANCH   1   8
ATOM      7  C   UNL     1       5.211   5.137  19.053  0.00  0.00    +0.000 C 
ATOM      8  C   UNL     1       4.402   6.223  19.004  0.00  0.00    +0.000 C 
BRANCH   7   9
ATOM      9  C   UNL     1       6.613   5.238  19.537  0.00  0.00    +0.000 C 
ATOM     10  O   UNL     1       7.757   4.730  18.834  0.00  0.00    +0.000 OA
ATOM     11  C   UNL     1       7.629   6.163  18.899  0.00  0.00    +0.000 C 
BRANCH  11  12
ATOM     12  C   UNL     1       7.578   6.758  17.526  0.00  0.00    +0.000 C 
ATOM     13  C   UNL     1       7.657   8.275  17.544  0.00  0.00    +0.000 C 
ENDBRANCH  11  12
ENDBRANCH   7   9
BRANCH   7  15
ATOM     14  C   UNL     1       4.362   2.747  19.509  0.00  0.00    +0.000 C 
ATOM     15  C   UNL     1       4.881   3.759  18.500  0.00  0.00    +0.000 C 
ENDBRANCH   7  15
ENDBRANCH   1   8
BRANCH   1  16
ATOM     16  C   UNL     1       2.615   5.319  17.442  0.00  0.00    +0.000 C 
ATOM     17  C   UNL     1       1.420   4.485  17.888  0.00  0.00    +0.000 C 
ENDBRANCH   1  16
BRANCH   3  18
ATOM     18  C   UNL     1       1.020   8.128  21.365  0.00  0.00    +0.000 C 
ATOM     19  C   UNL     1       1.476   9.230  22.319  0.00  0.00    +0.000 C 
ENDBRANCH   3  18
BRANCH   4  20
ATOM     20  C   UNL     1       0.236   9.669  18.950  0.00  0.00    +0.000 C 
BRANCH  20  21
ATOM     21  C   UNL     1       0.430  11.155  19.134  0.00  0.00    +0.000 C 
ATOM     22  O   UNL     1       1.433  11.763  18.778  0.00  0.00    +0.000 OA
BRANCH  21  23
ATOM     23  O   UNL     1      -0.659  11.718  19.726  0.00  0.00    +0.000 OA
ATOM     24  C   UNL     1      -0.424  12.265  21.027  0.00  0.00    +0.000 C 
ENDBRANCH  21  23
ENDBRANCH  20  21
ENDBRANCH   4  20
TORSDOF 9
ENDMDL
