MODEL 1
REMARK VINA RESULT:      -7.9      0.000      0.000
REMARK  Name = 
REMARK  6 active torsions:
REMARK  status: ('A' for Active; 'I' for Inactive)
REMARK    1  A    between atoms: C_1  and  C_2
REMARK    2  A    between atoms: C_2  and  C_4
REMARK    3  A    between atoms: C_7  and  N_8
REMARK    4  A    between atoms: C_11  and  C_12
REMARK    5  A    between atoms: C_12  and  C_13
REMARK    6  A    between atoms: C_21  and  C_22
REMARK                            x       y       z     vdW  Elec       q    Type
REMARK                         _______ _______ _______ _____ _____    ______ ____
ROOT
ATOM      1  N   UNL     1       1.473   8.519  20.164  0.00  0.00    +0.000 N 
ATOM      2  C   UNL     1       1.197   8.441  21.603  0.00  0.00    +0.000 C 
ATOM      3  C   UNL     1      -0.292   8.704  21.815  0.00  0.00    +0.000 C 
ATOM      4  C   UNL     1      -0.704  10.091  21.294  0.00  0.00    +0.000 C 
ATOM      5  C   UNL     1      -0.226  10.253  19.829  0.00  0.00    +0.000 C 
ATOM      6  C   UNL     1       1.234   9.833  19.568  0.00  0.00    +0.000 C 
ENDROOT
BRANCH   1  10
ATOM      7  C   UNL     1       3.468   5.299  18.257  0.00  0.00    +0.000 A 
ATOM      8  C   UNL     1       2.877   5.138  19.506  0.00  0.00    +0.000 A 
ATOM      9  C   UNL     1       2.210   6.208  20.111  0.00  0.00    +0.000 A 
ATOM     10  C   UNL     1       2.130   7.483  19.522  0.00  0.00    +0.000 A 
ATOM     11  C   UNL     1       2.731   7.618  18.260  0.00  0.00    +0.000 A 
ATOM     12  C   UNL     1       3.392   6.543  17.629  0.00  0.00    +0.000 A 
BRANCH   7  14
ATOM     13  C   UNL     1       5.388   4.357  16.825  0.00  0.00    +0.000 C 
ATOM     14  C   UNL     1       4.154   4.125  17.654  0.00  0.00    +0.000 C 
ATOM     15  O   UNL     1       3.687   2.998  17.807  0.00  0.00    +0.000 OA
ENDBRANCH   7  14
ENDBRANCH   1  10
BRANCH   4  16
ATOM     16  C   UNL     1      -0.211  11.236  22.205  0.00  0.00    +0.000 C 
BRANCH  16  17
ATOM     17  C   UNL     1      -1.232  12.370  22.400  0.00  0.00    +0.000 C 
ATOM     18  O   UNL     1      -0.934  13.536  22.173  0.00  0.00    +0.000 OA
ATOM     19  N   UNL     1      -2.435  11.909  22.864  0.00  0.00    +0.000 N 
ATOM     20  C   UNL     1      -3.563  12.645  23.083  0.00  0.00    +0.000 A 
ATOM     21  N   UNL     1      -4.603  12.139  23.710  0.00  0.00    +0.000 NA
ATOM     22  C   UNL     1      -5.520  13.152  23.699  0.00  0.00    +0.000 A 
ATOM     23  C   UNL     1      -6.812  13.201  24.242  0.00  0.00    +0.000 A 
ATOM     24  C   UNL     1      -7.561  14.367  24.066  0.00  0.00    +0.000 A 
ATOM     25  C   UNL     1      -7.045  15.471  23.359  0.00  0.00    +0.000 A 
ATOM     26  C   UNL     1      -7.916  16.685  23.174  0.00  0.00    +0.000 C 
ATOM     27  C   UNL     1      -5.742  15.425  22.806  0.00  0.00    +0.000 A 
ATOM     28  C   UNL     1      -5.015  14.250  23.020  0.00  0.00    +0.000 A 
ATOM     29  O   UNL     1      -3.732  13.928  22.624  0.00  0.00    +0.000 OA
ATOM     30  H   UNL     1      -2.526  10.954  23.173  0.00  0.00    +0.000 HD
ENDBRANCH  16  17
ENDBRANCH   4  16
TORSDOF 4
ENDMDL
MODEL 2
REMARK VINA RESULT:      -7.8      0.618      1.113
REMARK  Name = 
REMARK  6 active torsions:
REMARK  status: ('A' for Active; 'I' for Inactive)
REMARK    1  A    between atoms: C_1  and  C_2
REMARK    2  A    between atoms: C_2  and  C_4
REMARK    3  A    between atoms: C_7  and  N_8
REMARK    4  A    between atoms: C_11  and  C_12
REMARK    5  A    between atoms: C_12  and  C_13
REMARK    6  A    between atoms: C_21  and  C_22
REMARK                            x       y       z     vdW  Elec       q    Type
REMARK                         _______ _______ _______ _____ _____    ______ ____
ROOT
ATOM      1  N   UNL     1       1.459   8.631  20.097  0.00  0.00    +0.000 N 
ATOM      2  C   UNL     1       1.280   8.533  21.550  0.00  0.00    +0.000 C 
ATOM      3  C   UNL     1      -0.201   8.732  21.860  0.00  0.00    +0.000 C 
ATOM      4  C   UNL     1      -0.703  10.105  21.378  0.00  0.00    +0.000 C 
ATOM      5  C   UNL     1      -0.328  10.294  19.887  0.00  0.00    +0.000 C 
ATOM      6  C   UNL     1       1.128   9.937  19.529  0.00  0.00    +0.000 C 
ENDROOT
BRANCH   1  10
ATOM      7  C   UNL     1       3.492   5.608  17.925  0.00  0.00    +0.000 A 
ATOM      8  C   UNL     1       3.489   6.929  17.487  0.00  0.00    +0.000 A 
ATOM      9  C   UNL     1       2.826   7.914  18.226  0.00  0.00    +0.000 A 
ATOM     10  C   UNL     1       2.115   7.626  19.405  0.00  0.00    +0.000 A 
ATOM     11  C   UNL     1       2.137   6.287  19.828  0.00  0.00    +0.000 A 
ATOM     12  C   UNL     1       2.816   5.286  19.103  0.00  0.00    +0.000 A 
BRANCH   7  14
ATOM     13  C   UNL     1       3.991   3.143  17.381  0.00  0.00    +0.000 C 
ATOM     14  C   UNL     1       4.223   4.604  17.107  0.00  0.00    +0.000 C 
ATOM     15  O   UNL     1       5.027   4.977  16.254  0.00  0.00    +0.000 OA
ENDBRANCH   7  14
ENDBRANCH   1  10
BRANCH   4  16
ATOM     16  C   UNL     1      -0.199  11.264  22.265  0.00  0.00    +0.000 C 
BRANCH  16  17
ATOM     17  C   UNL     1      -1.221  12.397  22.460  0.00  0.00    +0.000 C 
ATOM     18  O   UNL     1      -0.917  13.565  22.253  0.00  0.00    +0.000 OA
ATOM     19  N   UNL     1      -2.432  11.932  22.901  0.00  0.00    +0.000 N 
ATOM     20  C   UNL     1      -3.561  12.669  23.113  0.00  0.00    +0.000 A 
ATOM     21  N   UNL     1      -4.611  12.156  23.719  0.00  0.00    +0.000 NA
ATOM     22  C   UNL     1      -5.526  13.171  23.708  0.00  0.00    +0.000 A 
ATOM     23  C   UNL     1      -6.825  13.217  24.233  0.00  0.00    +0.000 A 
ATOM     24  C   UNL     1      -7.569  14.386  24.061  0.00  0.00    +0.000 A 
ATOM     25  C   UNL     1      -7.041  15.498  23.376  0.00  0.00    +0.000 A 
ATOM     26  C   UNL     1      -7.907  16.716  23.194  0.00  0.00    +0.000 C 
ATOM     27  C   UNL     1      -5.730  15.456  22.841  0.00  0.00    +0.000 A 
ATOM     28  C   UNL     1      -5.009  14.277  23.050  0.00  0.00    +0.000 A 
ATOM     29  O   UNL     1      -3.721  13.958  22.669  0.00  0.00    +0.000 OA
ATOM     30  H   UNL     1      -2.529  10.974  23.196  0.00  0.00    +0.000 HD
ENDBRANCH  16  17
ENDBRANCH   4  16
TORSDOF 4
ENDMDL
MODEL 3
REMARK VINA RESULT:      -7.7      2.146      2.700
REMARK  Name = 
REMARK  6 active torsions:
REMARK  status: ('A' for Active; 'I' for Inactive)
REMARK    1  A    between atoms: C_1  and  C_2
REMARK    2  A    between atoms: C_2  and  C_4
REMARK    3  A    between atoms: C_7  and  N_8
REMARK    4  A    between atoms: C_11  and  C_12
REMARK    5  A    between atoms: C_12  and  C_13
REMARK    6  A    between atoms: C_21  and  C_22
REMARK                            x       y       z     vdW  Elec       q    Type
REMARK                         _______ _______ _______ _____ _____    ______ ____
ROOT
ATOM      1  N   UNL     1       1.926   7.994  19.544  0.00  0.00    +0.000 N 
ATOM      2  C   UNL     1       1.554   8.564  20.844  0.00  0.00    +0.000 C 
ATOM      3  C   UNL     1       0.117   9.069  20.745  0.00  0.00    +0.000 C 
ATOM      4  C   UNL     1      -0.033  10.146  19.658  0.00  0.00    +0.000 C 
ATOM      5  C   UNL     1       0.553   9.616  18.325  0.00  0.00    +0.000 C 
ATOM      6  C   UNL     1       1.939   8.952  18.439  0.00  0.00    +0.000 C 
ENDROOT
BRANCH   1  10
ATOM      7  C   UNL     1       3.475   4.050  19.367  0.00  0.00    +0.000 A 
ATOM      8  C   UNL     1       2.578   4.425  20.363  0.00  0.00    +0.000 A 
ATOM      9  C   UNL     1       2.066   5.726  20.394  0.00  0.00    +0.000 A 
ATOM     10  C   UNL     1       2.446   6.712  19.466  0.00  0.00    +0.000 A 
ATOM     11  C   UNL     1       3.348   6.307  18.469  0.00  0.00    +0.000 A 
ATOM     12  C   UNL     1       3.860   4.994  18.414  0.00  0.00    +0.000 A 
BRANCH   7  14
ATOM     13  C   UNL     1       3.338   1.648  18.452  0.00  0.00    +0.000 C 
ATOM     14  C   UNL     1       3.979   2.650  19.374  0.00  0.00    +0.000 C 
ATOM     15  O   UNL     1       4.875   2.325  20.150  0.00  0.00    +0.000 OA
ENDBRANCH   7  14
ENDBRANCH   1  10
BRANCH   4  16
ATOM     16  C   UNL     1       0.581  11.499  20.075  0.00  0.00    +0.000 C 
BRANCH  16  17
ATOM     17  C   UNL     1      -0.448  12.540  20.546  0.00  0.00    +0.000 C 
ATOM     18  O   UNL     1      -1.308  12.968  19.786  0.00  0.00    +0.000 OA
ATOM     19  N   UNL     1      -0.249  12.913  21.849  0.00  0.00    +0.000 N 
ATOM     20  C   UNL     1      -1.022  13.767  22.581  0.00  0.00    +0.000 A 
ATOM     21  N   UNL     1      -0.634  14.203  23.760  0.00  0.00    +0.000 NA
ATOM     22  C   UNL     1      -1.671  14.990  24.179  0.00  0.00    +0.000 A 
ATOM     23  C   UNL     1      -1.814  15.739  25.355  0.00  0.00    +0.000 A 
ATOM     24  C   UNL     1      -3.003  16.445  25.551  0.00  0.00    +0.000 A 
ATOM     25  C   UNL     1      -4.042  16.411  24.600  0.00  0.00    +0.000 A 
ATOM     26  C   UNL     1      -5.312  17.166  24.887  0.00  0.00    +0.000 C 
ATOM     27  C   UNL     1      -3.904  15.653  23.411  0.00  0.00    +0.000 A 
ATOM     28  C   UNL     1      -2.692  14.976  23.241  0.00  0.00    +0.000 A 
ATOM     29  O   UNL     1      -2.269  14.187  22.190  0.00  0.00    +0.000 OA
ATOM     30  H   UNL     1       0.583  12.624  22.336  0.00  0.00    +0.000 HD
ENDBRANCH  16  17
ENDBRANCH   4  16
TORSDOF 4
ENDMDL
MODEL 4
REMARK VINA RESULT:      -7.7      2.191     11.789
REMARK  Name = 
REMARK  6 active torsions:
REMARK  status: ('A' for Active; 'I' for Inactive)
REMARK    1  A    between atoms: C_1  and  C_2
REMARK    2  A    between atoms: C_2  and  C_4
REMARK    3  A    between atoms: C_7  and  N_8
REMARK    4  A    between atoms: C_11  and  C_12
REMARK    5  A    between atoms: C_12  and  C_13
REMARK    6  A    between atoms: C_21  and  C_22
REMARK                            x       y       z     vdW  Elec       q    Type
REMARK                         _______ _______ _______ _____ _____    ______ ____
ROOT
ATOM      1  N   UNL     1      -1.026  11.158  22.252  0.00  0.00    +0.000 N 
ATOM      2  C   UNL     1      -0.961   9.891  22.989  0.00  0.00    +0.000 C 
ATOM      3  C   UNL     1       0.510   9.546  23.207  0.00  0.00    +0.000 C 
ATOM      4  C   UNL     1       1.262   9.395  21.874  0.00  0.00    +0.000 C 
ATOM      5  C   UNL     1       1.021  10.653  21.003  0.00  0.00    +0.000 C 
ATOM      6  C   UNL     1      -0.448  11.112  20.909  0.00  0.00    +0.000 C 
ENDROOT
BRANCH   1  10
ATOM      7  C   UNL     1      -3.421  14.319  23.755  0.00  0.00    +0.000 A 
ATOM      8  C   UNL     1      -3.715  12.991  24.052  0.00  0.00    +0.000 A 
ATOM      9  C   UNL     1      -2.903  11.964  23.560  0.00  0.00    +0.000 A 
ATOM     10  C   UNL     1      -1.793  12.207  22.731  0.00  0.00    +0.000 A 
ATOM     11  C   UNL     1      -1.515  13.554  22.450  0.00  0.00    +0.000 A 
ATOM     12  C   UNL     1      -2.314  14.602  22.954  0.00  0.00    +0.000 A 
BRANCH   7  14
ATOM     13  C   UNL     1      -5.721  15.472  23.806  0.00  0.00    +0.000 C 
ATOM     14  C   UNL     1      -4.309  15.372  24.315  0.00  0.00    +0.000 C 
ATOM     15  O   UNL     1      -3.872  16.162  25.150  0.00  0.00    +0.000 OA
ENDBRANCH   7  14
ENDBRANCH   1  10
BRANCH   4  16
ATOM     16  C   UNL     1       0.900   8.088  21.135  0.00  0.00    +0.000 C 
BRANCH  16  17
ATOM     17  C   UNL     1       1.714   7.845  19.852  0.00  0.00    +0.000 C 
ATOM     18  O   UNL     1       1.868   8.733  19.022  0.00  0.00    +0.000 OA
ATOM     19  N   UNL     1       2.181   6.560  19.771  0.00  0.00    +0.000 N 
ATOM     20  C   UNL     1       2.981   6.042  18.794  0.00  0.00    +0.000 A 
ATOM     21  N   UNL     1       3.214   4.750  18.711  0.00  0.00    +0.000 NA
ATOM     22  C   UNL     1       4.068   4.635  17.651  0.00  0.00    +0.000 A 
ATOM     23  C   UNL     1       4.641   3.493  17.076  0.00  0.00    +0.000 A 
ATOM     24  C   UNL     1       5.513   3.659  15.998  0.00  0.00    +0.000 A 
ATOM     25  C   UNL     1       5.822   4.937  15.493  0.00  0.00    +0.000 A 
ATOM     26  C   UNL     1       6.797   5.051  14.352  0.00  0.00    +0.000 C 
ATOM     27  C   UNL     1       5.248   6.096  16.073  0.00  0.00    +0.000 A 
ATOM     28  C   UNL     1       4.365   5.888  17.136  0.00  0.00    +0.000 A 
ATOM     29  O   UNL     1       3.649   6.811  17.873  0.00  0.00    +0.000 OA
ATOM     30  H   UNL     1       1.862   5.864  20.425  0.00  0.00    +0.000 HD
ENDBRANCH  16  17
ENDBRANCH   4  16
TORSDOF 4
ENDMDL
MODEL 5
REMARK VINA RESULT:      -7.6      2.137     11.796
REMARK  Name = 
REMARK  6 active torsions:
REMARK  status: ('A' for Active; 'I' for Inactive)
REMARK    1  A    between atoms: C_1  and  C_2
REMARK    2  A    between atoms: C_2  and  C_4
REMARK    3  A    between atoms: C_7  and  N_8
REMARK    4  A    between atoms: C_11  and  C_12
REMARK    5  A    between atoms: C_12  and  C_13
REMARK    6  A    between atoms: C_21  and  C_22
REMARK                            x       y       z     vdW  Elec       q    Type
REMARK                         _______ _______ _______ _____ _____    ______ ____
ROOT
ATOM      1  N   UNL     1      -1.229  11.280  22.248  0.00  0.00    +0.000 N 
ATOM      2  C   UNL     1      -0.500  11.311  20.975  0.00  0.00    +0.000 C 
ATOM      3  C   UNL     1      -0.711   9.971  20.276  0.00  0.00    +0.000 C 
ATOM      4  C   UNL     1      -0.194   8.799  21.127  0.00  0.00    +0.000 C 
ATOM      5  C   UNL     1      -0.808   8.885  22.547  0.00  0.00    +0.000 C 
ATOM      6  C   UNL     1      -0.749  10.280  23.200  0.00  0.00    +0.000 C 
ENDROOT
BRANCH   1  10
ATOM      7  C   UNL     1      -3.995  14.325  23.281  0.00  0.00    +0.000 A 
ATOM      8  C   UNL     1      -3.951  13.126  23.985  0.00  0.00    +0.000 A 
ATOM      9  C   UNL     1      -3.020  12.141  23.639  0.00  0.00    +0.000 A 
ATOM     10  C   UNL     1      -2.123  12.289  22.566  0.00  0.00    +0.000 A 
ATOM     11  C   UNL     1      -2.185  13.509  21.875  0.00  0.00    +0.000 A 
ATOM     12  C   UNL     1      -3.106  14.520  22.223  0.00  0.00    +0.000 A 
BRANCH   7  14
ATOM     13  C   UNL     1      -4.547  16.769  23.868  0.00  0.00    +0.000 C 
ATOM     14  C   UNL     1      -4.995  15.343  23.699  0.00  0.00    +0.000 C 
ATOM     15  O   UNL     1      -6.153  15.003  23.936  0.00  0.00    +0.000 OA
ENDBRANCH   7  14
ENDBRANCH   1  10
BRANCH   4  16
ATOM     16  C   UNL     1       1.348   8.722  21.155  0.00  0.00    +0.000 C 
BRANCH  16  17
ATOM     17  C   UNL     1       1.981   8.285  19.823  0.00  0.00    +0.000 C 
ATOM     18  O   UNL     1       1.976   9.025  18.847  0.00  0.00    +0.000 OA
ATOM     19  N   UNL     1       2.489   7.014  19.883  0.00  0.00    +0.000 N 
ATOM     20  C   UNL     1       3.165   6.357  18.896  0.00  0.00    +0.000 A 
ATOM     21  N   UNL     1       3.441   5.074  18.990  0.00  0.00    +0.000 NA
ATOM     22  C   UNL     1       4.140   4.803  17.848  0.00  0.00    +0.000 A 
ATOM     23  C   UNL     1       4.676   3.592  17.387  0.00  0.00    +0.000 A 
ATOM     24  C   UNL     1       5.378   3.594  16.180  0.00  0.00    +0.000 A 
ATOM     25  C   UNL     1       5.555   4.777  15.435  0.00  0.00    +0.000 A 
ATOM     26  C   UNL     1       6.352   4.718  14.160  0.00  0.00    +0.000 C 
ATOM     27  C   UNL     1       5.018   6.004  15.898  0.00  0.00    +0.000 A 
ATOM     28  C   UNL     1       4.304   5.958  17.099  0.00  0.00    +0.000 A 
ATOM     29  O   UNL     1       3.660   6.975  17.774  0.00  0.00    +0.000 OA
ATOM     30  H   UNL     1       2.298   6.430  20.681  0.00  0.00    +0.000 HD
ENDBRANCH  16  17
ENDBRANCH   4  16
TORSDOF 4
ENDMDL
MODEL 6
REMARK VINA RESULT:      -7.6      1.604      2.033
REMARK  Name = 
REMARK  6 active torsions:
REMARK  status: ('A' for Active; 'I' for Inactive)
REMARK    1  A    between atoms: C_1  and  C_2
REMARK    2  A    between atoms: C_2  and  C_4
REMARK    3  A    between atoms: C_7  and  N_8
REMARK    4  A    between atoms: C_11  and  C_12
REMARK    5  A    between atoms: C_12  and  C_13
REMARK    6  A    between atoms: C_21  and  C_22
REMARK                            x       y       z     vdW  Elec       q    Type
REMARK                         _______ _______ _______ _____ _____    ______ ____
ROOT
ATOM      1  N   UNL     1       2.016   8.009  19.394  0.00  0.00    +0.000 N 
ATOM      2  C   UNL     1       1.651   8.614  20.679  0.00  0.00    +0.000 C 
ATOM      3  C   UNL     1       0.232   9.162  20.559  0.00  0.00    +0.000 C 
ATOM      4  C   UNL     1       0.125  10.224  19.451  0.00  0.00    +0.000 C 
ATOM      5  C   UNL     1       0.705   9.652  18.134  0.00  0.00    +0.000 C 
ATOM      6  C   UNL     1       2.069   8.947  18.272  0.00  0.00    +0.000 C 
ENDROOT
BRANCH   1  10
ATOM      7  C   UNL     1       3.447   4.018  19.304  0.00  0.00    +0.000 A 
ATOM      8  C   UNL     1       2.633   4.466  20.341  0.00  0.00    +0.000 A 
ATOM      9  C   UNL     1       2.159   5.782  20.343  0.00  0.00    +0.000 A 
ATOM     10  C   UNL     1       2.496   6.711  19.343  0.00  0.00    +0.000 A 
ATOM     11  C   UNL     1       3.314   6.233  18.306  0.00  0.00    +0.000 A 
ATOM     12  C   UNL     1       3.786   4.904  18.281  0.00  0.00    +0.000 A 
BRANCH   7  14
ATOM     13  C   UNL     1       3.239   1.597  18.456  0.00  0.00    +0.000 C 
ATOM     14  C   UNL     1       3.913   2.606  19.345  0.00  0.00    +0.000 C 
ATOM     15  O   UNL     1       4.808   2.279  20.123  0.00  0.00    +0.000 OA
ENDBRANCH   7  14
ENDBRANCH   1  10
BRANCH   4  16
ATOM     16  C   UNL     1       0.778  11.565  19.850  0.00  0.00    +0.000 C 
BRANCH  16  17
ATOM     17  C   UNL     1      -0.045  12.393  20.852  0.00  0.00    +0.000 C 
ATOM     18  O   UNL     1       0.499  13.007  21.762  0.00  0.00    +0.000 OA
ATOM     19  N   UNL     1      -1.389  12.318  20.604  0.00  0.00    +0.000 N 
ATOM     20  C   UNL     1      -2.381  12.980  21.268  0.00  0.00    +0.000 A 
ATOM     21  N   UNL     1      -3.649  12.690  21.075  0.00  0.00    +0.000 NA
ATOM     22  C   UNL     1      -4.316  13.574  21.876  0.00  0.00    +0.000 A 
ATOM     23  C   UNL     1      -5.692  13.724  22.101  0.00  0.00    +0.000 A 
ATOM     24  C   UNL     1      -6.116  14.738  22.962  0.00  0.00    +0.000 A 
ATOM     25  C   UNL     1      -5.196  15.600  23.591  0.00  0.00    +0.000 A 
ATOM     26  C   UNL     1      -5.720  16.696  24.480  0.00  0.00    +0.000 C 
ATOM     27  C   UNL     1      -3.805  15.455  23.364  0.00  0.00    +0.000 A 
ATOM     28  C   UNL     1      -3.418  14.416  22.514  0.00  0.00    +0.000 A 
ATOM     29  O   UNL     1      -2.151  14.026  22.128  0.00  0.00    +0.000 OA
ATOM     30  H   UNL     1      -1.744  11.656  19.932  0.00  0.00    +0.000 HD
ENDBRANCH  16  17
ENDBRANCH   4  16
TORSDOF 4
ENDMDL
MODEL 7
REMARK VINA RESULT:      -7.5      1.708      2.331
REMARK  Name = 
REMARK  6 active torsions:
REMARK  status: ('A' for Active; 'I' for Inactive)
REMARK    1  A    between atoms: C_1  and  C_2
REMARK    2  A    between atoms: C_2  and  C_4
REMARK    3  A    between atoms: C_7  and  N_8
REMARK    4  A    between atoms: C_11  and  C_12
REMARK    5  A    between atoms: C_12  and  C_13
REMARK    6  A    between atoms: C_21  and  C_22
REMARK                            x       y       z     vdW  Elec       q    Type
REMARK                         _______ _______ _______ _____ _____    ______ ____
ROOT
ATOM      1  N   UNL     1       1.804   8.062  19.460  0.00  0.00    +0.000 N 
ATOM      2  C   UNL     1       1.434   8.730  20.713  0.00  0.00    +0.000 C 
ATOM      3  C   UNL     1       0.043   9.334  20.534  0.00  0.00    +0.000 C 
ATOM      4  C   UNL     1       0.012  10.357  19.386  0.00  0.00    +0.000 C 
ATOM      5  C   UNL     1       0.600   9.711  18.106  0.00  0.00    +0.000 C 
ATOM      6  C   UNL     1       1.927   8.953  18.307  0.00  0.00    +0.000 C 
ENDROOT
BRANCH   1  10
ATOM      7  C   UNL     1       3.130   4.034  19.420  0.00  0.00    +0.000 A 
ATOM      8  C   UNL     1       3.396   4.888  18.354  0.00  0.00    +0.000 A 
ATOM      9  C   UNL     1       2.964   6.217  18.394  0.00  0.00    +0.000 A 
ATOM     10  C   UNL     1       2.226   6.742  19.470  0.00  0.00    +0.000 A 
ATOM     11  C   UNL     1       1.976   5.862  20.535  0.00  0.00    +0.000 A 
ATOM     12  C   UNL     1       2.420   4.523  20.517  0.00  0.00    +0.000 A 
BRANCH   7  14
ATOM     13  C   UNL     1       3.334   1.843  18.085  0.00  0.00    +0.000 C 
ATOM     14  C   UNL     1       3.624   2.633  19.331  0.00  0.00    +0.000 C 
ATOM     15  O   UNL     1       4.223   2.134  20.283  0.00  0.00    +0.000 OA
ENDBRANCH   7  14
ENDBRANCH   1  10
BRANCH   4  16
ATOM     16  C   UNL     1       0.714  11.682  19.753  0.00  0.00    +0.000 C 
BRANCH  16  17
ATOM     17  C   UNL     1       0.005  12.486  20.856  0.00  0.00    +0.000 C 
ATOM     18  O   UNL     1       0.615  12.886  21.840  0.00  0.00    +0.000 OA
ATOM     19  N   UNL     1      -1.331  12.648  20.600  0.00  0.00    +0.000 N 
ATOM     20  C   UNL     1      -2.225  13.359  21.347  0.00  0.00    +0.000 A 
ATOM     21  N   UNL     1      -3.519  13.292  21.116  0.00  0.00    +0.000 NA
ATOM     22  C   UNL     1      -4.062  14.153  22.028  0.00  0.00    +0.000 A 
ATOM     23  C   UNL     1      -5.404  14.478  22.271  0.00  0.00    +0.000 A 
ATOM     24  C   UNL     1      -5.689  15.423  23.259  0.00  0.00    +0.000 A 
ATOM     25  C   UNL     1      -4.664  16.045  23.998  0.00  0.00    +0.000 A 
ATOM     26  C   UNL     1      -5.035  17.081  25.025  0.00  0.00    +0.000 C 
ATOM     27  C   UNL     1      -3.305  15.723  23.754  0.00  0.00    +0.000 A 
ATOM     28  C   UNL     1      -3.060  14.759  22.772  0.00  0.00    +0.000 A 
ATOM     29  O   UNL     1      -1.859  14.236  22.338  0.00  0.00    +0.000 OA
ATOM     30  H   UNL     1      -1.767  12.142  19.846  0.00  0.00    +0.000 HD
ENDBRANCH  16  17
ENDBRANCH   4  16
TORSDOF 4
ENDMDL
MODEL 8
REMARK VINA RESULT:      -7.5      1.026      1.460
REMARK  Name = 
REMARK  6 active torsions:
REMARK  status: ('A' for Active; 'I' for Inactive)
REMARK    1  A    between atoms: C_1  and  C_2
REMARK    2  A    between atoms: C_2  and  C_4
REMARK    3  A    between atoms: C_7  and  N_8
REMARK    4  A    between atoms: C_11  and  C_12
REMARK    5  A    between atoms: C_12  and  C_13
REMARK    6  A    between atoms: C_21  and  C_22
REMARK                            x       y       z     vdW  Elec       q    Type
REMARK                         _______ _______ _______ _____ _____    ______ ____
ROOT
ATOM      1  N   UNL     1       1.483   8.152  20.196  0.00  0.00    +0.000 N 
ATOM      2  C   UNL     1       1.213   8.569  21.576  0.00  0.00    +0.000 C 
ATOM      3  C   UNL     1      -0.208   9.122  21.635  0.00  0.00    +0.000 C 
ATOM      4  C   UNL     1      -0.388  10.328  20.696  0.00  0.00    +0.000 C 
ATOM      5  C   UNL     1       0.095   9.948  19.274  0.00  0.00    +0.000 C 
ATOM      6  C   UNL     1       1.461   9.237  19.216  0.00  0.00    +0.000 C 
ENDROOT
BRANCH   1  10
ATOM      7  C   UNL     1       2.959   4.272  19.325  0.00  0.00    +0.000 A 
ATOM      8  C   UNL     1       3.353   5.376  18.575  0.00  0.00    +0.000 A 
ATOM      9  C   UNL     1       2.867   6.649  18.888  0.00  0.00    +0.000 A 
ATOM     10  C   UNL     1       1.951   6.875  19.931  0.00  0.00    +0.000 A 
ATOM     11  C   UNL     1       1.573   5.747  20.676  0.00  0.00    +0.000 A 
ATOM     12  C   UNL     1       2.067   4.458  20.383  0.00  0.00    +0.000 A 
BRANCH   7  14
ATOM     13  C   UNL     1       4.450   2.260  19.918  0.00  0.00    +0.000 C 
ATOM     14  C   UNL     1       3.516   2.943  18.957  0.00  0.00    +0.000 C 
ATOM     15  O   UNL     1       3.238   2.444  17.868  0.00  0.00    +0.000 OA
ENDBRANCH   7  14
ENDBRANCH   1  10
BRANCH   4  16
ATOM     16  C   UNL     1       0.300  11.603  21.232  0.00  0.00    +0.000 C 
BRANCH  16  17
ATOM     17  C   UNL     1      -0.677  12.703  21.680  0.00  0.00    +0.000 C 
ATOM     18  O   UNL     1      -0.339  13.881  21.695  0.00  0.00    +0.000 OA
ATOM     19  N   UNL     1      -1.889  12.195  22.065  0.00  0.00    +0.000 N 
ATOM     20  C   UNL     1      -2.986  12.906  22.457  0.00  0.00    +0.000 A 
ATOM     21  N   UNL     1      -4.034  12.314  22.987  0.00  0.00    +0.000 NA
ATOM     22  C   UNL     1      -4.914  13.336  23.207  0.00  0.00    +0.000 A 
ATOM     23  C   UNL     1      -6.195  13.314  23.776  0.00  0.00    +0.000 A 
ATOM     24  C   UNL     1      -6.903  14.515  23.863  0.00  0.00    +0.000 A 
ATOM     25  C   UNL     1      -6.358  15.725  23.390  0.00  0.00    +0.000 A 
ATOM     26  C   UNL     1      -7.187  16.978  23.480  0.00  0.00    +0.000 C 
ATOM     27  C   UNL     1      -5.065  15.752  22.811  0.00  0.00    +0.000 A 
ATOM     28  C   UNL     1      -4.379  14.535  22.760  0.00  0.00    +0.000 A 
ATOM     29  O   UNL     1      -3.115  14.261  22.278  0.00  0.00    +0.000 OA
ATOM     30  H   UNL     1      -2.010  11.200  22.170  0.00  0.00    +0.000 HD
ENDBRANCH  16  17
ENDBRANCH   4  16
TORSDOF 4
ENDMDL
MODEL 9
REMARK VINA RESULT:      -7.4      2.195      2.847
REMARK  Name = 
REMARK  6 active torsions:
REMARK  status: ('A' for Active; 'I' for Inactive)
REMARK    1  A    between atoms: C_1  and  C_2
REMARK    2  A    between atoms: C_2  and  C_4
REMARK    3  A    between atoms: C_7  and  N_8
REMARK    4  A    between atoms: C_11  and  C_12
REMARK    5  A    between atoms: C_12  and  C_13
REMARK    6  A    between atoms: C_21  and  C_22
REMARK                            x       y       z     vdW  Elec       q    Type
REMARK                         _______ _______ _______ _____ _____    ______ ____
ROOT
ATOM      1  N   UNL     1       1.837   8.009  19.403  0.00  0.00    +0.000 N 
ATOM      2  C   UNL     1       1.471   8.646  20.673  0.00  0.00    +0.000 C 
ATOM      3  C   UNL     1       0.078   9.249  20.516  0.00  0.00    +0.000 C 
ATOM      4  C   UNL     1       0.036  10.298  19.392  0.00  0.00    +0.000 C 
ATOM      5  C   UNL     1       0.620   9.684  18.094  0.00  0.00    +0.000 C 
ATOM      6  C   UNL     1       1.951   8.927  18.271  0.00  0.00    +0.000 C 
ENDROOT
BRANCH   1  10
ATOM      7  C   UNL     1       3.177   3.988  19.262  0.00  0.00    +0.000 A 
ATOM      8  C   UNL     1       3.390   4.854  18.193  0.00  0.00    +0.000 A 
ATOM      9  C   UNL     1       2.955   6.181  18.266  0.00  0.00    +0.000 A 
ATOM     10  C   UNL     1       2.265   6.692  19.380  0.00  0.00    +0.000 A 
ATOM     11  C   UNL     1       2.067   5.799  20.446  0.00  0.00    +0.000 A 
ATOM     12  C   UNL     1       2.516   4.463  20.395  0.00  0.00    +0.000 A 
BRANCH   7  14
ATOM     13  C   UNL     1       4.529   2.026  20.237  0.00  0.00    +0.000 C 
ATOM     14  C   UNL     1       3.672   2.590  19.136  0.00  0.00    +0.000 C 
ATOM     15  O   UNL     1       3.409   1.936  18.129  0.00  0.00    +0.000 OA
ENDBRANCH   7  14
ENDBRANCH   1  10
BRANCH   4  16
ATOM     16  C   UNL     1       0.735  11.617  19.786  0.00  0.00    +0.000 C 
BRANCH  16  17
ATOM     17  C   UNL     1      -0.222  12.709  20.294  0.00  0.00    +0.000 C 
ATOM     18  O   UNL     1      -0.905  13.364  19.516  0.00  0.00    +0.000 OA
ATOM     19  N   UNL     1      -0.172  12.849  21.655  0.00  0.00    +0.000 N 
ATOM     20  C   UNL     1      -0.936  13.683  22.419  0.00  0.00    +0.000 A 
ATOM     21  N   UNL     1      -0.675  13.877  23.694  0.00  0.00    +0.000 NA
ATOM     22  C   UNL     1      -1.661  14.729  24.107  0.00  0.00    +0.000 A 
ATOM     23  C   UNL     1      -1.884  15.305  25.365  0.00  0.00    +0.000 A 
ATOM     24  C   UNL     1      -2.997  16.133  25.528  0.00  0.00    +0.000 A 
ATOM     25  C   UNL     1      -3.883  16.390  24.463  0.00  0.00    +0.000 A 
ATOM     26  C   UNL     1      -5.083  17.263  24.712  0.00  0.00    +0.000 C 
ATOM     27  C   UNL     1      -3.664  15.808  23.190  0.00  0.00    +0.000 A 
ATOM     28  C   UNL     1      -2.529  15.001  23.061  0.00  0.00    +0.000 A 
ATOM     29  O   UNL     1      -2.054  14.328  21.953  0.00  0.00    +0.000 OA
ATOM     30  H   UNL     1       0.541  12.376  22.187  0.00  0.00    +0.000 HD
ENDBRANCH  16  17
ENDBRANCH   4  16
TORSDOF 4
ENDMDL
