MODEL 1
REMARK VINA RESULT:      -9.9      0.000      0.000
REMARK  Name = 
REMARK  5 active torsions:
REMARK  status: ('A' for Active; 'I' for Inactive)
REMARK    1  A    between atoms: C_2  and  C_14
REMARK    2  A    between atoms: N_3  and  C_4
REMARK    3  A    between atoms: C_16  and  S_17
REMARK    4  A    between atoms: S_17  and  N_20
REMARK    5  A    between atoms: N_20  and  C_21
REMARK                            x       y       z     vdW  Elec       q    Type
REMARK                         _______ _______ _______ _____ _____    ______ ____
ROOT
ATOM      1  C   UNL     1       1.229   9.338  19.475  0.00  0.00    +0.000 A 
ATOM      2  C   UNL     1       0.739  10.537  18.929  0.00  0.00    +0.000 A 
ATOM      3  C   UNL     1      -0.030  11.402  19.710  0.00  0.00    +0.000 A 
ATOM      4  C   UNL     1      -0.319  11.084  21.038  0.00  0.00    +0.000 A 
ATOM      5  C   UNL     1       0.191   9.908  21.593  0.00  0.00    +0.000 A 
ATOM      6  C   UNL     1       0.960   9.044  20.812  0.00  0.00    +0.000 A 
ATOM      7  F   UNL     1       1.417   7.917  21.379  0.00  0.00    +0.000 F 
ENDROOT
BRANCH   1   9
ATOM      8  O   UNL     1       2.033   8.763  17.389  0.00  0.00    +0.000 OA
ATOM      9  C   UNL     1       1.977   8.428  18.569  0.00  0.00    +0.000 C 
ATOM     10  N   UNL     1       2.498   7.260  19.109  0.00  0.00    +0.000 N 
ATOM     11  H   UNL     1       2.262   7.052  20.069  0.00  0.00    +0.000 HD
BRANCH  10  12
ATOM     12  C   UNL     1       3.161   6.234  18.374  0.00  0.00    +0.000 A 
ATOM     13  C   UNL     1       4.275   6.550  17.584  0.00  0.00    +0.000 A 
ATOM     14  C   UNL     1       4.876   5.604  16.770  0.00  0.00    +0.000 A 
ATOM     15  C   UNL     1       4.381   4.312  16.742  0.00  0.00    +0.000 A 
ATOM     16  C   UNL     1       3.304   3.939  17.557  0.00  0.00    +0.000 A 
ATOM     17  C   UNL     1       2.848   2.612  17.506  0.00  0.00    +0.000 A 
ATOM     18  C   UNL     1       1.789   2.185  18.301  0.00  0.00    +0.000 A 
ATOM     19  C   UNL     1       1.174   3.083  19.161  0.00  0.00    +0.000 A 
ATOM     20  C   UNL     1       1.606   4.414  19.215  0.00  0.00    +0.000 A 
ATOM     21  C   UNL     1       2.678   4.888  18.409  0.00  0.00    +0.000 A 
ENDBRANCH  10  12
ENDBRANCH   1   9
BRANCH   3  22
ATOM     22  S   UNL     1      -0.651  12.891  18.970  0.00  0.00    +0.000 S 
ATOM     23  O   UNL     1      -1.410  13.580  19.990  0.00  0.00    +0.000 OA
ATOM     24  O   UNL     1       0.432  13.543  18.260  0.00  0.00    +0.000 OA
BRANCH  22  25
ATOM     25  N   UNL     1      -1.771  12.333  17.842  0.00  0.00    +0.000 NA
ATOM     26  H   UNL     1      -1.401  12.455  16.897  0.00  0.00    +0.000 HD
BRANCH  25  27
ATOM     27  C   UNL     1      -2.528  11.085  18.095  0.00  0.00    +0.000 C 
ATOM     28  C   UNL     1      -4.041  11.308  18.065  0.00  0.00    +0.000 C 
ATOM     29  C   UNL     1      -4.559  11.681  16.676  0.00  0.00    +0.000 C 
ATOM     30  C   UNL     1      -4.144  10.662  15.621  0.00  0.00    +0.000 C 
ATOM     31  C   UNL     1      -2.640  10.404  15.637  0.00  0.00    +0.000 C 
ATOM     32  C   UNL     1      -2.144  10.036  17.036  0.00  0.00    +0.000 C 
ENDBRANCH  25  27
ENDBRANCH  22  25
ENDBRANCH   3  22
TORSDOF 5
ENDMDL
MODEL 2
REMARK VINA RESULT:      -9.4      0.986      1.260
REMARK  Name = 
REMARK  5 active torsions:
REMARK  status: ('A' for Active; 'I' for Inactive)
REMARK    1  A    between atoms: C_2  and  C_14
REMARK    2  A    between atoms: N_3  and  C_4
REMARK    3  A    between atoms: C_16  and  S_17
REMARK    4  A    between atoms: S_17  and  N_20
REMARK    5  A    between atoms: N_20  and  C_21
REMARK                            x       y       z     vdW  Elec       q    Type
REMARK                         _______ _______ _______ _____ _____    ______ ____
ROOT
ATOM      1  C   UNL     1       0.660   9.655  20.386  0.00  0.00    +0.000 A 
ATOM      2  C   UNL     1      -0.143  10.659  19.818  0.00  0.00    +0.000 A 
ATOM      3  C   UNL     1      -0.961  11.447  20.629  0.00  0.00    +0.000 A 
ATOM      4  C   UNL     1      -0.990  11.245  22.011  0.00  0.00    +0.000 A 
ATOM      5  C   UNL     1      -0.170  10.267  22.582  0.00  0.00    +0.000 A 
ATOM      6  C   UNL     1       0.648   9.481  21.770  0.00  0.00    +0.000 A 
ATOM      7  F   UNL     1       1.406   8.542  22.357  0.00  0.00    +0.000 F 
ENDROOT
BRANCH   1   9
ATOM      8  O   UNL     1       1.662   9.269  18.343  0.00  0.00    +0.000 OA
ATOM      9  C   UNL     1       1.450   8.803  19.459  0.00  0.00    +0.000 C 
ATOM     10  N   UNL     1       1.832   7.545  19.901  0.00  0.00    +0.000 N 
ATOM     11  H   UNL     1       1.475   7.244  20.798  0.00  0.00    +0.000 HD
BRANCH  10  12
ATOM     12  C   UNL     1       2.511   6.565  19.119  0.00  0.00    +0.000 A 
ATOM     13  C   UNL     1       3.478   6.964  18.186  0.00  0.00    +0.000 A 
ATOM     14  C   UNL     1       4.077   6.054  17.331  0.00  0.00    +0.000 A 
ATOM     15  C   UNL     1       3.730   4.716  17.405  0.00  0.00    +0.000 A 
ATOM     16  C   UNL     1       2.810   4.265  18.361  0.00  0.00    +0.000 A 
ATOM     17  C   UNL     1       2.503   2.896  18.407  0.00  0.00    +0.000 A 
ATOM     18  C   UNL     1       1.604   2.393  19.342  0.00  0.00    +0.000 A 
ATOM     19  C   UNL     1       1.002   3.256  20.246  0.00  0.00    +0.000 A 
ATOM     20  C   UNL     1       1.286   4.626  20.205  0.00  0.00    +0.000 A 
ATOM     21  C   UNL     1       2.191   5.178  19.256  0.00  0.00    +0.000 A 
ENDBRANCH  10  12
ENDBRANCH   1   9
BRANCH   3  22
ATOM     22  S   UNL     1      -1.979  12.685  19.865  0.00  0.00    +0.000 S 
ATOM     23  O   UNL     1      -3.248  12.670  20.560  0.00  0.00    +0.000 OA
ATOM     24  O   UNL     1      -1.204  13.902  19.728  0.00  0.00    +0.000 OA
BRANCH  22  25
ATOM     25  N   UNL     1      -2.272  12.060  18.329  0.00  0.00    +0.000 NA
ATOM     26  H   UNL     1      -1.388  11.801  17.886  0.00  0.00    +0.000 HD
BRANCH  25  27
ATOM     27  C   UNL     1      -3.415  11.145  18.100  0.00  0.00    +0.000 C 
ATOM     28  C   UNL     1      -4.232  11.535  16.866  0.00  0.00    +0.000 C 
ATOM     29  C   UNL     1      -3.456  11.358  15.560  0.00  0.00    +0.000 C 
ATOM     30  C   UNL     1      -2.902   9.946  15.415  0.00  0.00    +0.000 C 
ATOM     31  C   UNL     1      -2.095   9.520  16.638  0.00  0.00    +0.000 C 
ATOM     32  C   UNL     1      -2.889   9.709  17.932  0.00  0.00    +0.000 C 
ENDBRANCH  25  27
ENDBRANCH  22  25
ENDBRANCH   3  22
TORSDOF 5
ENDMDL
MODEL 3
REMARK VINA RESULT:      -9.3      0.763      2.265
REMARK  Name = 
REMARK  5 active torsions:
REMARK  status: ('A' for Active; 'I' for Inactive)
REMARK    1  A    between atoms: C_2  and  C_14
REMARK    2  A    between atoms: N_3  and  C_4
REMARK    3  A    between atoms: C_16  and  S_17
REMARK    4  A    between atoms: S_17  and  N_20
REMARK    5  A    between atoms: N_20  and  C_21
REMARK                            x       y       z     vdW  Elec       q    Type
REMARK                         _______ _______ _______ _____ _____    ______ ____
ROOT
ATOM      1  C   UNL     1       1.366   9.154  19.294  0.00  0.00    +0.000 A 
ATOM      2  C   UNL     1       0.875  10.351  18.744  0.00  0.00    +0.000 A 
ATOM      3  C   UNL     1       0.196  11.268  19.550  0.00  0.00    +0.000 A 
ATOM      4  C   UNL     1      -0.000  11.004  20.907  0.00  0.00    +0.000 A 
ATOM      5  C   UNL     1       0.513   9.829  21.463  0.00  0.00    +0.000 A 
ATOM      6  C   UNL     1       1.191   8.914  20.658  0.00  0.00    +0.000 A 
ATOM      7  F   UNL     1       1.653   7.790  21.227  0.00  0.00    +0.000 F 
ENDROOT
BRANCH   1   9
ATOM      8  O   UNL     1       2.137   8.557  17.202  0.00  0.00    +0.000 OA
ATOM      9  C   UNL     1       2.013   8.189  18.367  0.00  0.00    +0.000 C 
ATOM     10  N   UNL     1       2.370   6.946  18.871  0.00  0.00    +0.000 N 
ATOM     11  H   UNL     1       2.088   6.735  19.818  0.00  0.00    +0.000 HD
BRANCH  10  12
ATOM     12  C   UNL     1       2.914   5.871  18.108  0.00  0.00    +0.000 A 
ATOM     13  C   UNL     1       2.136   4.733  17.853  0.00  0.00    +0.000 A 
ATOM     14  C   UNL     1       2.665   3.624  17.214  0.00  0.00    +0.000 A 
ATOM     15  C   UNL     1       3.986   3.638  16.801  0.00  0.00    +0.000 A 
ATOM     16  C   UNL     1       4.783   4.776  16.986  0.00  0.00    +0.000 A 
ATOM     17  C   UNL     1       6.112   4.747  16.535  0.00  0.00    +0.000 A 
ATOM     18  C   UNL     1       6.945   5.852  16.685  0.00  0.00    +0.000 A 
ATOM     19  C   UNL     1       6.455   7.002  17.286  0.00  0.00    +0.000 A 
ATOM     20  C   UNL     1       5.136   7.043  17.754  0.00  0.00    +0.000 A 
ATOM     21  C   UNL     1       4.259   5.929  17.629  0.00  0.00    +0.000 A 
ENDBRANCH  10  12
ENDBRANCH   1   9
BRANCH   3  22
ATOM     22  S   UNL     1      -0.431  12.753  18.807  0.00  0.00    +0.000 S 
ATOM     23  O   UNL     1      -1.193  13.441  19.826  0.00  0.00    +0.000 OA
ATOM     24  O   UNL     1       0.650  13.407  18.096  0.00  0.00    +0.000 OA
BRANCH  22  25
ATOM     25  N   UNL     1      -1.548  12.188  17.680  0.00  0.00    +0.000 NA
ATOM     26  H   UNL     1      -1.156  12.258  16.738  0.00  0.00    +0.000 HD
BRANCH  25  27
ATOM     27  C   UNL     1      -2.353  10.978  17.968  0.00  0.00    +0.000 C 
ATOM     28  C   UNL     1      -3.851  11.280  18.037  0.00  0.00    +0.000 C 
ATOM     29  C   UNL     1      -4.435  11.698  16.687  0.00  0.00    +0.000 C 
ATOM     30  C   UNL     1      -4.143  10.674  15.598  0.00  0.00    +0.000 C 
ATOM     31  C   UNL     1      -2.656  10.337  15.515  0.00  0.00    +0.000 C 
ATOM     32  C   UNL     1      -2.093   9.925  16.876  0.00  0.00    +0.000 C 
ENDBRANCH  25  27
ENDBRANCH  22  25
ENDBRANCH   3  22
TORSDOF 5
ENDMDL
MODEL 4
REMARK VINA RESULT:      -8.9      2.205      3.583
REMARK  Name = 
REMARK  5 active torsions:
REMARK  status: ('A' for Active; 'I' for Inactive)
REMARK    1  A    between atoms: C_2  and  C_14
REMARK    2  A    between atoms: N_3  and  C_4
REMARK    3  A    between atoms: C_16  and  S_17
REMARK    4  A    between atoms: S_17  and  N_20
REMARK    5  A    between atoms: N_20  and  C_21
REMARK                            x       y       z     vdW  Elec       q    Type
REMARK                         _______ _______ _______ _____ _____    ______ ____
ROOT
ATOM      1  C   UNL     1       1.159   9.352  19.488  0.00  0.00    +0.000 A 
ATOM      2  C   UNL     1       0.605  10.520  18.935  0.00  0.00    +0.000 A 
ATOM      3  C   UNL     1      -0.175  11.369  19.723  0.00  0.00    +0.000 A 
ATOM      4  C   UNL     1      -0.410  11.066  21.066  0.00  0.00    +0.000 A 
ATOM      5  C   UNL     1       0.165   9.922  21.626  0.00  0.00    +0.000 A 
ATOM      6  C   UNL     1       0.944   9.075  20.838  0.00  0.00    +0.000 A 
ATOM      7  F   UNL     1       1.463   7.978  21.410  0.00  0.00    +0.000 F 
ENDROOT
BRANCH   1   9
ATOM      8  O   UNL     1       1.955   8.791  17.395  0.00  0.00    +0.000 OA
ATOM      9  C   UNL     1       1.916   8.455  18.575  0.00  0.00    +0.000 C 
ATOM     10  N   UNL     1       2.462   7.297  19.111  0.00  0.00    +0.000 N 
ATOM     11  H   UNL     1       2.238   7.085  20.074  0.00  0.00    +0.000 HD
BRANCH  10  12
ATOM     12  C   UNL     1       3.137   6.283  18.371  0.00  0.00    +0.000 A 
ATOM     13  C   UNL     1       4.244   6.616  17.579  0.00  0.00    +0.000 A 
ATOM     14  C   UNL     1       4.855   5.681  16.760  0.00  0.00    +0.000 A 
ATOM     15  C   UNL     1       4.378   4.383  16.730  0.00  0.00    +0.000 A 
ATOM     16  C   UNL     1       3.309   3.992  17.547  0.00  0.00    +0.000 A 
ATOM     17  C   UNL     1       2.871   2.660  17.493  0.00  0.00    +0.000 A 
ATOM     18  C   UNL     1       1.820   2.216  18.289  0.00  0.00    +0.000 A 
ATOM     19  C   UNL     1       1.195   3.103  19.154  0.00  0.00    +0.000 A 
ATOM     20  C   UNL     1       1.610   4.439  19.211  0.00  0.00    +0.000 A 
ATOM     21  C   UNL     1       2.673   4.931  18.404  0.00  0.00    +0.000 A 
ENDBRANCH  10  12
ENDBRANCH   1   9
BRANCH   3  22
ATOM     22  S   UNL     1      -0.878  12.817  18.975  0.00  0.00    +0.000 S 
ATOM     23  O   UNL     1      -1.476  12.395  17.727  0.00  0.00    +0.000 OA
ATOM     24  O   UNL     1      -1.641  13.532  19.978  0.00  0.00    +0.000 OA
BRANCH  22  25
ATOM     25  N   UNL     1       0.469  13.742  18.566  0.00  0.00    +0.000 NA
ATOM     26  H   UNL     1       0.236  14.371  17.795  0.00  0.00    +0.000 HD
BRANCH  25  27
ATOM     27  C   UNL     1       1.343  14.298  19.625  0.00  0.00    +0.000 C 
ATOM     28  C   UNL     1       2.786  13.803  19.506  0.00  0.00    +0.000 C 
ATOM     29  C   UNL     1       3.490  14.322  18.252  0.00  0.00    +0.000 C 
ATOM     30  C   UNL     1       3.432  15.842  18.155  0.00  0.00    +0.000 C 
ATOM     31  C   UNL     1       2.006  16.369  18.287  0.00  0.00    +0.000 C 
ATOM     32  C   UNL     1       1.321  15.835  19.546  0.00  0.00    +0.000 C 
ENDBRANCH  25  27
ENDBRANCH  22  25
ENDBRANCH   3  22
TORSDOF 5
ENDMDL
MODEL 5
REMARK VINA RESULT:      -8.8      3.108      4.058
REMARK  Name = 
REMARK  5 active torsions:
REMARK  status: ('A' for Active; 'I' for Inactive)
REMARK    1  A    between atoms: C_2  and  C_14
REMARK    2  A    between atoms: N_3  and  C_4
REMARK    3  A    between atoms: C_16  and  S_17
REMARK    4  A    between atoms: S_17  and  N_20
REMARK    5  A    between atoms: N_20  and  C_21
REMARK                            x       y       z     vdW  Elec       q    Type
REMARK                         _______ _______ _______ _____ _____    ______ ____
ROOT
ATOM      1  C   UNL     1       0.151  10.001  18.967  0.00  0.00    +0.000 A 
ATOM      2  C   UNL     1       0.180  10.469  20.292  0.00  0.00    +0.000 A 
ATOM      3  C   UNL     1      -0.844  11.289  20.770  0.00  0.00    +0.000 A 
ATOM      4  C   UNL     1      -1.905  11.651  19.936  0.00  0.00    +0.000 A 
ATOM      5  C   UNL     1      -1.952  11.162  18.628  0.00  0.00    +0.000 A 
ATOM      6  C   UNL     1      -0.929  10.342  18.152  0.00  0.00    +0.000 A 
ATOM      7  F   UNL     1      -1.004   9.909  16.884  0.00  0.00    +0.000 F 
ENDROOT
BRANCH   1   9
ATOM      8  O   UNL     1       1.904   9.619  17.515  0.00  0.00    +0.000 OA
ATOM      9  C   UNL     1       1.308   9.194  18.500  0.00  0.00    +0.000 C 
ATOM     10  N   UNL     1       1.586   8.011  19.171  0.00  0.00    +0.000 N 
ATOM     11  H   UNL     1       0.930   7.720  19.883  0.00  0.00    +0.000 HD
BRANCH  10  12
ATOM     12  C   UNL     1       2.595   7.072  18.807  0.00  0.00    +0.000 A 
ATOM     13  C   UNL     1       3.509   7.388  17.793  0.00  0.00    +0.000 A 
ATOM     14  C   UNL     1       4.431   6.460  17.334  0.00  0.00    +0.000 A 
ATOM     15  C   UNL     1       4.466   5.197  17.897  0.00  0.00    +0.000 A 
ATOM     16  C   UNL     1       3.608   4.856  18.951  0.00  0.00    +0.000 A 
ATOM     17  C   UNL     1       3.693   3.567  19.500  0.00  0.00    +0.000 A 
ATOM     18  C   UNL     1       2.872   3.179  20.554  0.00  0.00    +0.000 A 
ATOM     19  C   UNL     1       1.956   4.081  21.075  0.00  0.00    +0.000 A 
ATOM     20  C   UNL     1       1.848   5.367  20.531  0.00  0.00    +0.000 A 
ATOM     21  C   UNL     1       2.662   5.794  19.446  0.00  0.00    +0.000 A 
ENDBRANCH  10  12
ENDBRANCH   1   9
BRANCH   3  22
ATOM     22  S   UNL     1      -0.751  11.880  22.441  0.00  0.00    +0.000 S 
ATOM     23  O   UNL     1      -0.225  10.795  23.240  0.00  0.00    +0.000 OA
ATOM     24  O   UNL     1      -0.129  13.189  22.436  0.00  0.00    +0.000 OA
BRANCH  22  25
ATOM     25  N   UNL     1      -2.366  12.057  22.886  0.00  0.00    +0.000 NA
ATOM     26  H   UNL     1      -2.621  11.332  23.561  0.00  0.00    +0.000 HD
BRANCH  25  27
ATOM     27  C   UNL     1      -2.932  13.405  23.125  0.00  0.00    +0.000 C 
ATOM     28  C   UNL     1      -3.974  13.791  22.072  0.00  0.00    +0.000 C 
ATOM     29  C   UNL     1      -5.237  12.933  22.144  0.00  0.00    +0.000 C 
ATOM     30  C   UNL     1      -5.852  12.941  23.538  0.00  0.00    +0.000 C 
ATOM     31  C   UNL     1      -4.833  12.575  24.614  0.00  0.00    +0.000 C 
ATOM     32  C   UNL     1      -3.578  13.444  24.521  0.00  0.00    +0.000 C 
ENDBRANCH  25  27
ENDBRANCH  22  25
ENDBRANCH   3  22
TORSDOF 5
ENDMDL
MODEL 6
REMARK VINA RESULT:      -8.7      2.959      3.823
REMARK  Name = 
REMARK  5 active torsions:
REMARK  status: ('A' for Active; 'I' for Inactive)
REMARK    1  A    between atoms: C_2  and  C_14
REMARK    2  A    between atoms: N_3  and  C_4
REMARK    3  A    between atoms: C_16  and  S_17
REMARK    4  A    between atoms: S_17  and  N_20
REMARK    5  A    between atoms: N_20  and  C_21
REMARK                            x       y       z     vdW  Elec       q    Type
REMARK                         _______ _______ _______ _____ _____    ______ ____
ROOT
ATOM      1  C   UNL     1       0.545   9.786  20.880  0.00  0.00    +0.000 A 
ATOM      2  C   UNL     1       0.671  11.180  20.749  0.00  0.00    +0.000 A 
ATOM      3  C   UNL     1       0.030  12.031  21.651  0.00  0.00    +0.000 A 
ATOM      4  C   UNL     1      -0.742  11.506  22.689  0.00  0.00    +0.000 A 
ATOM      5  C   UNL     1      -0.845  10.121  22.840  0.00  0.00    +0.000 A 
ATOM      6  C   UNL     1      -0.203   9.271  21.939  0.00  0.00    +0.000 A 
ATOM      7  F   UNL     1      -0.342   7.947  22.109  0.00  0.00    +0.000 F 
ENDROOT
BRANCH   1   9
ATOM      8  O   UNL     1       1.028   9.289  18.678  0.00  0.00    +0.000 OA
ATOM      9  C   UNL     1       1.191   8.939  19.844  0.00  0.00    +0.000 C 
ATOM     10  N   UNL     1       1.872   7.805  20.265  0.00  0.00    +0.000 N 
ATOM     11  H   UNL     1       1.813   7.571  21.247  0.00  0.00    +0.000 HD
BRANCH  10  12
ATOM     12  C   UNL     1       2.471   6.835  19.409  0.00  0.00    +0.000 A 
ATOM     13  C   UNL     1       3.340   7.246  18.390  0.00  0.00    +0.000 A 
ATOM     14  C   UNL     1       3.852   6.346  17.470  0.00  0.00    +0.000 A 
ATOM     15  C   UNL     1       3.516   5.007  17.563  0.00  0.00    +0.000 A 
ATOM     16  C   UNL     1       2.694   4.544  18.599  0.00  0.00    +0.000 A 
ATOM     17  C   UNL     1       2.394   3.174  18.661  0.00  0.00    +0.000 A 
ATOM     18  C   UNL     1       1.591   2.659  19.674  0.00  0.00    +0.000 A 
ATOM     19  C   UNL     1       1.081   3.511  20.642  0.00  0.00    +0.000 A 
ATOM     20  C   UNL     1       1.359   4.883  20.589  0.00  0.00    +0.000 A 
ATOM     21  C   UNL     1       2.166   5.446  19.561  0.00  0.00    +0.000 A 
ENDBRANCH  10  12
ENDBRANCH   1   9
BRANCH   3  22
ATOM     22  S   UNL     1       0.195  13.785  21.430  0.00  0.00    +0.000 S 
ATOM     23  O   UNL     1      -0.986  14.230  20.722  0.00  0.00    +0.000 OA
ATOM     24  O   UNL     1       0.590  14.376  22.693  0.00  0.00    +0.000 OA
BRANCH  22  25
ATOM     25  N   UNL     1       1.478  13.926  20.348  0.00  0.00    +0.000 NA
ATOM     26  H   UNL     1       2.148  13.170  20.504  0.00  0.00    +0.000 HD
BRANCH  25  27
ATOM     27  C   UNL     1       1.227  14.301  18.937  0.00  0.00    +0.000 C 
ATOM     28  C   UNL     1       1.352  15.809  18.706  0.00  0.00    +0.000 C 
ATOM     29  C   UNL     1       2.780  16.322  18.889  0.00  0.00    +0.000 C 
ATOM     30  C   UNL     1       3.774  15.561  18.021  0.00  0.00    +0.000 C 
ATOM     31  C   UNL     1       3.664  14.051  18.215  0.00  0.00    +0.000 C 
ATOM     32  C   UNL     1       2.227  13.561  18.030  0.00  0.00    +0.000 C 
ENDBRANCH  25  27
ENDBRANCH  22  25
ENDBRANCH   3  22
TORSDOF 5
ENDMDL
MODEL 7
REMARK VINA RESULT:      -8.7      1.335      1.511
REMARK  Name = 
REMARK  5 active torsions:
REMARK  status: ('A' for Active; 'I' for Inactive)
REMARK    1  A    between atoms: C_2  and  C_14
REMARK    2  A    between atoms: N_3  and  C_4
REMARK    3  A    between atoms: C_16  and  S_17
REMARK    4  A    between atoms: S_17  and  N_20
REMARK    5  A    between atoms: N_20  and  C_21
REMARK                            x       y       z     vdW  Elec       q    Type
REMARK                         _______ _______ _______ _____ _____    ______ ____
ROOT
ATOM      1  C   UNL     1       0.642   9.789  20.965  0.00  0.00    +0.000 A 
ATOM      2  C   UNL     1       0.532  10.778  19.972  0.00  0.00    +0.000 A 
ATOM      3  C   UNL     1      -0.331  11.861  20.151  0.00  0.00    +0.000 A 
ATOM      4  C   UNL     1      -1.092  11.970  21.317  0.00  0.00    +0.000 A 
ATOM      5  C   UNL     1      -0.962  11.005  22.319  0.00  0.00    +0.000 A 
ATOM      6  C   UNL     1      -0.099   9.924  22.139  0.00  0.00    +0.000 A 
ATOM      7  F   UNL     1      -0.017   9.010  23.118  0.00  0.00    +0.000 F 
ENDROOT
BRANCH   1   9
ATOM      8  O   UNL     1       2.171   8.190  21.626  0.00  0.00    +0.000 OA
ATOM      9  C   UNL     1       1.522   8.626  20.678  0.00  0.00    +0.000 C 
ATOM     10  N   UNL     1       1.584   8.167  19.370  0.00  0.00    +0.000 N 
ATOM     11  H   UNL     1       1.095   8.706  18.669  0.00  0.00    +0.000 HD
BRANCH  10  12
ATOM     12  C   UNL     1       2.438   7.127  18.899  0.00  0.00    +0.000 A 
ATOM     13  C   UNL     1       3.436   7.416  17.958  0.00  0.00    +0.000 A 
ATOM     14  C   UNL     1       4.210   6.416  17.394  0.00  0.00    +0.000 A 
ATOM     15  C   UNL     1       4.011   5.100  17.775  0.00  0.00    +0.000 A 
ATOM     16  C   UNL     1       3.062   4.772  18.753  0.00  0.00    +0.000 A 
ATOM     17  C   UNL     1       2.908   3.426  19.117  0.00  0.00    +0.000 A 
ATOM     18  C   UNL     1       1.988   3.045  20.090  0.00  0.00    +0.000 A 
ATOM     19  C   UNL     1       1.213   4.012  20.712  0.00  0.00    +0.000 A 
ATOM     20  C   UNL     1       1.343   5.358  20.351  0.00  0.00    +0.000 A 
ATOM     21  C   UNL     1       2.265   5.783  19.354  0.00  0.00    +0.000 A 
ENDBRANCH  10  12
ENDBRANCH   1   9
BRANCH   3  22
ATOM     22  S   UNL     1      -0.458  13.071  18.858  0.00  0.00    +0.000 S 
ATOM     23  O   UNL     1      -1.178  14.197  19.410  0.00  0.00    +0.000 OA
ATOM     24  O   UNL     1       0.844  13.230  18.243  0.00  0.00    +0.000 OA
BRANCH  22  25
ATOM     25  N   UNL     1      -1.492  12.347  17.743  0.00  0.00    +0.000 NA
ATOM     26  H   UNL     1      -1.065  12.362  16.814  0.00  0.00    +0.000 HD
BRANCH  25  27
ATOM     27  C   UNL     1      -2.240  11.120  18.103  0.00  0.00    +0.000 C 
ATOM     28  C   UNL     1      -3.748  11.364  18.191  0.00  0.00    +0.000 C 
ATOM     29  C   UNL     1      -4.376  11.695  16.838  0.00  0.00    +0.000 C 
ATOM     30  C   UNL     1      -4.063  10.634  15.790  0.00  0.00    +0.000 C 
ATOM     31  C   UNL     1      -2.566  10.355  15.689  0.00  0.00    +0.000 C 
ATOM     32  C   UNL     1      -1.959  10.029  17.055  0.00  0.00    +0.000 C 
ENDBRANCH  25  27
ENDBRANCH  22  25
ENDBRANCH   3  22
TORSDOF 5
ENDMDL
MODEL 8
REMARK VINA RESULT:      -8.7      2.022      2.792
REMARK  Name = 
REMARK  5 active torsions:
REMARK  status: ('A' for Active; 'I' for Inactive)
REMARK    1  A    between atoms: C_2  and  C_14
REMARK    2  A    between atoms: N_3  and  C_4
REMARK    3  A    between atoms: C_16  and  S_17
REMARK    4  A    between atoms: S_17  and  N_20
REMARK    5  A    between atoms: N_20  and  C_21
REMARK                            x       y       z     vdW  Elec       q    Type
REMARK                         _______ _______ _______ _____ _____    ______ ____
ROOT
ATOM      1  C   UNL     1       1.078   9.258  19.584  0.00  0.00    +0.000 A 
ATOM      2  C   UNL     1       0.419  10.386  19.064  0.00  0.00    +0.000 A 
ATOM      3  C   UNL     1      -0.394  11.166  19.888  0.00  0.00    +0.000 A 
ATOM      4  C   UNL     1      -0.560  10.833  21.235  0.00  0.00    +0.000 A 
ATOM      5  C   UNL     1       0.118   9.730  21.761  0.00  0.00    +0.000 A 
ATOM      6  C   UNL     1       0.930   8.952  20.937  0.00  0.00    +0.000 A 
ATOM      7  F   UNL     1       1.549   7.891  21.478  0.00  0.00    +0.000 F 
ENDROOT
BRANCH   1   9
ATOM      8  O   UNL     1       1.884   8.808  17.468  0.00  0.00    +0.000 OA
ATOM      9  C   UNL     1       1.868   8.429  18.636  0.00  0.00    +0.000 C 
ATOM     10  N   UNL     1       2.470   7.279  19.127  0.00  0.00    +0.000 N 
ATOM     11  H   UNL     1       2.263   7.023  20.083  0.00  0.00    +0.000 HD
BRANCH  10  12
ATOM     12  C   UNL     1       3.185   6.323  18.347  0.00  0.00    +0.000 A 
ATOM     13  C   UNL     1       4.279   6.732  17.573  0.00  0.00    +0.000 A 
ATOM     14  C   UNL     1       4.927   5.857  16.718  0.00  0.00    +0.000 A 
ATOM     15  C   UNL     1       4.501   4.543  16.633  0.00  0.00    +0.000 A 
ATOM     16  C   UNL     1       3.448   4.077  17.430  0.00  0.00    +0.000 A 
ATOM     17  C   UNL     1       3.063   2.732  17.320  0.00  0.00    +0.000 A 
ATOM     18  C   UNL     1       2.029   2.215  18.095  0.00  0.00    +0.000 A 
ATOM     19  C   UNL     1       1.369   3.040  18.994  0.00  0.00    +0.000 A 
ATOM     20  C   UNL     1       1.731   4.388  19.107  0.00  0.00    +0.000 A 
ATOM     21  C   UNL     1       2.775   4.954  18.323  0.00  0.00    +0.000 A 
ENDBRANCH  10  12
ENDBRANCH   1   9
BRANCH   3  22
ATOM     22  S   UNL     1      -1.229  12.565  19.182  0.00  0.00    +0.000 S 
ATOM     23  O   UNL     1      -0.456  13.735  19.537  0.00  0.00    +0.000 OA
ATOM     24  O   UNL     1      -1.556  12.262  17.804  0.00  0.00    +0.000 OA
BRANCH  22  25
ATOM     25  N   UNL     1      -2.660  12.656  20.065  0.00  0.00    +0.000 NA
ATOM     26  H   UNL     1      -2.849  11.756  20.513  0.00  0.00    +0.000 HD
BRANCH  25  27
ATOM     27  C   UNL     1      -2.971  13.864  20.863  0.00  0.00    +0.000 C 
ATOM     28  C   UNL     1      -4.462  14.209  20.838  0.00  0.00    +0.000 C 
ATOM     29  C   UNL     1      -5.324  13.167  21.550  0.00  0.00    +0.000 C 
ATOM     30  C   UNL     1      -4.853  12.917  22.977  0.00  0.00    +0.000 C 
ATOM     31  C   UNL     1      -3.364  12.587  23.038  0.00  0.00    +0.000 C 
ATOM     32  C   UNL     1      -2.522  13.641  22.318  0.00  0.00    +0.000 C 
ENDBRANCH  25  27
ENDBRANCH  22  25
ENDBRANCH   3  22
TORSDOF 5
ENDMDL
MODEL 9
REMARK VINA RESULT:      -8.6      2.845      4.059
REMARK  Name = 
REMARK  5 active torsions:
REMARK  status: ('A' for Active; 'I' for Inactive)
REMARK    1  A    between atoms: C_2  and  C_14
REMARK    2  A    between atoms: N_3  and  C_4
REMARK    3  A    between atoms: C_16  and  S_17
REMARK    4  A    between atoms: S_17  and  N_20
REMARK    5  A    between atoms: N_20  and  C_21
REMARK                            x       y       z     vdW  Elec       q    Type
REMARK                         _______ _______ _______ _____ _____    ______ ____
ROOT
ATOM      1  C   UNL     1       0.811   9.470  20.403  0.00  0.00    +0.000 A 
ATOM      2  C   UNL     1       0.978  10.861  20.284  0.00  0.00    +0.000 A 
ATOM      3  C   UNL     1       0.345  11.724  21.181  0.00  0.00    +0.000 A 
ATOM      4  C   UNL     1      -0.458  11.213  22.204  0.00  0.00    +0.000 A 
ATOM      5  C   UNL     1      -0.601   9.830  22.343  0.00  0.00    +0.000 A 
ATOM      6  C   UNL     1       0.032   8.969  21.446  0.00  0.00    +0.000 A 
ATOM      7  F   UNL     1      -0.147   7.649  21.604  0.00  0.00    +0.000 F 
ENDROOT
BRANCH   1   9
ATOM      8  O   UNL     1       1.268   8.944  18.202  0.00  0.00    +0.000 OA
ATOM      9  C   UNL     1       1.451   8.613  19.371  0.00  0.00    +0.000 C 
ATOM     10  N   UNL     1       2.146   7.492  19.800  0.00  0.00    +0.000 N 
ATOM     11  H   UNL     1       2.103   7.272  20.786  0.00  0.00    +0.000 HD
BRANCH  10  12
ATOM     12  C   UNL     1       2.742   6.513  18.951  0.00  0.00    +0.000 A 
ATOM     13  C   UNL     1       3.740   6.892  18.044  0.00  0.00    +0.000 A 
ATOM     14  C   UNL     1       4.262   5.995  17.126  0.00  0.00    +0.000 A 
ATOM     15  C   UNL     1       3.805   4.689  17.111  0.00  0.00    +0.000 A 
ATOM     16  C   UNL     1       2.848   4.253  18.037  0.00  0.00    +0.000 A 
ATOM     17  C   UNL     1       2.427   2.915  17.992  0.00  0.00    +0.000 A 
ATOM     18  C   UNL     1       1.486   2.427  18.894  0.00  0.00    +0.000 A 
ATOM     19  C   UNL     1       0.957   3.274  19.856  0.00  0.00    +0.000 A 
ATOM     20  C   UNL     1       1.356   4.616  19.907  0.00  0.00    +0.000 A 
ATOM     21  C   UNL     1       2.306   5.152  18.995  0.00  0.00    +0.000 A 
ENDBRANCH  10  12
ENDBRANCH   1   9
BRANCH   3  22
ATOM     22  S   UNL     1       0.562  13.474  20.976  0.00  0.00    +0.000 S 
ATOM     23  O   UNL     1      -0.452  13.914  20.043  0.00  0.00    +0.000 OA
ATOM     24  O   UNL     1       0.703  14.080  22.285  0.00  0.00    +0.000 OA
BRANCH  22  25
ATOM     25  N   UNL     1       2.035  13.596  20.168  0.00  0.00    +0.000 NA
ATOM     26  H   UNL     1       1.930  13.266  19.206  0.00  0.00    +0.000 HD
BRANCH  25  27
ATOM     27  C   UNL     1       2.899  14.783  20.365  0.00  0.00    +0.000 C 
ATOM     28  C   UNL     1       4.271  14.617  19.707  0.00  0.00    +0.000 C 
ATOM     29  C   UNL     1       4.195  14.568  18.181  0.00  0.00    +0.000 C 
ATOM     30  C   UNL     1       3.466  15.777  17.608  0.00  0.00    +0.000 C 
ATOM     31  C   UNL     1       2.099  15.980  18.257  0.00  0.00    +0.000 C 
ATOM     32  C   UNL     1       2.199  16.022  19.782  0.00  0.00    +0.000 C 
ENDBRANCH  25  27
ENDBRANCH  22  25
ENDBRANCH   3  22
TORSDOF 5
ENDMDL
