MODEL 1
REMARK VINA RESULT:      -7.8      0.000      0.000
REMARK  Name = 
REMARK  9 active torsions:
REMARK  status: ('A' for Active; 'I' for Inactive)
REMARK    1  A    between atoms: C_1  and  C_2
REMARK    2  A    between atoms: C_2  and  C_3
REMARK    3  A    between atoms: C_3  and  O_4
REMARK    4  A    between atoms: O_4  and  C_5
REMARK    5  A    between atoms: C_8  and  C_9
REMARK    6  A    between atoms: C_11  and  O_12
REMARK    7  A    between atoms: O_12  and  C_13
REMARK    8  A    between atoms: C_13  and  C_14
REMARK    9  A    between atoms: C_14  and  N_15
REMARK                            x       y       z     vdW  Elec       q    Type
REMARK                         _______ _______ _______ _____ _____    ______ ____
ROOT
ATOM      1  C   UNL     1       3.342   7.171  17.944  0.00  0.00    +0.000 A 
ATOM      2  C   UNL     1       3.013   6.826  19.242  0.00  0.00    +0.000 A 
ATOM      3  C   UNL     1       2.014   7.504  19.924  0.00  0.00    +0.000 A 
ATOM      4  C   UNL     1       1.668   8.772  19.469  0.00  0.00    +0.000 A 
ATOM      5  C   UNL     1       0.979   9.689  20.289  0.00  0.00    +0.000 A 
ATOM      6  C   UNL     1       0.738  10.983  19.845  0.00  0.00    +0.000 A 
ATOM      7  C   UNL     1       1.102  11.335  18.551  0.00  0.00    +0.000 A 
ATOM      8  C   UNL     1       1.757  10.406  17.727  0.00  0.00    +0.000 A 
ATOM      9  C   UNL     1       2.107   9.135  18.175  0.00  0.00    +0.000 A 
ATOM     10  N   UNL     1       2.863   8.314  17.396  0.00  0.00    +0.000 NA
ENDROOT
BRANCH   1  14
ATOM     11  C   UNL     1       5.659   4.525  15.412  0.00  0.00    +0.000 A 
ATOM     12  C   UNL     1       5.531   5.871  15.095  0.00  0.00    +0.000 A 
ATOM     13  C   UNL     1       4.854   6.731  15.970  0.00  0.00    +0.000 A 
ATOM     14  C   UNL     1       4.241   6.277  17.163  0.00  0.00    +0.000 A 
ATOM     15  C   UNL     1       4.467   4.944  17.509  0.00  0.00    +0.000 A 
ATOM     16  C   UNL     1       5.150   4.076  16.634  0.00  0.00    +0.000 A 
BRANCH  11  17
ATOM     17  O   UNL     1       6.201   3.569  14.593  0.00  0.00    +0.000 OA
BRANCH  17  18
ATOM     18  C   UNL     1       6.448   3.948  13.238  0.00  0.00    +0.000 C 
BRANCH  18  20
ATOM     19  C   UNL     1       5.783   2.154  11.551  0.00  0.00    +0.000 C 
ATOM     20  C   UNL     1       5.355   3.391  12.323  0.00  0.00    +0.000 C 
ENDBRANCH  18  20
ENDBRANCH  17  18
ENDBRANCH  11  17
ENDBRANCH   1  14
BRANCH   3  21
ATOM     21  O   UNL     1       1.345   6.944  20.997  0.00  0.00    +0.000 OA
BRANCH  21  22
ATOM     22  C   UNL     1       1.062   5.550  20.795  0.00  0.00    +0.000 C 
BRANCH  22  23
ATOM     23  C   UNL     1       2.139   4.573  21.275  0.00  0.00    +0.000 C 
BRANCH  23  24
ATOM     24  N   UNL     1       2.426   3.563  20.223  0.00  0.00    +0.000 NA
ATOM     25  C   UNL     1       3.217   2.444  20.726  0.00  0.00    +0.000 C 
ATOM     26  C   UNL     1       4.255   2.031  19.678  0.00  0.00    +0.000 C 
ATOM     27  C   UNL     1       3.722   1.221  18.497  0.00  0.00    +0.000 C 
ATOM     28  C   UNL     1       2.588   1.876  17.721  0.00  0.00    +0.000 C 
ATOM     29  C   UNL     1       1.311   1.951  18.544  0.00  0.00    +0.000 C 
ATOM     30  C   UNL     1       1.228   3.173  19.461  0.00  0.00    +0.000 C 
ENDBRANCH  23  24
ENDBRANCH  22  23
ENDBRANCH  21  22
ENDBRANCH   3  21
TORSDOF 8
ENDMDL
MODEL 2
REMARK VINA RESULT:      -7.7      0.848      1.437
REMARK  Name = 
REMARK  9 active torsions:
REMARK  status: ('A' for Active; 'I' for Inactive)
REMARK    1  A    between atoms: C_1  and  C_2
REMARK    2  A    between atoms: C_2  and  C_3
REMARK    3  A    between atoms: C_3  and  O_4
REMARK    4  A    between atoms: O_4  and  C_5
REMARK    5  A    between atoms: C_8  and  C_9
REMARK    6  A    between atoms: C_11  and  O_12
REMARK    7  A    between atoms: O_12  and  C_13
REMARK    8  A    between atoms: C_13  and  C_14
REMARK    9  A    between atoms: C_14  and  N_15
REMARK                            x       y       z     vdW  Elec       q    Type
REMARK                         _______ _______ _______ _____ _____    ______ ____
ROOT
ATOM      1  C   UNL     1       3.489   6.818  18.123  0.00  0.00    +0.000 A 
ATOM      2  C   UNL     1       3.237   6.189  19.329  0.00  0.00    +0.000 A 
ATOM      3  C   UNL     1       2.180   6.590  20.131  0.00  0.00    +0.000 A 
ATOM      4  C   UNL     1       1.668   7.867  19.934  0.00  0.00    +0.000 A 
ATOM      5  C   UNL     1       0.892   8.513  20.917  0.00  0.00    +0.000 A 
ATOM      6  C   UNL     1       0.481   9.827  20.736  0.00  0.00    +0.000 A 
ATOM      7  C   UNL     1       0.767  10.467  19.536  0.00  0.00    +0.000 A 
ATOM      8  C   UNL     1       1.510   9.807  18.545  0.00  0.00    +0.000 A 
ATOM      9  C   UNL     1       2.026   8.528  18.736  0.00  0.00    +0.000 A 
ATOM     10  N   UNL     1       2.858   7.975  17.811  0.00  0.00    +0.000 NA
ENDROOT
BRANCH   1  14
ATOM     11  C   UNL     1       6.043   4.987  15.140  0.00  0.00    +0.000 A 
ATOM     12  C   UNL     1       5.638   6.308  15.006  0.00  0.00    +0.000 A 
ATOM     13  C   UNL     1       4.886   6.912  16.022  0.00  0.00    +0.000 A 
ATOM     14  C   UNL     1       4.471   6.214  17.182  0.00  0.00    +0.000 A 
ATOM     15  C   UNL     1       4.972   4.920  17.341  0.00  0.00    +0.000 A 
ATOM     16  C   UNL     1       5.731   4.309  16.323  0.00  0.00    +0.000 A 
BRANCH  11  17
ATOM     17  O   UNL     1       6.685   4.255  14.175  0.00  0.00    +0.000 OA
BRANCH  17  18
ATOM     18  C   UNL     1       5.932   3.211  13.553  0.00  0.00    +0.000 C 
BRANCH  18  20
ATOM     19  C   UNL     1       4.444   3.197  11.482  0.00  0.00    +0.000 C 
ATOM     20  C   UNL     1       5.830   3.456  12.046  0.00  0.00    +0.000 C 
ENDBRANCH  18  20
ENDBRANCH  17  18
ENDBRANCH  11  17
ENDBRANCH   1  14
BRANCH   3  21
ATOM     21  O   UNL     1       1.612   5.751  21.074  0.00  0.00    +0.000 OA
BRANCH  21  22
ATOM     22  C   UNL     1       0.772   4.750  20.477  0.00  0.00    +0.000 C 
BRANCH  22  23
ATOM     23  C   UNL     1       1.002   3.313  20.955  0.00  0.00    +0.000 C 
BRANCH  23  24
ATOM     24  N   UNL     1       2.047   2.655  20.127  0.00  0.00    +0.000 NA
ATOM     25  C   UNL     1       2.054   3.143  18.750  0.00  0.00    +0.000 C 
ATOM     26  C   UNL     1       2.298   1.975  17.789  0.00  0.00    +0.000 C 
ATOM     27  C   UNL     1       3.739   1.475  17.700  0.00  0.00    +0.000 C 
ATOM     28  C   UNL     1       4.363   1.058  19.025  0.00  0.00    +0.000 C 
ATOM     29  C   UNL     1       4.588   2.249  19.942  0.00  0.00    +0.000 C 
ATOM     30  C   UNL     1       3.366   2.636  20.778  0.00  0.00    +0.000 C 
ENDBRANCH  23  24
ENDBRANCH  22  23
ENDBRANCH  21  22
ENDBRANCH   3  21
TORSDOF 8
ENDMDL
MODEL 3
REMARK VINA RESULT:      -7.6      2.490      7.471
REMARK  Name = 
REMARK  9 active torsions:
REMARK  status: ('A' for Active; 'I' for Inactive)
REMARK    1  A    between atoms: C_1  and  C_2
REMARK    2  A    between atoms: C_2  and  C_3
REMARK    3  A    between atoms: C_3  and  O_4
REMARK    4  A    between atoms: O_4  and  C_5
REMARK    5  A    between atoms: C_8  and  C_9
REMARK    6  A    between atoms: C_11  and  O_12
REMARK    7  A    between atoms: O_12  and  C_13
REMARK    8  A    between atoms: C_13  and  C_14
REMARK    9  A    between atoms: C_14  and  N_15
REMARK                            x       y       z     vdW  Elec       q    Type
REMARK                         _______ _______ _______ _____ _____    ______ ____
ROOT
ATOM      1  C   UNL     1       2.128   6.817  19.279  0.00  0.00    +0.000 A 
ATOM      2  C   UNL     1       2.745   6.220  18.195  0.00  0.00    +0.000 A 
ATOM      3  C   UNL     1       2.828   4.840  18.098  0.00  0.00    +0.000 A 
ATOM      4  C   UNL     1       2.688   4.100  19.266  0.00  0.00    +0.000 A 
ATOM      5  C   UNL     1       3.139   2.768  19.357  0.00  0.00    +0.000 A 
ATOM      6  C   UNL     1       3.080   2.088  20.567  0.00  0.00    +0.000 A 
ATOM      7  C   UNL     1       2.490   2.705  21.663  0.00  0.00    +0.000 A 
ATOM      8  C   UNL     1       2.011   4.020  21.558  0.00  0.00    +0.000 A 
ATOM      9  C   UNL     1       2.148   4.767  20.391  0.00  0.00    +0.000 A 
ATOM     10  N   UNL     1       1.799   6.083  20.369  0.00  0.00    +0.000 NA
ENDROOT
BRANCH   1  14
ATOM     11  C   UNL     1       0.920  10.974  19.083  0.00  0.00    +0.000 A 
ATOM     12  C   UNL     1       0.716  10.235  20.240  0.00  0.00    +0.000 A 
ATOM     13  C   UNL     1       1.192   8.919  20.319  0.00  0.00    +0.000 A 
ATOM     14  C   UNL     1       1.843   8.277  19.238  0.00  0.00    +0.000 A 
ATOM     15  C   UNL     1       2.124   9.070  18.123  0.00  0.00    +0.000 A 
ATOM     16  C   UNL     1       1.650  10.394  18.040  0.00  0.00    +0.000 A 
BRANCH  11  17
ATOM     17  O   UNL     1       0.412  12.224  18.844  0.00  0.00    +0.000 OA
BRANCH  17  18
ATOM     18  C   UNL     1      -0.995  12.392  19.028  0.00  0.00    +0.000 C 
BRANCH  18  20
ATOM     19  C   UNL     1      -3.181  11.375  18.197  0.00  0.00    +0.000 C 
ATOM     20  C   UNL     1      -1.760  11.785  17.850  0.00  0.00    +0.000 C 
ENDBRANCH  18  20
ENDBRANCH  17  18
ENDBRANCH  11  17
ENDBRANCH   1  14
BRANCH   3  21
ATOM     21  O   UNL     1       3.005   4.197  16.885  0.00  0.00    +0.000 OA
BRANCH  21  22
ATOM     22  C   UNL     1       4.372   3.816  16.664  0.00  0.00    +0.000 C 
BRANCH  22  23
ATOM     23  C   UNL     1       5.259   4.868  15.992  0.00  0.00    +0.000 C 
BRANCH  23  24
ATOM     24  N   UNL     1       6.208   5.450  16.977  0.00  0.00    +0.000 NA
ATOM     25  C   UNL     1       6.111   6.904  17.052  0.00  0.00    +0.000 C 
ATOM     26  C   UNL     1       7.511   7.511  17.192  0.00  0.00    +0.000 C 
ATOM     27  C   UNL     1       8.146   7.406  18.577  0.00  0.00    +0.000 C 
ATOM     28  C   UNL     1       8.249   5.995  19.139  0.00  0.00    +0.000 C 
ATOM     29  C   UNL     1       6.880   5.418  19.468  0.00  0.00    +0.000 C 
ATOM     30  C   UNL     1       6.173   4.765  18.279  0.00  0.00    +0.000 C 
ENDBRANCH  23  24
ENDBRANCH  22  23
ENDBRANCH  21  22
ENDBRANCH   3  21
TORSDOF 8
ENDMDL
MODEL 4
REMARK VINA RESULT:      -7.5      2.378      7.175
REMARK  Name = 
REMARK  9 active torsions:
REMARK  status: ('A' for Active; 'I' for Inactive)
REMARK    1  A    between atoms: C_1  and  C_2
REMARK    2  A    between atoms: C_2  and  C_3
REMARK    3  A    between atoms: C_3  and  O_4
REMARK    4  A    between atoms: O_4  and  C_5
REMARK    5  A    between atoms: C_8  and  C_9
REMARK    6  A    between atoms: C_11  and  O_12
REMARK    7  A    between atoms: O_12  and  C_13
REMARK    8  A    between atoms: C_13  and  C_14
REMARK    9  A    between atoms: C_14  and  N_15
REMARK                            x       y       z     vdW  Elec       q    Type
REMARK                         _______ _______ _______ _____ _____    ______ ____
ROOT
ATOM      1  C   UNL     1       2.764   6.351  18.972  0.00  0.00    +0.000 A 
ATOM      2  C   UNL     1       3.870   6.054  19.748  0.00  0.00    +0.000 A 
ATOM      3  C   UNL     1       4.559   4.864  19.573  0.00  0.00    +0.000 A 
ATOM      4  C   UNL     1       3.894   3.818  18.946  0.00  0.00    +0.000 A 
ATOM      5  C   UNL     1       4.332   2.483  19.068  0.00  0.00    +0.000 A 
ATOM      6  C   UNL     1       3.588   1.448  18.517  0.00  0.00    +0.000 A 
ATOM      7  C   UNL     1       2.457   1.749  17.767  0.00  0.00    +0.000 A 
ATOM      8  C   UNL     1       2.045   3.082  17.619  0.00  0.00    +0.000 A 
ATOM      9  C   UNL     1       2.707   4.136  18.244  0.00  0.00    +0.000 A 
ATOM     10  N   UNL     1       2.198   5.397  18.193  0.00  0.00    +0.000 NA
ENDROOT
BRANCH   1  14
ATOM     11  C   UNL     1       0.749  10.185  19.091  0.00  0.00    +0.000 A 
ATOM     12  C   UNL     1       0.904   9.434  20.248  0.00  0.00    +0.000 A 
ATOM     13  C   UNL     1       1.635   8.239  20.211  0.00  0.00    +0.000 A 
ATOM     14  C   UNL     1       2.195   7.726  19.016  0.00  0.00    +0.000 A 
ATOM     15  C   UNL     1       2.112   8.545  17.888  0.00  0.00    +0.000 A 
ATOM     16  C   UNL     1       1.380   9.749  17.922  0.00  0.00    +0.000 A 
BRANCH  11  17
ATOM     17  O   UNL     1      -0.029  11.308  18.976  0.00  0.00    +0.000 OA
BRANCH  17  18
ATOM     18  C   UNL     1      -1.055  11.280  17.982  0.00  0.00    +0.000 C 
BRANCH  18  20
ATOM     19  C   UNL     1      -3.297  10.199  17.425  0.00  0.00    +0.000 C 
ATOM     20  C   UNL     1      -2.024  10.127  18.251  0.00  0.00    +0.000 C 
ENDBRANCH  18  20
ENDBRANCH  17  18
ENDBRANCH  11  17
ENDBRANCH   1  14
BRANCH   3  21
ATOM     21  O   UNL     1       5.878   4.714  19.965  0.00  0.00    +0.000 OA
BRANCH  21  22
ATOM     22  C   UNL     1       6.752   5.647  19.309  0.00  0.00    +0.000 C 
BRANCH  22  23
ATOM     23  C   UNL     1       7.608   5.077  18.175  0.00  0.00    +0.000 C 
BRANCH  23  24
ATOM     24  N   UNL     1       6.878   5.168  16.882  0.00  0.00    +0.000 NA
ATOM     25  C   UNL     1       6.251   3.904  16.508  0.00  0.00    +0.000 C 
ATOM     26  C   UNL     1       6.401   3.678  15.000  0.00  0.00    +0.000 C 
ATOM     27  C   UNL     1       5.465   4.494  14.109  0.00  0.00    +0.000 C 
ATOM     28  C   UNL     1       5.529   6.001  14.310  0.00  0.00    +0.000 C 
ATOM     29  C   UNL     1       4.974   6.413  15.665  0.00  0.00    +0.000 C 
ATOM     30  C   UNL     1       5.990   6.338  16.807  0.00  0.00    +0.000 C 
ENDBRANCH  23  24
ENDBRANCH  22  23
ENDBRANCH  21  22
ENDBRANCH   3  21
TORSDOF 8
ENDMDL
MODEL 5
REMARK VINA RESULT:      -7.4      2.933      7.287
REMARK  Name = 
REMARK  9 active torsions:
REMARK  status: ('A' for Active; 'I' for Inactive)
REMARK    1  A    between atoms: C_1  and  C_2
REMARK    2  A    between atoms: C_2  and  C_3
REMARK    3  A    between atoms: C_3  and  O_4
REMARK    4  A    between atoms: O_4  and  C_5
REMARK    5  A    between atoms: C_8  and  C_9
REMARK    6  A    between atoms: C_11  and  O_12
REMARK    7  A    between atoms: O_12  and  C_13
REMARK    8  A    between atoms: C_13  and  C_14
REMARK    9  A    between atoms: C_14  and  N_15
REMARK                            x       y       z     vdW  Elec       q    Type
REMARK                         _______ _______ _______ _____ _____    ______ ____
ROOT
ATOM      1  C   UNL     1       1.853   8.240  19.221  0.00  0.00    +0.000 A 
ATOM      2  C   UNL     1       1.410   9.334  18.500  0.00  0.00    +0.000 A 
ATOM      3  C   UNL     1       0.935  10.464  19.148  0.00  0.00    +0.000 A 
ATOM      4  C   UNL     1       0.508  10.323  20.464  0.00  0.00    +0.000 A 
ATOM      5  C   UNL     1      -0.338  11.271  21.073  0.00  0.00    +0.000 A 
ATOM      6  C   UNL     1      -0.832  11.052  22.352  0.00  0.00    +0.000 A 
ATOM      7  C   UNL     1      -0.411   9.932  23.059  0.00  0.00    +0.000 A 
ATOM      8  C   UNL     1       0.460   9.009  22.460  0.00  0.00    +0.000 A 
ATOM      9  C   UNL     1       0.891   9.143  21.143  0.00  0.00    +0.000 A 
ATOM     10  N   UNL     1       1.621   8.157  20.553  0.00  0.00    +0.000 NA
ENDROOT
BRANCH   1  14
ATOM     11  C   UNL     1       4.162   5.008  17.486  0.00  0.00    +0.000 A 
ATOM     12  C   UNL     1       3.070   4.737  18.301  0.00  0.00    +0.000 A 
ATOM     13  C   UNL     1       2.281   5.790  18.782  0.00  0.00    +0.000 A 
ATOM     14  C   UNL     1       2.575   7.149  18.510  0.00  0.00    +0.000 A 
ATOM     15  C   UNL     1       3.615   7.392  17.610  0.00  0.00    +0.000 A 
ATOM     16  C   UNL     1       4.409   6.336  17.122  0.00  0.00    +0.000 A 
BRANCH  11  17
ATOM     17  O   UNL     1       5.068   4.080  17.044  0.00  0.00    +0.000 OA
BRANCH  17  18
ATOM     18  C   UNL     1       6.322   4.579  16.575  0.00  0.00    +0.000 C 
BRANCH  18  20
ATOM     19  C   UNL     1       5.608   4.290  14.143  0.00  0.00    +0.000 C 
ATOM     20  C   UNL     1       6.651   3.983  15.205  0.00  0.00    +0.000 C 
ENDBRANCH  18  20
ENDBRANCH  17  18
ENDBRANCH  11  17
ENDBRANCH   1  14
BRANCH   3  21
ATOM     21  O   UNL     1       0.914  11.707  18.540  0.00  0.00    +0.000 OA
BRANCH  21  22
ATOM     22  C   UNL     1       2.233  12.248  18.361  0.00  0.00    +0.000 C 
BRANCH  22  23
ATOM     23  C   UNL     1       2.375  13.754  18.594  0.00  0.00    +0.000 C 
BRANCH  23  24
ATOM     24  N   UNL     1       1.296  14.241  19.494  0.00  0.00    +0.000 NA
ATOM     25  C   UNL     1       1.822  14.912  20.680  0.00  0.00    +0.000 C 
ATOM     26  C   UNL     1       0.985  14.529  21.906  0.00  0.00    +0.000 C 
ATOM     27  C   UNL     1      -0.374  15.217  22.025  0.00  0.00    +0.000 C 
ATOM     28  C   UNL     1      -1.295  15.046  20.825  0.00  0.00    +0.000 C 
ATOM     29  C   UNL     1      -0.770  15.782  19.602  0.00  0.00    +0.000 C 
ATOM     30  C   UNL     1       0.248  14.988  18.782  0.00  0.00    +0.000 C 
ENDBRANCH  23  24
ENDBRANCH  22  23
ENDBRANCH  21  22
ENDBRANCH   3  21
TORSDOF 8
ENDMDL
MODEL 6
REMARK VINA RESULT:      -7.4      4.740      8.322
REMARK  Name = 
REMARK  9 active torsions:
REMARK  status: ('A' for Active; 'I' for Inactive)
REMARK    1  A    between atoms: C_1  and  C_2
REMARK    2  A    between atoms: C_2  and  C_3
REMARK    3  A    between atoms: C_3  and  O_4
REMARK    4  A    between atoms: O_4  and  C_5
REMARK    5  A    between atoms: C_8  and  C_9
REMARK    6  A    between atoms: C_11  and  O_12
REMARK    7  A    between atoms: O_12  and  C_13
REMARK    8  A    between atoms: C_13  and  C_14
REMARK    9  A    between atoms: C_14  and  N_15
REMARK                            x       y       z     vdW  Elec       q    Type
REMARK                         _______ _______ _______ _____ _____    ______ ____
ROOT
ATOM      1  C   UNL     1       0.026  10.104  19.861  0.00  0.00    +0.000 A 
ATOM      2  C   UNL     1      -0.944  10.444  18.935  0.00  0.00    +0.000 A 
ATOM      3  C   UNL     1      -1.795  11.515  19.160  0.00  0.00    +0.000 A 
ATOM      4  C   UNL     1      -1.954  11.950  20.471  0.00  0.00    +0.000 A 
ATOM      5  C   UNL     1      -3.057  12.735  20.861  0.00  0.00    +0.000 A 
ATOM      6  C   UNL     1      -3.244  13.068  22.197  0.00  0.00    +0.000 A 
ATOM      7  C   UNL     1      -2.284  12.694  23.129  0.00  0.00    +0.000 A 
ATOM      8  C   UNL     1      -1.169  11.941  22.729  0.00  0.00    +0.000 A 
ATOM      9  C   UNL     1      -1.004  11.502  21.418  0.00  0.00    +0.000 A 
ATOM     10  N   UNL     1       0.015  10.658  21.097  0.00  0.00    +0.000 NA
ENDROOT
BRANCH   1  14
ATOM     11  C   UNL     1       2.782   7.019  18.571  0.00  0.00    +0.000 A 
ATOM     12  C   UNL     1       2.441   8.061  17.719  0.00  0.00    +0.000 A 
ATOM     13  C   UNL     1       1.619   9.098  18.180  0.00  0.00    +0.000 A 
ATOM     14  C   UNL     1       1.070   9.112  19.486  0.00  0.00    +0.000 A 
ATOM     15  C   UNL     1       1.505   8.109  20.354  0.00  0.00    +0.000 A 
ATOM     16  C   UNL     1       2.334   7.066  19.895  0.00  0.00    +0.000 A 
BRANCH  11  17
ATOM     17  O   UNL     1       3.485   5.900  18.209  0.00  0.00    +0.000 OA
BRANCH  17  18
ATOM     18  C   UNL     1       2.825   4.644  18.379  0.00  0.00    +0.000 C 
BRANCH  18  20
ATOM     19  C   UNL     1       3.165   2.184  17.796  0.00  0.00    +0.000 C 
ATOM     20  C   UNL     1       3.347   3.628  17.361  0.00  0.00    +0.000 C 
ENDBRANCH  18  20
ENDBRANCH  17  18
ENDBRANCH  11  17
ENDBRANCH   1  14
BRANCH   3  21
ATOM     21  O   UNL     1      -2.443  12.169  18.127  0.00  0.00    +0.000 OA
BRANCH  21  22
ATOM     22  C   UNL     1      -2.838  11.272  17.077  0.00  0.00    +0.000 C 
BRANCH  22  23
ATOM     23  C   UNL     1      -4.296  11.376  16.621  0.00  0.00    +0.000 C 
BRANCH  23  24
ATOM     24  N   UNL     1      -5.173  11.717  17.772  0.00  0.00    +0.000 NA
ATOM     25  C   UNL     1      -6.179  12.718  17.428  0.00  0.00    +0.000 C 
ATOM     26  C   UNL     1      -6.347  13.705  18.587  0.00  0.00    +0.000 C 
ATOM     27  C   UNL     1      -7.151  13.197  19.783  0.00  0.00    +0.000 C 
ATOM     28  C   UNL     1      -6.639  11.906  20.408  0.00  0.00    +0.000 C 
ATOM     29  C   UNL     1      -6.828  10.717  19.480  0.00  0.00    +0.000 C 
ATOM     30  C   UNL     1      -5.700  10.530  18.463  0.00  0.00    +0.000 C 
ENDBRANCH  23  24
ENDBRANCH  22  23
ENDBRANCH  21  22
ENDBRANCH   3  21
TORSDOF 8
ENDMDL
MODEL 7
REMARK VINA RESULT:      -7.3      3.334      7.975
REMARK  Name = 
REMARK  9 active torsions:
REMARK  status: ('A' for Active; 'I' for Inactive)
REMARK    1  A    between atoms: C_1  and  C_2
REMARK    2  A    between atoms: C_2  and  C_3
REMARK    3  A    between atoms: C_3  and  O_4
REMARK    4  A    between atoms: O_4  and  C_5
REMARK    5  A    between atoms: C_8  and  C_9
REMARK    6  A    between atoms: C_11  and  O_12
REMARK    7  A    between atoms: O_12  and  C_13
REMARK    8  A    between atoms: C_13  and  C_14
REMARK    9  A    between atoms: C_14  and  N_15
REMARK                            x       y       z     vdW  Elec       q    Type
REMARK                         _______ _______ _______ _____ _____    ______ ____
ROOT
ATOM      1  C   UNL     1       1.755   8.230  19.895  0.00  0.00    +0.000 A 
ATOM      2  C   UNL     1       1.339   9.176  18.975  0.00  0.00    +0.000 A 
ATOM      3  C   UNL     1       0.766  10.367  19.394  0.00  0.00    +0.000 A 
ATOM      4  C   UNL     1       0.226  10.409  20.674  0.00  0.00    +0.000 A 
ATOM      5  C   UNL     1      -0.707  11.396  21.051  0.00  0.00    +0.000 A 
ATOM      6  C   UNL     1      -1.308  11.352  22.303  0.00  0.00    +0.000 A 
ATOM      7  C   UNL     1      -0.911  10.378  23.211  0.00  0.00    +0.000 A 
ATOM      8  C   UNL     1       0.044   9.419  22.842  0.00  0.00    +0.000 A 
ATOM      9  C   UNL     1       0.589   9.370  21.562  0.00  0.00    +0.000 A 
ATOM     10  N   UNL     1       1.405   8.343  21.199  0.00  0.00    +0.000 NA
ENDROOT
BRANCH   1  14
ATOM     11  C   UNL     1       3.827   4.752  18.350  0.00  0.00    +0.000 A 
ATOM     12  C   UNL     1       3.652   5.878  17.557  0.00  0.00    +0.000 A 
ATOM     13  C   UNL     1       3.059   7.026  18.098  0.00  0.00    +0.000 A 
ATOM     14  C   UNL     1       2.578   7.081  19.430  0.00  0.00    +0.000 A 
ATOM     15  C   UNL     1       2.855   5.974  20.236  0.00  0.00    +0.000 A 
ATOM     16  C   UNL     1       3.453   4.818  19.696  0.00  0.00    +0.000 A 
BRANCH  11  17
ATOM     17  O   UNL     1       4.292   3.540  17.910  0.00  0.00    +0.000 OA
BRANCH  17  18
ATOM     18  C   UNL     1       3.625   2.378  18.405  0.00  0.00    +0.000 C 
BRANCH  18  20
ATOM     19  C   UNL     1       1.095   2.298  18.719  0.00  0.00    +0.000 C 
ATOM     20  C   UNL     1       2.255   2.228  17.740  0.00  0.00    +0.000 C 
ENDBRANCH  18  20
ENDBRANCH  17  18
ENDBRANCH  11  17
ENDBRANCH   1  14
BRANCH   3  21
ATOM     21  O   UNL     1       0.754  11.498  18.597  0.00  0.00    +0.000 OA
BRANCH  21  22
ATOM     22  C   UNL     1       2.026  12.166  18.581  0.00  0.00    +0.000 C 
BRANCH  22  23
ATOM     23  C   UNL     1       2.196  13.305  19.591  0.00  0.00    +0.000 C 
BRANCH  23  24
ATOM     24  N   UNL     1       2.243  14.614  18.888  0.00  0.00    +0.000 NA
ATOM     25  C   UNL     1       1.497  15.651  19.595  0.00  0.00    +0.000 C 
ATOM     26  C   UNL     1       0.744  16.526  18.587  0.00  0.00    +0.000 C 
ATOM     27  C   UNL     1       1.592  17.546  17.828  0.00  0.00    +0.000 C 
ATOM     28  C   UNL     1       2.778  16.967  17.069  0.00  0.00    +0.000 C 
ATOM     29  C   UNL     1       3.846  16.436  18.013  0.00  0.00    +0.000 C 
ATOM     30  C   UNL     1       3.605  15.003  18.489  0.00  0.00    +0.000 C 
ENDBRANCH  23  24
ENDBRANCH  22  23
ENDBRANCH  21  22
ENDBRANCH   3  21
TORSDOF 8
ENDMDL
MODEL 8
REMARK VINA RESULT:      -7.3      0.941      1.064
REMARK  Name = 
REMARK  9 active torsions:
REMARK  status: ('A' for Active; 'I' for Inactive)
REMARK    1  A    between atoms: C_1  and  C_2
REMARK    2  A    between atoms: C_2  and  C_3
REMARK    3  A    between atoms: C_3  and  O_4
REMARK    4  A    between atoms: O_4  and  C_5
REMARK    5  A    between atoms: C_8  and  C_9
REMARK    6  A    between atoms: C_11  and  O_12
REMARK    7  A    between atoms: O_12  and  C_13
REMARK    8  A    between atoms: C_13  and  C_14
REMARK    9  A    between atoms: C_14  and  N_15
REMARK                            x       y       z     vdW  Elec       q    Type
REMARK                         _______ _______ _______ _____ _____    ______ ____
ROOT
ATOM      1  C   UNL     1       3.691   6.818  18.001  0.00  0.00    +0.000 A 
ATOM      2  C   UNL     1       3.288   6.314  19.226  0.00  0.00    +0.000 A 
ATOM      3  C   UNL     1       2.178   6.833  19.874  0.00  0.00    +0.000 A 
ATOM      4  C   UNL     1       1.755   8.107  19.513  0.00  0.00    +0.000 A 
ATOM      5  C   UNL     1       0.919   8.873  20.350  0.00  0.00    +0.000 A 
ATOM      6  C   UNL     1       0.597  10.182  20.011  0.00  0.00    +0.000 A 
ATOM      7  C   UNL     1       1.034  10.694  18.795  0.00  0.00    +0.000 A 
ATOM      8  C   UNL     1       1.837   9.914  17.950  0.00  0.00    +0.000 A 
ATOM      9  C   UNL     1       2.265   8.638  18.305  0.00  0.00    +0.000 A 
ATOM     10  N   UNL     1       3.155   7.967  17.524  0.00  0.00    +0.000 NA
ENDROOT
BRANCH   1  14
ATOM     11  C   UNL     1       6.704   4.992  15.478  0.00  0.00    +0.000 A 
ATOM     12  C   UNL     1       7.049   5.993  16.377  0.00  0.00    +0.000 A 
ATOM     13  C   UNL     1       6.081   6.511  17.248  0.00  0.00    +0.000 A 
ATOM     14  C   UNL     1       4.730   6.088  17.225  0.00  0.00    +0.000 A 
ATOM     15  C   UNL     1       4.429   5.014  16.383  0.00  0.00    +0.000 A 
ATOM     16  C   UNL     1       5.400   4.489  15.508  0.00  0.00    +0.000 A 
BRANCH  11  17
ATOM     17  O   UNL     1       7.528   4.484  14.508  0.00  0.00    +0.000 OA
BRANCH  17  18
ATOM     18  C   UNL     1       7.598   5.211  13.279  0.00  0.00    +0.000 C 
BRANCH  18  20
ATOM     19  C   UNL     1       6.140   3.354  12.314  0.00  0.00    +0.000 C 
ATOM     20  C   UNL     1       7.324   4.280  12.096  0.00  0.00    +0.000 C 
ENDBRANCH  18  20
ENDBRANCH  17  18
ENDBRANCH  11  17
ENDBRANCH   1  14
BRANCH   3  21
ATOM     21  O   UNL     1       1.476   6.110  20.823  0.00  0.00    +0.000 OA
BRANCH  21  22
ATOM     22  C   UNL     1       2.341   5.324  21.658  0.00  0.00    +0.000 C 
BRANCH  22  23
ATOM     23  C   UNL     1       2.045   3.823  21.702  0.00  0.00    +0.000 C 
BRANCH  23  24
ATOM     24  N   UNL     1       2.335   3.202  20.382  0.00  0.00    +0.000 NA
ATOM     25  C   UNL     1       3.447   2.258  20.443  0.00  0.00    +0.000 C 
ATOM     26  C   UNL     1       4.315   2.398  19.189  0.00  0.00    +0.000 C 
ATOM     27  C   UNL     1       3.752   1.770  17.915  0.00  0.00    +0.000 C 
ATOM     28  C   UNL     1       2.364   2.250  17.514  0.00  0.00    +0.000 C 
ATOM     29  C   UNL     1       1.300   1.781  18.494  0.00  0.00    +0.000 C 
ATOM     30  C   UNL     1       1.129   2.686  19.715  0.00  0.00    +0.000 C 
ENDBRANCH  23  24
ENDBRANCH  22  23
ENDBRANCH  21  22
ENDBRANCH   3  21
TORSDOF 8
ENDMDL
MODEL 9
REMARK VINA RESULT:      -7.2      3.237      7.876
REMARK  Name = 
REMARK  9 active torsions:
REMARK  status: ('A' for Active; 'I' for Inactive)
REMARK    1  A    between atoms: C_1  and  C_2
REMARK    2  A    between atoms: C_2  and  C_3
REMARK    3  A    between atoms: C_3  and  O_4
REMARK    4  A    between atoms: O_4  and  C_5
REMARK    5  A    between atoms: C_8  and  C_9
REMARK    6  A    between atoms: C_11  and  O_12
REMARK    7  A    between atoms: O_12  and  C_13
REMARK    8  A    between atoms: C_13  and  C_14
REMARK    9  A    between atoms: C_14  and  N_15
REMARK                            x       y       z     vdW  Elec       q    Type
REMARK                         _______ _______ _______ _____ _____    ______ ____
ROOT
ATOM      1  C   UNL     1       1.726   8.227  19.914  0.00  0.00    +0.000 A 
ATOM      2  C   UNL     1       1.329   9.180  18.992  0.00  0.00    +0.000 A 
ATOM      3  C   UNL     1       0.764  10.375  19.408  0.00  0.00    +0.000 A 
ATOM      4  C   UNL     1       0.212  10.420  20.684  0.00  0.00    +0.000 A 
ATOM      5  C   UNL     1      -0.714  11.416  21.054  0.00  0.00    +0.000 A 
ATOM      6  C   UNL     1      -1.327  11.375  22.300  0.00  0.00    +0.000 A 
ATOM      7  C   UNL     1      -0.949  10.395  23.210  0.00  0.00    +0.000 A 
ATOM      8  C   UNL     1      -0.001   9.426  22.847  0.00  0.00    +0.000 A 
ATOM      9  C   UNL     1       0.556   9.375  21.572  0.00  0.00    +0.000 A 
ATOM     10  N   UNL     1       1.365   8.340  21.214  0.00  0.00    +0.000 NA
ENDROOT
BRANCH   1  14
ATOM     11  C   UNL     1       3.773   4.724  18.392  0.00  0.00    +0.000 A 
ATOM     12  C   UNL     1       3.580   5.835  17.582  0.00  0.00    +0.000 A 
ATOM     13  C   UNL     1       2.996   6.992  18.114  0.00  0.00    +0.000 A 
ATOM     14  C   UNL     1       2.542   7.070  19.453  0.00  0.00    +0.000 A 
ATOM     15  C   UNL     1       2.835   5.979  20.274  0.00  0.00    +0.000 A 
ATOM     16  C   UNL     1       3.425   4.814  19.744  0.00  0.00    +0.000 A 
BRANCH  11  17
ATOM     17  O   UNL     1       4.231   3.505  17.965  0.00  0.00    +0.000 OA
BRANCH  17  18
ATOM     18  C   UNL     1       3.487   2.357  18.381  0.00  0.00    +0.000 C 
BRANCH  18  20
ATOM     19  C   UNL     1       0.970   2.239  18.777  0.00  0.00    +0.000 C 
ATOM     20  C   UNL     1       2.089   2.378  17.759  0.00  0.00    +0.000 C 
ENDBRANCH  18  20
ENDBRANCH  17  18
ENDBRANCH  11  17
ENDBRANCH   1  14
BRANCH   3  21
ATOM     21  O   UNL     1       0.772  11.508  18.614  0.00  0.00    +0.000 OA
BRANCH  21  22
ATOM     22  C   UNL     1       2.057  12.151  18.595  0.00  0.00    +0.000 C 
BRANCH  22  23
ATOM     23  C   UNL     1       2.309  13.177  19.703  0.00  0.00    +0.000 C 
BRANCH  23  24
ATOM     24  N   UNL     1       1.979  14.545  19.223  0.00  0.00    +0.000 NA
ATOM     25  C   UNL     1       2.584  14.841  17.928  0.00  0.00    +0.000 C 
ATOM     26  C   UNL     1       3.090  16.287  17.911  0.00  0.00    +0.000 C 
ATOM     27  C   UNL     1       2.021  17.365  17.743  0.00  0.00    +0.000 C 
ATOM     28  C   UNL     1       0.900  17.332  18.773  0.00  0.00    +0.000 C 
ATOM     29  C   UNL     1       0.018  16.104  18.606  0.00  0.00    +0.000 C 
ATOM     30  C   UNL     1       0.543  14.854  19.315  0.00  0.00    +0.000 C 
ENDBRANCH  23  24
ENDBRANCH  22  23
ENDBRANCH  21  22
ENDBRANCH   3  21
TORSDOF 8
ENDMDL
