MODEL 1
REMARK VINA RESULT:      -6.8      0.000      0.000
REMARK  Name = 
REMARK  6 active torsions:
REMARK  status: ('A' for Active; 'I' for Inactive)
REMARK    1  A    between atoms: C_1  and  C_2
REMARK    2  A    between atoms: C_2  and  C_3
REMARK    3  A    between atoms: C_3  and  C_4
REMARK    4  A    between atoms: C_4  and  O_5
REMARK    5  A    between atoms: O_5  and  C_6
REMARK    6  A    between atoms: C_9  and  C_10
REMARK                            x       y       z     vdW  Elec       q    Type
REMARK                         _______ _______ _______ _____ _____    ______ ____
ROOT
ATOM      1  C   UNL     1       6.255   5.250  14.858  0.00  0.00    +0.000 A 
ATOM      2  C   UNL     1       6.369   3.956  15.357  0.00  0.00    +0.000 A 
ATOM      3  C   UNL     1       5.662   3.525  16.444  0.00  0.00    +0.000 A 
ATOM      4  C   UNL     1       4.794   4.413  17.080  0.00  0.00    +0.000 A 
ATOM      5  C   UNL     1       4.645   5.712  16.615  0.00  0.00    +0.000 A 
ATOM      6  C   UNL     1       5.377   6.152  15.503  0.00  0.00    +0.000 A 
ENDROOT
BRANCH   4   7
ATOM      7  C   UNL     1       4.043   3.958  18.281  0.00  0.00    +0.000 A 
ATOM      8  N   UNL     1       2.690   4.288  18.406  0.00  0.00    +0.000 NA
ATOM      9  C   UNL     1       2.342   3.704  19.510  0.00  0.00    +0.000 A 
ATOM     10  C   UNL     1       1.040   3.623  20.184  0.00  0.00    +0.000 A 
ATOM     11  C   UNL     1       1.039   2.956  21.356  0.00  0.00    +0.000 A 
ATOM     12  N   UNL     1       2.166   2.389  21.906  0.00  0.00    +0.000 N 
ATOM     13  C   UNL     1       3.383   2.423  21.260  0.00  0.00    +0.000 A 
ATOM     14  C   UNL     1       3.520   3.040  20.080  0.00  0.00    +0.000 A 
ATOM     15  N   UNL     1       4.567   3.230  19.238  0.00  0.00    +0.000 NA
ATOM     16  H   UNL     1       2.091   1.884  22.787  0.00  0.00    +0.000 HD
ENDBRANCH   4   7
BRANCH   1  17
ATOM     17  O   UNL     1       6.967   5.639  13.744  0.00  0.00    +0.000 OA
BRANCH  17  18
ATOM     18  C   UNL     1       7.702   4.559  13.118  0.00  0.00    +0.000 C 
BRANCH  18  19
ATOM     19  C   UNL     1       7.041   4.189  11.803  0.00  0.00    +0.000 C 
BRANCH  19  21
ATOM     20  C   UNL     1       4.666   3.347  11.843  0.00  0.00    +0.000 C 
ATOM     21  C   UNL     1       6.134   2.970  11.944  0.00  0.00    +0.000 C 
ENDBRANCH  19  21
ENDBRANCH  18  19
ENDBRANCH  17  18
ENDBRANCH   1  17
TORSDOF 5
ENDMDL
MODEL 2
REMARK VINA RESULT:      -6.8      0.893      1.727
REMARK  Name = 
REMARK  6 active torsions:
REMARK  status: ('A' for Active; 'I' for Inactive)
REMARK    1  A    between atoms: C_1  and  C_2
REMARK    2  A    between atoms: C_2  and  C_3
REMARK    3  A    between atoms: C_3  and  C_4
REMARK    4  A    between atoms: C_4  and  O_5
REMARK    5  A    between atoms: O_5  and  C_6
REMARK    6  A    between atoms: C_9  and  C_10
REMARK                            x       y       z     vdW  Elec       q    Type
REMARK                         _______ _______ _______ _____ _____    ______ ____
ROOT
ATOM      1  C   UNL     1       6.934   5.127  15.388  0.00  0.00    +0.000 A 
ATOM      2  C   UNL     1       5.574   5.296  15.145  0.00  0.00    +0.000 A 
ATOM      3  C   UNL     1       4.618   4.955  16.059  0.00  0.00    +0.000 A 
ATOM      4  C   UNL     1       5.016   4.413  17.281  0.00  0.00    +0.000 A 
ATOM      5  C   UNL     1       6.362   4.230  17.570  0.00  0.00    +0.000 A 
ATOM      6  C   UNL     1       7.339   4.577  16.626  0.00  0.00    +0.000 A 
ENDROOT
BRANCH   4   7
ATOM      7  C   UNL     1       3.978   4.013  18.270  0.00  0.00    +0.000 A 
ATOM      8  N   UNL     1       4.364   3.328  19.426  0.00  0.00    +0.000 NA
ATOM      9  C   UNL     1       3.250   3.186  20.073  0.00  0.00    +0.000 A 
ATOM     10  C   UNL     1       2.971   2.589  21.386  0.00  0.00    +0.000 A 
ATOM     11  C   UNL     1       1.673   2.574  21.747  0.00  0.00    +0.000 A 
ATOM     12  N   UNL     1       0.661   3.069  20.958  0.00  0.00    +0.000 N 
ATOM     13  C   UNL     1       0.917   3.670  19.743  0.00  0.00    +0.000 A 
ATOM     14  C   UNL     1       2.166   3.767  19.273  0.00  0.00    +0.000 A 
ATOM     15  N   UNL     1       2.703   4.289  18.141  0.00  0.00    +0.000 NA
ATOM     16  H   UNL     1      -0.298   3.041  21.299  0.00  0.00    +0.000 HD
ENDBRANCH   4   7
BRANCH   1  17
ATOM     17  O   UNL     1       7.868   5.506  14.449  0.00  0.00    +0.000 OA
BRANCH  17  18
ATOM     18  C   UNL     1       7.542   5.087  13.101  0.00  0.00    +0.000 C 
BRANCH  18  19
ATOM     19  C   UNL     1       6.750   3.794  13.149  0.00  0.00    +0.000 C 
BRANCH  19  21
ATOM     20  C   UNL     1       4.713   3.234  11.774  0.00  0.00    +0.000 C 
ATOM     21  C   UNL     1       6.223   3.396  11.772  0.00  0.00    +0.000 C 
ENDBRANCH  19  21
ENDBRANCH  18  19
ENDBRANCH  17  18
ENDBRANCH   1  17
TORSDOF 5
ENDMDL
MODEL 3
REMARK VINA RESULT:      -6.7      0.112      1.083
REMARK  Name = 
REMARK  6 active torsions:
REMARK  status: ('A' for Active; 'I' for Inactive)
REMARK    1  A    between atoms: C_1  and  C_2
REMARK    2  A    between atoms: C_2  and  C_3
REMARK    3  A    between atoms: C_3  and  C_4
REMARK    4  A    between atoms: C_4  and  O_5
REMARK    5  A    between atoms: O_5  and  C_6
REMARK    6  A    between atoms: C_9  and  C_10
REMARK                            x       y       z     vdW  Elec       q    Type
REMARK                         _______ _______ _______ _____ _____    ______ ____
ROOT
ATOM      1  C   UNL     1       6.122   5.243  14.849  0.00  0.00    +0.000 A 
ATOM      2  C   UNL     1       5.362   6.123  15.615  0.00  0.00    +0.000 A 
ATOM      3  C   UNL     1       4.686   5.724  16.732  0.00  0.00    +0.000 A 
ATOM      4  C   UNL     1       4.754   4.387  17.122  0.00  0.00    +0.000 A 
ATOM      5  C   UNL     1       5.503   3.474  16.392  0.00  0.00    +0.000 A 
ATOM      6  C   UNL     1       6.191   3.887  15.242  0.00  0.00    +0.000 A 
ENDROOT
BRANCH   4   7
ATOM      7  C   UNL     1       3.996   3.941  18.323  0.00  0.00    +0.000 A 
ATOM      8  N   UNL     1       2.643   4.274  18.439  0.00  0.00    +0.000 NA
ATOM      9  C   UNL     1       2.289   3.699  19.545  0.00  0.00    +0.000 A 
ATOM     10  C   UNL     1       0.984   3.624  20.214  0.00  0.00    +0.000 A 
ATOM     11  C   UNL     1       0.976   2.965  21.390  0.00  0.00    +0.000 A 
ATOM     12  N   UNL     1       2.100   2.402  21.950  0.00  0.00    +0.000 N 
ATOM     13  C   UNL     1       3.320   2.429  21.309  0.00  0.00    +0.000 A 
ATOM     14  C   UNL     1       3.463   3.037  20.125  0.00  0.00    +0.000 A 
ATOM     15  N   UNL     1       4.514   3.220  19.287  0.00  0.00    +0.000 NA
ATOM     16  H   UNL     1       2.021   1.903  22.834  0.00  0.00    +0.000 HD
ENDBRANCH   4   7
BRANCH   1  17
ATOM     17  O   UNL     1       6.810   5.689  13.742  0.00  0.00    +0.000 OA
BRANCH  17  18
ATOM     18  C   UNL     1       7.648   4.677  13.131  0.00  0.00    +0.000 C 
BRANCH  18  19
ATOM     19  C   UNL     1       7.062   4.272  11.792  0.00  0.00    +0.000 C 
BRANCH  19  21
ATOM     20  C   UNL     1       4.740   3.294  11.773  0.00  0.00    +0.000 C 
ATOM     21  C   UNL     1       6.225   3.000  11.897  0.00  0.00    +0.000 C 
ENDBRANCH  19  21
ENDBRANCH  18  19
ENDBRANCH  17  18
ENDBRANCH   1  17
TORSDOF 5
ENDMDL
MODEL 4
REMARK VINA RESULT:      -6.7      4.764      6.147
REMARK  Name = 
REMARK  6 active torsions:
REMARK  status: ('A' for Active; 'I' for Inactive)
REMARK    1  A    between atoms: C_1  and  C_2
REMARK    2  A    between atoms: C_2  and  C_3
REMARK    3  A    between atoms: C_3  and  C_4
REMARK    4  A    between atoms: C_4  and  O_5
REMARK    5  A    between atoms: O_5  and  C_6
REMARK    6  A    between atoms: C_9  and  C_10
REMARK                            x       y       z     vdW  Elec       q    Type
REMARK                         _______ _______ _______ _____ _____    ______ ____
ROOT
ATOM      1  C   UNL     1       4.140   5.659  17.614  0.00  0.00    +0.000 A 
ATOM      2  C   UNL     1       3.961   6.991  17.249  0.00  0.00    +0.000 A 
ATOM      3  C   UNL     1       3.167   7.845  17.961  0.00  0.00    +0.000 A 
ATOM      4  C   UNL     1       2.508   7.368  19.094  0.00  0.00    +0.000 A 
ATOM      5  C   UNL     1       2.660   6.048  19.499  0.00  0.00    +0.000 A 
ATOM      6  C   UNL     1       3.471   5.174  18.761  0.00  0.00    +0.000 A 
ENDROOT
BRANCH   4   7
ATOM      7  C   UNL     1       1.620   8.286  19.857  0.00  0.00    +0.000 A 
ATOM      8  N   UNL     1       1.327   7.999  21.194  0.00  0.00    +0.000 NA
ATOM      9  C   UNL     1       0.594   9.003  21.560  0.00  0.00    +0.000 A 
ATOM     10  C   UNL     1      -0.005   9.332  22.860  0.00  0.00    +0.000 A 
ATOM     11  C   UNL     1      -0.753  10.453  22.883  0.00  0.00    +0.000 A 
ATOM     12  N   UNL     1      -0.964  11.245  21.779  0.00  0.00    +0.000 N 
ATOM     13  C   UNL     1      -0.371  10.969  20.564  0.00  0.00    +0.000 A 
ATOM     14  C   UNL     1       0.411   9.894  20.409  0.00  0.00    +0.000 A 
ATOM     15  N   UNL     1       1.104   9.384  19.359  0.00  0.00    +0.000 NA
ATOM     16  H   UNL     1      -1.526  12.089  21.869  0.00  0.00    +0.000 HD
ENDBRANCH   4   7
BRANCH   1  17
ATOM     17  O   UNL     1       4.968   4.836  16.883  0.00  0.00    +0.000 OA
BRANCH  17  18
ATOM     18  C   UNL     1       6.269   5.413  16.610  0.00  0.00    +0.000 C 
BRANCH  18  19
ATOM     19  C   UNL     1       7.224   5.071  17.737  0.00  0.00    +0.000 C 
BRANCH  19  21
ATOM     20  C   UNL     1       7.589   7.561  17.607  0.00  0.00    +0.000 C 
ATOM     21  C   UNL     1       7.710   6.317  18.471  0.00  0.00    +0.000 C 
ENDBRANCH  19  21
ENDBRANCH  18  19
ENDBRANCH  17  18
ENDBRANCH   1  17
TORSDOF 5
ENDMDL
MODEL 5
REMARK VINA RESULT:      -6.7      3.615      4.489
REMARK  Name = 
REMARK  6 active torsions:
REMARK  status: ('A' for Active; 'I' for Inactive)
REMARK    1  A    between atoms: C_1  and  C_2
REMARK    2  A    between atoms: C_2  and  C_3
REMARK    3  A    between atoms: C_3  and  C_4
REMARK    4  A    between atoms: C_4  and  O_5
REMARK    5  A    between atoms: O_5  and  C_6
REMARK    6  A    between atoms: C_9  and  C_10
REMARK                            x       y       z     vdW  Elec       q    Type
REMARK                         _______ _______ _______ _____ _____    ______ ____
ROOT
ATOM      1  C   UNL     1       5.115   4.517  16.441  0.00  0.00    +0.000 A 
ATOM      2  C   UNL     1       5.395   5.880  16.435  0.00  0.00    +0.000 A 
ATOM      3  C   UNL     1       4.620   6.790  17.095  0.00  0.00    +0.000 A 
ATOM      4  C   UNL     1       3.504   6.340  17.801  0.00  0.00    +0.000 A 
ATOM      5  C   UNL     1       3.188   4.989  17.839  0.00  0.00    +0.000 A 
ATOM      6  C   UNL     1       3.983   4.059  17.155  0.00  0.00    +0.000 A 
ENDROOT
BRANCH   4   7
ATOM      7  C   UNL     1       2.640   7.330  18.500  0.00  0.00    +0.000 A 
ATOM      8  N   UNL     1       2.303   7.118  19.840  0.00  0.00    +0.000 NA
ATOM      9  C   UNL     1       1.606   8.168  20.141  0.00  0.00    +0.000 A 
ATOM     10  C   UNL     1       0.993   8.582  21.410  0.00  0.00    +0.000 A 
ATOM     11  C   UNL     1       0.295   9.734  21.363  0.00  0.00    +0.000 A 
ATOM     12  N   UNL     1       0.145  10.483  20.219  0.00  0.00    +0.000 N 
ATOM     13  C   UNL     1       0.753  10.126  19.034  0.00  0.00    +0.000 A 
ATOM     14  C   UNL     1       1.490   9.012  18.947  0.00  0.00    +0.000 A 
ATOM     15  N   UNL     1       2.184   8.425  17.940  0.00  0.00    +0.000 NA
ATOM     16  H   UNL     1      -0.382  11.354  20.258  0.00  0.00    +0.000 HD
ENDBRANCH   4   7
BRANCH   1  17
ATOM     17  O   UNL     1       5.936   3.628  15.782  0.00  0.00    +0.000 OA
BRANCH  17  18
ATOM     18  C   UNL     1       6.388   4.102  14.489  0.00  0.00    +0.000 C 
BRANCH  18  19
ATOM     19  C   UNL     1       5.290   3.903  13.462  0.00  0.00    +0.000 C 
BRANCH  19  21
ATOM     20  C   UNL     1       7.124   3.754  11.740  0.00  0.00    +0.000 C 
ATOM     21  C   UNL     1       5.799   3.184  12.215  0.00  0.00    +0.000 C 
ENDBRANCH  19  21
ENDBRANCH  18  19
ENDBRANCH  17  18
ENDBRANCH   1  17
TORSDOF 5
ENDMDL
MODEL 6
REMARK VINA RESULT:      -6.6      3.854      5.286
REMARK  Name = 
REMARK  6 active torsions:
REMARK  status: ('A' for Active; 'I' for Inactive)
REMARK    1  A    between atoms: C_1  and  C_2
REMARK    2  A    between atoms: C_2  and  C_3
REMARK    3  A    between atoms: C_3  and  C_4
REMARK    4  A    between atoms: C_4  and  O_5
REMARK    5  A    between atoms: O_5  and  C_6
REMARK    6  A    between atoms: C_9  and  C_10
REMARK                            x       y       z     vdW  Elec       q    Type
REMARK                         _______ _______ _______ _____ _____    ______ ____
ROOT
ATOM      1  C   UNL     1       7.664   7.612  17.730  0.00  0.00    +0.000 A 
ATOM      2  C   UNL     1       6.432   7.693  17.086  0.00  0.00    +0.000 A 
ATOM      3  C   UNL     1       5.441   6.774  17.284  0.00  0.00    +0.000 A 
ATOM      4  C   UNL     1       5.669   5.712  18.159  0.00  0.00    +0.000 A 
ATOM      5  C   UNL     1       6.881   5.592  18.826  0.00  0.00    +0.000 A 
ATOM      6  C   UNL     1       7.898   6.535  18.616  0.00  0.00    +0.000 A 
ENDROOT
BRANCH   4   7
ATOM      7  C   UNL     1       4.604   4.692  18.356  0.00  0.00    +0.000 A 
ATOM      8  N   UNL     1       3.263   5.080  18.271  0.00  0.00    +0.000 NA
ATOM      9  C   UNL     1       2.621   3.966  18.435  0.00  0.00    +0.000 A 
ATOM     10  C   UNL     1       1.182   3.675  18.411  0.00  0.00    +0.000 A 
ATOM     11  C   UNL     1       0.849   2.393  18.659  0.00  0.00    +0.000 A 
ATOM     12  N   UNL     1       1.772   1.409  18.927  0.00  0.00    +0.000 N 
ATOM     13  C   UNL     1       3.127   1.663  18.909  0.00  0.00    +0.000 A 
ATOM     14  C   UNL     1       3.595   2.892  18.659  0.00  0.00    +0.000 A 
ATOM     15  N   UNL     1       4.841   3.423  18.582  0.00  0.00    +0.000 NA
ATOM     16  H   UNL     1       1.454   0.455  19.089  0.00  0.00    +0.000 HD
ENDBRANCH   4   7
BRANCH   1  17
ATOM     17  O   UNL     1       8.629   8.573  17.522  0.00  0.00    +0.000 OA
BRANCH  17  18
ATOM     18  C   UNL     1       8.323   9.848  18.140  0.00  0.00    +0.000 C 
BRANCH  18  19
ATOM     19  C   UNL     1       9.241  10.070  19.327  0.00  0.00    +0.000 C 
BRANCH  19  21
ATOM     20  C   UNL     1      10.646  11.534  17.832  0.00  0.00    +0.000 C 
ATOM     21  C   UNL     1      10.021  11.377  19.208  0.00  0.00    +0.000 C 
ENDBRANCH  19  21
ENDBRANCH  18  19
ENDBRANCH  17  18
ENDBRANCH   1  17
TORSDOF 5
ENDMDL
MODEL 7
REMARK VINA RESULT:      -6.6      3.901      4.689
REMARK  Name = 
REMARK  6 active torsions:
REMARK  status: ('A' for Active; 'I' for Inactive)
REMARK    1  A    between atoms: C_1  and  C_2
REMARK    2  A    between atoms: C_2  and  C_3
REMARK    3  A    between atoms: C_3  and  C_4
REMARK    4  A    between atoms: C_4  and  O_5
REMARK    5  A    between atoms: O_5  and  C_6
REMARK    6  A    between atoms: C_9  and  C_10
REMARK                            x       y       z     vdW  Elec       q    Type
REMARK                         _______ _______ _______ _____ _____    ______ ____
ROOT
ATOM      1  C   UNL     1       4.835   4.855  16.664  0.00  0.00    +0.000 A 
ATOM      2  C   UNL     1       3.654   4.460  17.286  0.00  0.00    +0.000 A 
ATOM      3  C   UNL     1       2.842   5.340  17.943  0.00  0.00    +0.000 A 
ATOM      4  C   UNL     1       3.208   6.685  17.998  0.00  0.00    +0.000 A 
ATOM      5  C   UNL     1       4.375   7.126  17.389  0.00  0.00    +0.000 A 
ATOM      6  C   UNL     1       5.208   6.218  16.720  0.00  0.00    +0.000 A 
ENDROOT
BRANCH   4   7
ATOM      7  C   UNL     1       2.342   7.643  18.736  0.00  0.00    +0.000 A 
ATOM      8  N   UNL     1       2.097   7.434  20.097  0.00  0.00    +0.000 NA
ATOM      9  C   UNL     1       1.371   8.455  20.428  0.00  0.00    +0.000 A 
ATOM     10  C   UNL     1       0.816   8.857  21.727  0.00  0.00    +0.000 A 
ATOM     11  C   UNL     1       0.062   9.975  21.710  0.00  0.00    +0.000 A 
ATOM     12  N   UNL     1      -0.191  10.701  20.569  0.00  0.00    +0.000 N 
ATOM     13  C   UNL     1       0.361  10.355  19.353  0.00  0.00    +0.000 A 
ATOM     14  C   UNL     1       1.143   9.276  19.234  0.00  0.00    +0.000 A 
ATOM     15  N   UNL     1       1.803   8.708  18.193  0.00  0.00    +0.000 NA
ATOM     16  H   UNL     1      -0.755  11.546  20.629  0.00  0.00    +0.000 HD
ENDBRANCH   4   7
BRANCH   1  17
ATOM     17  O   UNL     1       5.615   3.941  15.990  0.00  0.00    +0.000 OA
BRANCH  17  18
ATOM     18  C   UNL     1       6.868   4.487  15.508  0.00  0.00    +0.000 C 
BRANCH  18  19
ATOM     19  C   UNL     1       6.816   4.622  13.998  0.00  0.00    +0.000 C 
BRANCH  19  21
ATOM     20  C   UNL     1       6.177   3.162  12.046  0.00  0.00    +0.000 C 
ATOM     21  C   UNL     1       5.738   3.734  13.383  0.00  0.00    +0.000 C 
ENDBRANCH  19  21
ENDBRANCH  18  19
ENDBRANCH  17  18
ENDBRANCH   1  17
TORSDOF 5
ENDMDL
MODEL 8
REMARK VINA RESULT:      -6.6      0.892      1.162
REMARK  Name = 
REMARK  6 active torsions:
REMARK  status: ('A' for Active; 'I' for Inactive)
REMARK    1  A    between atoms: C_1  and  C_2
REMARK    2  A    between atoms: C_2  and  C_3
REMARK    3  A    between atoms: C_3  and  C_4
REMARK    4  A    between atoms: C_4  and  O_5
REMARK    5  A    between atoms: O_5  and  C_6
REMARK    6  A    between atoms: C_9  and  C_10
REMARK                            x       y       z     vdW  Elec       q    Type
REMARK                         _______ _______ _______ _____ _____    ______ ____
ROOT
ATOM      1  C   UNL     1       6.925   4.817  15.227  0.00  0.00    +0.000 A 
ATOM      2  C   UNL     1       5.620   4.377  15.023  0.00  0.00    +0.000 A 
ATOM      3  C   UNL     1       4.784   4.060  16.055  0.00  0.00    +0.000 A 
ATOM      4  C   UNL     1       5.253   4.177  17.364  0.00  0.00    +0.000 A 
ATOM      5  C   UNL     1       6.545   4.616  17.616  0.00  0.00    +0.000 A 
ATOM      6  C   UNL     1       7.402   4.935  16.553  0.00  0.00    +0.000 A 
ENDROOT
BRANCH   4   7
ATOM      7  C   UNL     1       4.355   3.805  18.491  0.00  0.00    +0.000 A 
ATOM      8  N   UNL     1       3.032   4.256  18.488  0.00  0.00    +0.000 NA
ATOM      9  C   UNL     1       2.533   3.720  19.557  0.00  0.00    +0.000 A 
ATOM     10  C   UNL     1       1.172   3.763  20.107  0.00  0.00    +0.000 A 
ATOM     11  C   UNL     1       1.002   3.114  21.277  0.00  0.00    +0.000 A 
ATOM     12  N   UNL     1       2.018   2.457  21.932  0.00  0.00    +0.000 N 
ATOM     13  C   UNL     1       3.288   2.374  21.402  0.00  0.00    +0.000 A 
ATOM     14  C   UNL     1       3.588   2.961  20.237  0.00  0.00    +0.000 A 
ATOM     15  N   UNL     1       4.721   3.046  19.496  0.00  0.00    +0.000 NA
ATOM     16  H   UNL     1       1.817   1.971  22.805  0.00  0.00    +0.000 HD
ENDBRANCH   4   7
BRANCH   1  17
ATOM     17  O   UNL     1       7.730   5.151  14.160  0.00  0.00    +0.000 OA
BRANCH  17  18
ATOM     18  C   UNL     1       7.025   5.208  12.895  0.00  0.00    +0.000 C 
BRANCH  18  19
ATOM     19  C   UNL     1       7.493   4.076  12.000  0.00  0.00    +0.000 C 
BRANCH  19  21
ATOM     20  C   UNL     1       6.995   1.755  11.154  0.00  0.00    +0.000 C 
ATOM     21  C   UNL     1       6.452   2.964  11.895  0.00  0.00    +0.000 C 
ENDBRANCH  19  21
ENDBRANCH  18  19
ENDBRANCH  17  18
ENDBRANCH   1  17
TORSDOF 5
ENDMDL
MODEL 9
REMARK VINA RESULT:      -6.6      5.469      7.580
REMARK  Name = 
REMARK  6 active torsions:
REMARK  status: ('A' for Active; 'I' for Inactive)
REMARK    1  A    between atoms: C_1  and  C_2
REMARK    2  A    between atoms: C_2  and  C_3
REMARK    3  A    between atoms: C_3  and  C_4
REMARK    4  A    between atoms: C_4  and  O_5
REMARK    5  A    between atoms: O_5  and  C_6
REMARK    6  A    between atoms: C_9  and  C_10
REMARK                            x       y       z     vdW  Elec       q    Type
REMARK                         _______ _______ _______ _____ _____    ______ ____
ROOT
ATOM      1  C   UNL     1       0.588  10.213  19.684  0.00  0.00    +0.000 A 
ATOM      2  C   UNL     1       1.196   9.714  18.535  0.00  0.00    +0.000 A 
ATOM      3  C   UNL     1       1.849   8.515  18.513  0.00  0.00    +0.000 A 
ATOM      4  C   UNL     1       1.914   7.760  19.684  0.00  0.00    +0.000 A 
ATOM      5  C   UNL     1       1.320   8.215  20.853  0.00  0.00    +0.000 A 
ATOM      6  C   UNL     1       0.655   9.450  20.872  0.00  0.00    +0.000 A 
ENDROOT
BRANCH   4   7
ATOM      7  C   UNL     1       2.649   6.466  19.673  0.00  0.00    +0.000 A 
ATOM      8  N   UNL     1       2.151   5.392  20.417  0.00  0.00    +0.000 NA
ATOM      9  C   UNL     1       2.981   4.434  20.147  0.00  0.00    +0.000 A 
ATOM     10  C   UNL     1       2.997   3.029  20.574  0.00  0.00    +0.000 A 
ATOM     11  C   UNL     1       4.043   2.303  20.130  0.00  0.00    +0.000 A 
ATOM     12  N   UNL     1       5.042   2.821  19.339  0.00  0.00    +0.000 N 
ATOM     13  C   UNL     1       5.013   4.127  18.897  0.00  0.00    +0.000 A 
ATOM     14  C   UNL     1       4.020   4.952  19.251  0.00  0.00    +0.000 A 
ATOM     15  N   UNL     1       3.739   6.252  18.978  0.00  0.00    +0.000 NA
ATOM     16  H   UNL     1       5.796   2.213  19.023  0.00  0.00    +0.000 HD
ENDBRANCH   4   7
BRANCH   1  17
ATOM     17  O   UNL     1      -0.082  11.416  19.659  0.00  0.00    +0.000 OA
BRANCH  17  18
ATOM     18  C   UNL     1      -1.470  11.300  19.260  0.00  0.00    +0.000 C 
BRANCH  18  19
ATOM     19  C   UNL     1      -1.663  11.943  17.900  0.00  0.00    +0.000 C 
BRANCH  19  21
ATOM     20  C   UNL     1      -2.792   9.740  17.426  0.00  0.00    +0.000 C 
ATOM     21  C   UNL     1      -2.717  11.214  17.069  0.00  0.00    +0.000 C 
ENDBRANCH  19  21
ENDBRANCH  18  19
ENDBRANCH  17  18
ENDBRANCH   1  17
TORSDOF 5
ENDMDL
