MODEL 1
REMARK VINA RESULT:      -8.1      0.000      0.000
REMARK  Name = 
REMARK  6 active torsions:
REMARK  status: ('A' for Active; 'I' for Inactive)
REMARK    1  A    between atoms: C_1  and  C_2
REMARK    2  A    between atoms: N_6  and  C_7
REMARK    3  A    between atoms: C_10  and  C_11
REMARK    4  A    between atoms: C_14  and  C_15
REMARK    5  A    between atoms: C_15  and  C_16
REMARK    6  A    between atoms: N_26  and  C_27
REMARK                            x       y       z     vdW  Elec       q    Type
REMARK                         _______ _______ _______ _____ _____    ______ ____
ROOT
ATOM      1  C   UNL     1       0.972   9.676  20.539  0.00  0.00    +0.000 A 
ATOM      2  N   UNL     1       1.430  10.324  21.595  0.00  0.00    +0.000 NA
ATOM      3  N   UNL     1       0.806  11.539  21.682  0.00  0.00    +0.000 NA
ATOM      4  C   UNL     1      -0.028  11.641  20.672  0.00  0.00    +0.000 A 
ATOM      5  N   UNL     1      -0.004  10.468  19.960  0.00  0.00    +0.000 N 
ATOM      6  C   UNL     1      -0.823  10.143  18.821  0.00  0.00    +0.000 C 
ENDROOT
BRANCH   1  10
ATOM      7  C   UNL     1       2.292   5.810  19.162  0.00  0.00    +0.000 A 
ATOM      8  C   UNL     1       1.742   5.976  20.428  0.00  0.00    +0.000 A 
ATOM      9  C   UNL     1       1.306   7.233  20.846  0.00  0.00    +0.000 A 
ATOM     10  C   UNL     1       1.470   8.379  20.051  0.00  0.00    +0.000 A 
ATOM     11  C   UNL     1       2.066   8.207  18.789  0.00  0.00    +0.000 A 
ATOM     12 CL   UNL     1       2.352   9.520  17.695  0.00  0.00    +0.000 Cl
ATOM     13  C   UNL     1       2.473   6.934  18.349  0.00  0.00    +0.000 A 
BRANCH   7  19
ATOM     14  C   UNL     1       5.191   4.546  19.192  0.00  0.00    +0.000 C 
ATOM     15  C   UNL     1       3.949   3.963  18.615  0.00  0.00    +0.000 A 
ATOM     16  N   UNL     1       3.904   2.765  18.059  0.00  0.00    +0.000 NA
ATOM     17  C   UNL     1       2.587   2.489  17.853  0.00  0.00    +0.000 A 
ATOM     18  C   UNL     1       1.804   3.536  18.277  0.00  0.00    +0.000 A 
ATOM     19  N   UNL     1       2.672   4.516  18.707  0.00  0.00    +0.000 N 
ENDBRANCH   7  19
ENDBRANCH   1  10
BRANCH   4  20
ATOM     20  C   UNL     1      -0.799  12.940  20.363  0.00  0.00    +0.000 C 
ATOM     21  C   UNL     1       0.005  14.221  20.792  0.00  0.00    +0.000 C 
ATOM     22  C   UNL     1      -0.354  14.849  19.435  0.00  0.00    +0.000 C 
ATOM     23  C   UNL     1      -0.635  13.441  18.888  0.00  0.00    +0.000 C 
BRANCH  20  24
ATOM     24  C   UNL     1      -2.314  12.819  20.944  0.00  0.00    +0.000 A 
ATOM     25  C   UNL     1      -2.572  12.767  22.332  0.00  0.00    +0.000 A 
ATOM     26  C   UNL     1      -3.871  12.711  22.852  0.00  0.00    +0.000 A 
ATOM     27  C   UNL     1      -4.958  12.679  21.990  0.00  0.00    +0.000 A 
ATOM     28 CL   UNL     1      -6.558  12.632  22.617  0.00  0.00    +0.000 Cl
ATOM     29  C   UNL     1      -4.755  12.691  20.617  0.00  0.00    +0.000 A 
ATOM     30  C   UNL     1      -3.452  12.765  20.109  0.00  0.00    +0.000 A 
ENDBRANCH  20  24
ENDBRANCH   4  20
TORSDOF 4
ENDMDL
MODEL 2
REMARK VINA RESULT:      -7.9      0.731      1.538
REMARK  Name = 
REMARK  6 active torsions:
REMARK  status: ('A' for Active; 'I' for Inactive)
REMARK    1  A    between atoms: C_1  and  C_2
REMARK    2  A    between atoms: N_6  and  C_7
REMARK    3  A    between atoms: C_10  and  C_11
REMARK    4  A    between atoms: C_14  and  C_15
REMARK    5  A    between atoms: C_15  and  C_16
REMARK    6  A    between atoms: N_26  and  C_27
REMARK                            x       y       z     vdW  Elec       q    Type
REMARK                         _______ _______ _______ _____ _____    ______ ____
ROOT
ATOM      1  C   UNL     1       0.861   9.636  20.515  0.00  0.00    +0.000 A 
ATOM      2  N   UNL     1       1.182  10.346  21.582  0.00  0.00    +0.000 NA
ATOM      3  N   UNL     1       0.543  11.554  21.527  0.00  0.00    +0.000 NA
ATOM      4  C   UNL     1      -0.165  11.590  20.421  0.00  0.00    +0.000 A 
ATOM      5  N   UNL     1      -0.046  10.381  19.781  0.00  0.00    +0.000 N 
ATOM      6  C   UNL     1      -0.719   9.984  18.572  0.00  0.00    +0.000 C 
ENDROOT
BRANCH   1  10
ATOM      7  C   UNL     1       2.373   5.721  19.528  0.00  0.00    +0.000 A 
ATOM      8  C   UNL     1       1.741   5.966  20.742  0.00  0.00    +0.000 A 
ATOM      9  C   UNL     1       1.245   7.236  21.032  0.00  0.00    +0.000 A 
ATOM     10  C   UNL     1       1.424   8.323  20.161  0.00  0.00    +0.000 A 
ATOM     11  C   UNL     1       2.102   8.074  18.954  0.00  0.00    +0.000 A 
ATOM     12 CL   UNL     1       2.419   9.308  17.780  0.00  0.00    +0.000 Cl
ATOM     13  C   UNL     1       2.572   6.786  18.641  0.00  0.00    +0.000 A 
BRANCH   7  19
ATOM     14  C   UNL     1       0.601   3.118  19.231  0.00  0.00    +0.000 C 
ATOM     15  C   UNL     1       2.084   3.225  19.154  0.00  0.00    +0.000 A 
ATOM     16  N   UNL     1       2.870   2.194  18.893  0.00  0.00    +0.000 NA
ATOM     17  C   UNL     1       4.115   2.707  18.687  0.00  0.00    +0.000 A 
ATOM     18  C   UNL     1       4.103   4.073  18.833  0.00  0.00    +0.000 A 
ATOM     19  N   UNL     1       2.818   4.410  19.199  0.00  0.00    +0.000 N 
ENDBRANCH   7  19
ENDBRANCH   1  10
BRANCH   4  20
ATOM     20  C   UNL     1      -0.905  12.859  19.952  0.00  0.00    +0.000 C 
ATOM     21  C   UNL     1      -0.214  14.171  20.472  0.00  0.00    +0.000 C 
ATOM     22  C   UNL     1      -0.357  14.758  19.058  0.00  0.00    +0.000 C 
ATOM     23  C   UNL     1      -0.509  13.329  18.511  0.00  0.00    +0.000 C 
BRANCH  20  24
ATOM     24  C   UNL     1      -2.492  12.709  20.276  0.00  0.00    +0.000 A 
ATOM     25  C   UNL     1      -3.413  12.298  19.286  0.00  0.00    +0.000 A 
ATOM     26  C   UNL     1      -4.775  12.116  19.557  0.00  0.00    +0.000 A 
ATOM     27  C   UNL     1      -5.263  12.368  20.832  0.00  0.00    +0.000 A 
ATOM     28 CL   UNL     1      -6.929  12.129  21.182  0.00  0.00    +0.000 Cl
ATOM     29  C   UNL     1      -4.405  12.810  21.828  0.00  0.00    +0.000 A 
ATOM     30  C   UNL     1      -3.042  12.971  21.550  0.00  0.00    +0.000 A 
ENDBRANCH  20  24
ENDBRANCH   4  20
TORSDOF 4
ENDMDL
MODEL 3
REMARK VINA RESULT:      -7.7      0.686      1.478
REMARK  Name = 
REMARK  6 active torsions:
REMARK  status: ('A' for Active; 'I' for Inactive)
REMARK    1  A    between atoms: C_1  and  C_2
REMARK    2  A    between atoms: N_6  and  C_7
REMARK    3  A    between atoms: C_10  and  C_11
REMARK    4  A    between atoms: C_14  and  C_15
REMARK    5  A    between atoms: C_15  and  C_16
REMARK    6  A    between atoms: N_26  and  C_27
REMARK                            x       y       z     vdW  Elec       q    Type
REMARK                         _______ _______ _______ _____ _____    ______ ____
ROOT
ATOM      1  C   UNL     1       0.941   9.473  20.689  0.00  0.00    +0.000 A 
ATOM      2  N   UNL     1       1.371  10.094  21.773  0.00  0.00    +0.000 NA
ATOM      3  N   UNL     1       0.730  11.298  21.885  0.00  0.00    +0.000 NA
ATOM      4  C   UNL     1      -0.086  11.420  20.863  0.00  0.00    +0.000 A 
ATOM      5  N   UNL     1      -0.035  10.270  20.116  0.00  0.00    +0.000 N 
ATOM      6  C   UNL     1      -0.828   9.970  18.953  0.00  0.00    +0.000 C 
ENDROOT
BRANCH   1  10
ATOM      7  C   UNL     1       2.338   5.666  19.225  0.00  0.00    +0.000 A 
ATOM      8  C   UNL     1       1.801   5.796  20.501  0.00  0.00    +0.000 A 
ATOM      9  C   UNL     1       1.340   7.034  20.947  0.00  0.00    +0.000 A 
ATOM     10  C   UNL     1       1.464   8.198  20.171  0.00  0.00    +0.000 A 
ATOM     11  C   UNL     1       2.046   8.063  18.898  0.00  0.00    +0.000 A 
ATOM     12 CL   UNL     1       2.285   9.402  17.824  0.00  0.00    +0.000 Cl
ATOM     13  C   UNL     1       2.479   6.809  18.430  0.00  0.00    +0.000 A 
BRANCH   7  19
ATOM     14  C   UNL     1       0.691   2.967  19.328  0.00  0.00    +0.000 C 
ATOM     15  C   UNL     1       2.089   3.164  18.855  0.00  0.00    +0.000 A 
ATOM     16  N   UNL     1       2.827   2.189  18.354  0.00  0.00    +0.000 NA
ATOM     17  C   UNL     1       3.939   2.779  17.836  0.00  0.00    +0.000 A 
ATOM     18  C   UNL     1       3.896   4.139  18.029  0.00  0.00    +0.000 A 
ATOM     19  N   UNL     1       2.744   4.390  18.741  0.00  0.00    +0.000 N 
ENDBRANCH   7  19
ENDBRANCH   1  10
BRANCH   4  20
ATOM     20  C   UNL     1      -0.869  12.718  20.580  0.00  0.00    +0.000 C 
ATOM     21  C   UNL     1       0.045  13.993  20.679  0.00  0.00    +0.000 C 
ATOM     22  C   UNL     1      -0.582  14.494  19.367  0.00  0.00    +0.000 C 
ATOM     23  C   UNL     1      -1.015  13.052  19.057  0.00  0.00    +0.000 C 
BRANCH  20  24
ATOM     24  C   UNL     1      -2.224  12.739  21.479  0.00  0.00    +0.000 A 
ATOM     25  C   UNL     1      -3.501  12.878  20.889  0.00  0.00    +0.000 A 
ATOM     26  C   UNL     1      -4.682  12.849  21.641  0.00  0.00    +0.000 A 
ATOM     27  C   UNL     1      -4.618  12.705  23.020  0.00  0.00    +0.000 A 
ATOM     28 CL   UNL     1      -6.062  12.647  23.951  0.00  0.00    +0.000 Cl
ATOM     29  C   UNL     1      -3.386  12.602  23.650  0.00  0.00    +0.000 A 
ATOM     30  C   UNL     1      -2.213  12.614  22.886  0.00  0.00    +0.000 A 
ENDBRANCH  20  24
ENDBRANCH   4  20
TORSDOF 4
ENDMDL
MODEL 4
REMARK VINA RESULT:      -7.7      2.462      3.249
REMARK  Name = 
REMARK  6 active torsions:
REMARK  status: ('A' for Active; 'I' for Inactive)
REMARK    1  A    between atoms: C_1  and  C_2
REMARK    2  A    between atoms: N_6  and  C_7
REMARK    3  A    between atoms: C_10  and  C_11
REMARK    4  A    between atoms: C_14  and  C_15
REMARK    5  A    between atoms: C_15  and  C_16
REMARK    6  A    between atoms: N_26  and  C_27
REMARK                            x       y       z     vdW  Elec       q    Type
REMARK                         _______ _______ _______ _____ _____    ______ ____
ROOT
ATOM      1  C   UNL     1       1.574   8.221  19.729  0.00  0.00    +0.000 A 
ATOM      2  N   UNL     1       1.005   7.938  20.887  0.00  0.00    +0.000 NA
ATOM      3  N   UNL     1       0.224   8.993  21.275  0.00  0.00    +0.000 NA
ATOM      4  C   UNL     1       0.321   9.929  20.357  0.00  0.00    +0.000 A 
ATOM      5  N   UNL     1       1.110   9.464  19.335  0.00  0.00    +0.000 N 
ATOM      6  C   UNL     1       1.409  10.153  18.105  0.00  0.00    +0.000 C 
ENDROOT
BRANCH   1  10
ATOM      7  C   UNL     1       4.571   5.888  17.690  0.00  0.00    +0.000 A 
ATOM      8  C   UNL     1       4.210   7.152  17.239  0.00  0.00    +0.000 A 
ATOM      9  C   UNL     1       3.250   7.896  17.925  0.00  0.00    +0.000 A 
ATOM     10  C   UNL     1       2.563   7.381  19.036  0.00  0.00    +0.000 A 
ATOM     11  C   UNL     1       2.906   6.084  19.459  0.00  0.00    +0.000 A 
ATOM     12 CL   UNL     1       2.143   5.298  20.801  0.00  0.00    +0.000 Cl
ATOM     13  C   UNL     1       3.900   5.344  18.792  0.00  0.00    +0.000 A 
BRANCH   7  19
ATOM     14  C   UNL     1       7.622   5.723  18.508  0.00  0.00    +0.000 C 
ATOM     15  C   UNL     1       6.968   5.136  17.307  0.00  0.00    +0.000 A 
ATOM     16  N   UNL     1       7.614   4.400  16.420  0.00  0.00    +0.000 NA
ATOM     17  C   UNL     1       6.665   3.867  15.602  0.00  0.00    +0.000 A 
ATOM     18  C   UNL     1       5.412   4.287  15.981  0.00  0.00    +0.000 A 
ATOM     19  N   UNL     1       5.600   5.156  17.034  0.00  0.00    +0.000 N 
ENDBRANCH   7  19
ENDBRANCH   1  10
BRANCH   4  20
ATOM     20  C   UNL     1      -0.311  11.325  20.529  0.00  0.00    +0.000 C 
ATOM     21  C   UNL     1      -0.400  11.751  22.039  0.00  0.00    +0.000 C 
ATOM     22  C   UNL     1       0.148  13.131  21.639  0.00  0.00    +0.000 C 
ATOM     23  C   UNL     1       0.702  12.506  20.349  0.00  0.00    +0.000 C 
BRANCH  20  24
ATOM     24  C   UNL     1      -1.697  11.398  19.681  0.00  0.00    +0.000 A 
ATOM     25  C   UNL     1      -2.765  12.233  20.080  0.00  0.00    +0.000 A 
ATOM     26  C   UNL     1      -3.947  12.347  19.338  0.00  0.00    +0.000 A 
ATOM     27  C   UNL     1      -4.106  11.601  18.178  0.00  0.00    +0.000 A 
ATOM     28 CL   UNL     1      -5.545  11.747  17.247  0.00  0.00    +0.000 Cl
ATOM     29  C   UNL     1      -3.101  10.738  17.765  0.00  0.00    +0.000 A 
ATOM     30  C   UNL     1      -1.917  10.646  18.506  0.00  0.00    +0.000 A 
ENDBRANCH  20  24
ENDBRANCH   4  20
TORSDOF 4
ENDMDL
MODEL 5
REMARK VINA RESULT:      -7.6      2.048      3.377
REMARK  Name = 
REMARK  6 active torsions:
REMARK  status: ('A' for Active; 'I' for Inactive)
REMARK    1  A    between atoms: C_1  and  C_2
REMARK    2  A    between atoms: N_6  and  C_7
REMARK    3  A    between atoms: C_10  and  C_11
REMARK    4  A    between atoms: C_14  and  C_15
REMARK    5  A    between atoms: C_15  and  C_16
REMARK    6  A    between atoms: N_26  and  C_27
REMARK                            x       y       z     vdW  Elec       q    Type
REMARK                         _______ _______ _______ _____ _____    ______ ____
ROOT
ATOM      1  C   UNL     1       0.720   9.720  20.710  0.00  0.00    +0.000 A 
ATOM      2  N   UNL     1       1.067  10.307  21.841  0.00  0.00    +0.000 NA
ATOM      3  N   UNL     1       0.324  11.445  22.005  0.00  0.00    +0.000 NA
ATOM      4  C   UNL     1      -0.473  11.561  20.967  0.00  0.00    +0.000 A 
ATOM      5  N   UNL     1      -0.305  10.467  20.155  0.00  0.00    +0.000 N 
ATOM      6  C   UNL     1      -1.040  10.174  18.952  0.00  0.00    +0.000 C 
ENDROOT
BRANCH   1  10
ATOM      7  C   UNL     1       2.472   6.139  19.068  0.00  0.00    +0.000 A 
ATOM      8  C   UNL     1       1.893   6.146  20.333  0.00  0.00    +0.000 A 
ATOM      9  C   UNL     1       1.317   7.312  20.836  0.00  0.00    +0.000 A 
ATOM     10  C   UNL     1       1.362   8.527  20.135  0.00  0.00    +0.000 A 
ATOM     11  C   UNL     1       1.987   8.519  18.875  0.00  0.00    +0.000 A 
ATOM     12 CL   UNL     1       2.139   9.937  17.889  0.00  0.00    +0.000 Cl
ATOM     13  C   UNL     1       2.537   7.336  18.347  0.00  0.00    +0.000 A 
BRANCH   7  19
ATOM     14  C   UNL     1       5.491   5.197  19.065  0.00  0.00    +0.000 C 
ATOM     15  C   UNL     1       4.328   4.530  18.418  0.00  0.00    +0.000 A 
ATOM     16  N   UNL     1       4.421   3.382  17.770  0.00  0.00    +0.000 NA
ATOM     17  C   UNL     1       3.145   2.983  17.514  0.00  0.00    +0.000 A 
ATOM     18  C   UNL     1       2.247   3.903  18.000  0.00  0.00    +0.000 A 
ATOM     19  N   UNL     1       2.997   4.934  18.523  0.00  0.00    +0.000 N 
ENDBRANCH   7  19
ENDBRANCH   1  10
BRANCH   4  20
ATOM     20  C   UNL     1      -1.356  12.805  20.737  0.00  0.00    +0.000 C 
ATOM     21  C   UNL     1      -2.742  12.434  20.097  0.00  0.00    +0.000 C 
ATOM     22  C   UNL     1      -3.416  13.362  21.121  0.00  0.00    +0.000 C 
ATOM     23  C   UNL     1      -2.161  13.254  22.002  0.00  0.00    +0.000 C 
BRANCH  20  24
ATOM     24  C   UNL     1      -0.491  13.944  19.962  0.00  0.00    +0.000 A 
ATOM     25  C   UNL     1      -0.929  15.286  19.894  0.00  0.00    +0.000 A 
ATOM     26  C   UNL     1      -0.176  16.290  19.273  0.00  0.00    +0.000 A 
ATOM     27  C   UNL     1       1.035  15.973  18.674  0.00  0.00    +0.000 A 
ATOM     28 CL   UNL     1       1.978  17.202  17.928  0.00  0.00    +0.000 Cl
ATOM     29  C   UNL     1       1.490  14.662  18.682  0.00  0.00    +0.000 A 
ATOM     30  C   UNL     1       0.737  13.670  19.321  0.00  0.00    +0.000 A 
ENDBRANCH  20  24
ENDBRANCH   4  20
TORSDOF 4
ENDMDL
MODEL 6
REMARK VINA RESULT:      -7.6      2.498      4.310
REMARK  Name = 
REMARK  6 active torsions:
REMARK  status: ('A' for Active; 'I' for Inactive)
REMARK    1  A    between atoms: C_1  and  C_2
REMARK    2  A    between atoms: N_6  and  C_7
REMARK    3  A    between atoms: C_10  and  C_11
REMARK    4  A    between atoms: C_14  and  C_15
REMARK    5  A    between atoms: C_15  and  C_16
REMARK    6  A    between atoms: N_26  and  C_27
REMARK                            x       y       z     vdW  Elec       q    Type
REMARK                         _______ _______ _______ _____ _____    ______ ____
ROOT
ATOM      1  C   UNL     1       0.180  10.897  19.422  0.00  0.00    +0.000 A 
ATOM      2  N   UNL     1      -1.103  11.075  19.164  0.00  0.00    +0.000 NA
ATOM      3  N   UNL     1      -1.475  12.327  19.575  0.00  0.00    +0.000 NA
ATOM      4  C   UNL     1      -0.419  12.914  20.093  0.00  0.00    +0.000 A 
ATOM      5  N   UNL     1       0.660  12.077  19.963  0.00  0.00    +0.000 N 
ATOM      6  C   UNL     1       2.019  12.369  20.340  0.00  0.00    +0.000 C 
ENDROOT
BRANCH   1  10
ATOM      7  C   UNL     1       2.475   7.310  18.746  0.00  0.00    +0.000 A 
ATOM      8  C   UNL     1       2.201   8.198  17.712  0.00  0.00    +0.000 A 
ATOM      9  C   UNL     1       1.471   9.361  17.957  0.00  0.00    +0.000 A 
ATOM     10  C   UNL     1       0.925   9.644  19.220  0.00  0.00    +0.000 A 
ATOM     11  C   UNL     1       1.173   8.719  20.250  0.00  0.00    +0.000 A 
ATOM     12 CL   UNL     1       0.559   8.913  21.858  0.00  0.00    +0.000 Cl
ATOM     13  C   UNL     1       1.940   7.562  20.015  0.00  0.00    +0.000 A 
BRANCH   7  19
ATOM     14  C   UNL     1       1.501   4.459  17.784  0.00  0.00    +0.000 C 
ATOM     15  C   UNL     1       2.876   4.865  18.184  0.00  0.00    +0.000 A 
ATOM     16  N   UNL     1       3.914   4.048  18.136  0.00  0.00    +0.000 NA
ATOM     17  C   UNL     1       5.016   4.816  18.358  0.00  0.00    +0.000 A 
ATOM     18  C   UNL     1       4.656   6.128  18.557  0.00  0.00    +0.000 A 
ATOM     19  N   UNL     1       3.279   6.159  18.514  0.00  0.00    +0.000 N 
ENDBRANCH   7  19
ENDBRANCH   1  10
BRANCH   4  20
ATOM     20  C   UNL     1      -0.496  14.286  20.794  0.00  0.00    +0.000 C 
ATOM     21  C   UNL     1      -1.850  14.479  21.568  0.00  0.00    +0.000 C 
ATOM     22  C   UNL     1      -1.044  15.017  22.761  0.00  0.00    +0.000 C 
ATOM     23  C   UNL     1       0.205  14.324  22.194  0.00  0.00    +0.000 C 
BRANCH  20  24
ATOM     24  C   UNL     1      -0.105  15.456  19.734  0.00  0.00    +0.000 A 
ATOM     25  C   UNL     1       1.223  15.631  19.282  0.00  0.00    +0.000 A 
ATOM     26  C   UNL     1       1.572  16.600  18.334  0.00  0.00    +0.000 A 
ATOM     27  C   UNL     1       0.598  17.448  17.825  0.00  0.00    +0.000 A 
ATOM     28 CL   UNL     1       1.010  18.628  16.645  0.00  0.00    +0.000 Cl
ATOM     29  C   UNL     1      -0.714  17.341  18.265  0.00  0.00    +0.000 A 
ATOM     30  C   UNL     1      -1.054  16.356  19.200  0.00  0.00    +0.000 A 
ENDBRANCH  20  24
ENDBRANCH   4  20
TORSDOF 4
ENDMDL
MODEL 7
REMARK VINA RESULT:      -7.5      2.283      3.831
REMARK  Name = 
REMARK  6 active torsions:
REMARK  status: ('A' for Active; 'I' for Inactive)
REMARK    1  A    between atoms: C_1  and  C_2
REMARK    2  A    between atoms: N_6  and  C_7
REMARK    3  A    between atoms: C_10  and  C_11
REMARK    4  A    between atoms: C_14  and  C_15
REMARK    5  A    between atoms: C_15  and  C_16
REMARK    6  A    between atoms: N_26  and  C_27
REMARK                            x       y       z     vdW  Elec       q    Type
REMARK                         _______ _______ _______ _____ _____    ______ ____
ROOT
ATOM      1  C   UNL     1       1.068   9.157  20.705  0.00  0.00    +0.000 A 
ATOM      2  N   UNL     1       1.412   9.707  21.856  0.00  0.00    +0.000 NA
ATOM      3  N   UNL     1       0.825  10.939  21.960  0.00  0.00    +0.000 NA
ATOM      4  C   UNL     1       0.127  11.150  20.866  0.00  0.00    +0.000 A 
ATOM      5  N   UNL     1       0.199  10.031  20.074  0.00  0.00    +0.000 N 
ATOM      6  C   UNL     1      -0.482   9.825  18.822  0.00  0.00    +0.000 C 
ENDROOT
BRANCH   1  10
ATOM      7  C   UNL     1       2.421   5.342  19.222  0.00  0.00    +0.000 A 
ATOM      8  C   UNL     1       1.844   5.464  20.481  0.00  0.00    +0.000 A 
ATOM      9  C   UNL     1       1.397   6.705  20.933  0.00  0.00    +0.000 A 
ATOM     10  C   UNL     1       1.577   7.879  20.183  0.00  0.00    +0.000 A 
ATOM     11  C   UNL     1       2.200   7.751  18.928  0.00  0.00    +0.000 A 
ATOM     12 CL   UNL     1       2.509   9.102  17.888  0.00  0.00    +0.000 Cl
ATOM     13  C   UNL     1       2.618   6.495  18.453  0.00  0.00    +0.000 A 
BRANCH   7  19
ATOM     14  C   UNL     1       0.619   2.755  18.965  0.00  0.00    +0.000 C 
ATOM     15  C   UNL     1       2.077   2.881  18.692  0.00  0.00    +0.000 A 
ATOM     16  N   UNL     1       2.816   1.882  18.242  0.00  0.00    +0.000 NA
ATOM     17  C   UNL     1       4.021   2.420  17.907  0.00  0.00    +0.000 A 
ATOM     18  C   UNL     1       4.034   3.770  18.163  0.00  0.00    +0.000 A 
ATOM     19  N   UNL     1       2.812   4.065  18.730  0.00  0.00    +0.000 N 
ENDBRANCH   7  19
ENDBRANCH   1  10
BRANCH   4  20
ATOM     20  C   UNL     1      -0.554  12.500  20.567  0.00  0.00    +0.000 C 
ATOM     21  C   UNL     1      -1.986  12.314  19.947  0.00  0.00    +0.000 C 
ATOM     22  C   UNL     1      -2.502  13.388  20.918  0.00  0.00    +0.000 C 
ATOM     23  C   UNL     1      -1.272  13.137  21.805  0.00  0.00    +0.000 C 
BRANCH  20  24
ATOM     24  C   UNL     1       0.469  13.448  19.732  0.00  0.00    +0.000 A 
ATOM     25  C   UNL     1       0.426  14.857  19.839  0.00  0.00    +0.000 A 
ATOM     26  C   UNL     1       1.330  15.689  19.166  0.00  0.00    +0.000 A 
ATOM     27  C   UNL     1       2.295  15.131  18.339  0.00  0.00    +0.000 A 
ATOM     28 CL   UNL     1       3.423  16.140  17.524  0.00  0.00    +0.000 Cl
ATOM     29  C   UNL     1       2.354  13.754  18.172  0.00  0.00    +0.000 A 
ATOM     30  C   UNL     1       1.457  12.932  18.864  0.00  0.00    +0.000 A 
ENDBRANCH  20  24
ENDBRANCH   4  20
TORSDOF 4
ENDMDL
MODEL 8
REMARK VINA RESULT:      -7.5      2.880      4.315
REMARK  Name = 
REMARK  6 active torsions:
REMARK  status: ('A' for Active; 'I' for Inactive)
REMARK    1  A    between atoms: C_1  and  C_2
REMARK    2  A    between atoms: N_6  and  C_7
REMARK    3  A    between atoms: C_10  and  C_11
REMARK    4  A    between atoms: C_14  and  C_15
REMARK    5  A    between atoms: C_15  and  C_16
REMARK    6  A    between atoms: N_26  and  C_27
REMARK                            x       y       z     vdW  Elec       q    Type
REMARK                         _______ _______ _______ _____ _____    ______ ____
ROOT
ATOM      1  C   UNL     1       1.510   8.460  19.720  0.00  0.00    +0.000 A 
ATOM      2  N   UNL     1       1.146   8.329  20.982  0.00  0.00    +0.000 NA
ATOM      3  N   UNL     1       0.360   9.392  21.337  0.00  0.00    +0.000 NA
ATOM      4  C   UNL     1       0.250  10.182  20.293  0.00  0.00    +0.000 A 
ATOM      5  N   UNL     1       0.905   9.606  19.233  0.00  0.00    +0.000 N 
ATOM      6  C   UNL     1       0.964  10.114  17.886  0.00  0.00    +0.000 C 
ENDROOT
BRANCH   1  10
ATOM      7  C   UNL     1       4.340   5.982  17.614  0.00  0.00    +0.000 A 
ATOM      8  C   UNL     1       4.075   7.284  17.204  0.00  0.00    +0.000 A 
ATOM      9  C   UNL     1       3.168   8.073  17.911  0.00  0.00    +0.000 A 
ATOM     10  C   UNL     1       2.439   7.573  19.002  0.00  0.00    +0.000 A 
ATOM     11  C   UNL     1       2.684   6.242  19.383  0.00  0.00    +0.000 A 
ATOM     12 CL   UNL     1       1.859   5.470  20.697  0.00  0.00    +0.000 Cl
ATOM     13  C   UNL     1       3.626   5.453  18.695  0.00  0.00    +0.000 A 
BRANCH   7  19
ATOM     14  C   UNL     1       7.455   5.920  18.158  0.00  0.00    +0.000 C 
ATOM     15  C   UNL     1       6.704   5.216  17.084  0.00  0.00    +0.000 A 
ATOM     16  N   UNL     1       7.278   4.403  16.213  0.00  0.00    +0.000 NA
ATOM     17  C   UNL     1       6.267   3.787  15.542  0.00  0.00    +0.000 A 
ATOM     18  C   UNL     1       5.048   4.232  15.993  0.00  0.00    +0.000 A 
ATOM     19  N   UNL     1       5.317   5.199  16.938  0.00  0.00    +0.000 N 
ENDBRANCH   7  19
ENDBRANCH   1  10
BRANCH   4  20
ATOM     20  C   UNL     1      -0.446  11.556  20.364  0.00  0.00    +0.000 C 
ATOM     21  C   UNL     1      -1.777  11.589  19.528  0.00  0.00    +0.000 C 
ATOM     22  C   UNL     1      -2.459  12.282  20.719  0.00  0.00    +0.000 C 
ATOM     23  C   UNL     1      -1.344  11.748  21.633  0.00  0.00    +0.000 C 
BRANCH  20  24
ATOM     24  C   UNL     1       0.635  12.726  20.035  0.00  0.00    +0.000 A 
ATOM     25  C   UNL     1       1.830  12.859  20.777  0.00  0.00    +0.000 A 
ATOM     26  C   UNL     1       2.795  13.829  20.478  0.00  0.00    +0.000 A 
ATOM     27  C   UNL     1       2.578  14.718  19.435  0.00  0.00    +0.000 A 
ATOM     28 CL   UNL     1       3.765  15.900  19.045  0.00  0.00    +0.000 Cl
ATOM     29  C   UNL     1       1.402  14.652  18.700  0.00  0.00    +0.000 A 
ATOM     30  C   UNL     1       0.453  13.667  18.997  0.00  0.00    +0.000 A 
ENDBRANCH  20  24
ENDBRANCH   4  20
TORSDOF 4
ENDMDL
MODEL 9
REMARK VINA RESULT:      -7.4      2.086      3.471
REMARK  Name = 
REMARK  6 active torsions:
REMARK  status: ('A' for Active; 'I' for Inactive)
REMARK    1  A    between atoms: C_1  and  C_2
REMARK    2  A    between atoms: N_6  and  C_7
REMARK    3  A    between atoms: C_10  and  C_11
REMARK    4  A    between atoms: C_14  and  C_15
REMARK    5  A    between atoms: C_15  and  C_16
REMARK    6  A    between atoms: N_26  and  C_27
REMARK                            x       y       z     vdW  Elec       q    Type
REMARK                         _______ _______ _______ _____ _____    ______ ____
ROOT
ATOM      1  C   UNL     1       0.744   9.712  20.667  0.00  0.00    +0.000 A 
ATOM      2  N   UNL     1       1.096  10.262  21.815  0.00  0.00    +0.000 NA
ATOM      3  N   UNL     1       0.324  11.370  22.039  0.00  0.00    +0.000 NA
ATOM      4  C   UNL     1      -0.496  11.505  21.021  0.00  0.00    +0.000 A 
ATOM      5  N   UNL     1      -0.312  10.451  20.162  0.00  0.00    +0.000 N 
ATOM      6  C   UNL     1      -1.061  10.186  18.961  0.00  0.00    +0.000 C 
ENDROOT
BRANCH   1  10
ATOM      7  C   UNL     1       2.566   6.254  18.847  0.00  0.00    +0.000 A 
ATOM      8  C   UNL     1       2.017   6.194  20.123  0.00  0.00    +0.000 A 
ATOM      9  C   UNL     1       1.417   7.321  20.685  0.00  0.00    +0.000 A 
ATOM     10  C   UNL     1       1.409   8.563  20.031  0.00  0.00    +0.000 A 
ATOM     11  C   UNL     1       2.004   8.624  18.758  0.00  0.00    +0.000 A 
ATOM     12 CL   UNL     1       2.091  10.083  17.827  0.00  0.00    +0.000 Cl
ATOM     13  C   UNL     1       2.578   7.480  18.172  0.00  0.00    +0.000 A 
BRANCH   7  19
ATOM     14  C   UNL     1       1.245   3.386  18.676  0.00  0.00    +0.000 C 
ATOM     15  C   UNL     1       2.607   3.789  18.233  0.00  0.00    +0.000 A 
ATOM     16  N   UNL     1       3.451   2.959  17.643  0.00  0.00    +0.000 NA
ATOM     17  C   UNL     1       4.484   3.723  17.192  0.00  0.00    +0.000 A 
ATOM     18  C   UNL     1       4.285   5.043  17.517  0.00  0.00    +0.000 A 
ATOM     19  N   UNL     1       3.115   5.088  18.243  0.00  0.00    +0.000 N 
ENDBRANCH   7  19
ENDBRANCH   1  10
BRANCH   4  20
ATOM     20  C   UNL     1      -1.417  12.731  20.859  0.00  0.00    +0.000 C 
ATOM     21  C   UNL     1      -2.820  12.341  20.266  0.00  0.00    +0.000 C 
ATOM     22  C   UNL     1      -3.474  13.225  21.340  0.00  0.00    +0.000 C 
ATOM     23  C   UNL     1      -2.181  13.128  22.167  0.00  0.00    +0.000 C 
BRANCH  20  24
ATOM     24  C   UNL     1      -0.614  13.911  20.079  0.00  0.00    +0.000 A 
ATOM     25  C   UNL     1      -1.083  15.244  20.071  0.00  0.00    +0.000 A 
ATOM     26  C   UNL     1      -0.381  16.283  19.446  0.00  0.00    +0.000 A 
ATOM     27  C   UNL     1       0.808  16.010  18.784  0.00  0.00    +0.000 A 
ATOM     28 CL   UNL     1       1.689  17.280  18.032  0.00  0.00    +0.000 Cl
ATOM     29  C   UNL     1       1.291  14.710  18.733  0.00  0.00    +0.000 A 
ATOM     30  C   UNL     1       0.589  13.683  19.376  0.00  0.00    +0.000 A 
ENDBRANCH  20  24
ENDBRANCH   4  20
TORSDOF 4
ENDMDL
