MODEL 1
REMARK VINA RESULT:      -8.5      0.000      0.000
REMARK  Name = 
REMARK  7 active torsions:
REMARK  status: ('A' for Active; 'I' for Inactive)
REMARK    1  A    between atoms: C_1  and  C_2
REMARK    2  A    between atoms: C_5  and  O_6
REMARK    3  A    between atoms: O_6  and  C_7
REMARK    4  A    between atoms: C_7  and  C_9
REMARK    5  A    between atoms: C_9  and  O_10
REMARK    6  A    between atoms: O_10  and  C_11
REMARK    7  A    between atoms: C_17  and  N_18
REMARK                            x       y       z     vdW  Elec       q    Type
REMARK                         _______ _______ _______ _____ _____    ______ ____
ROOT
ATOM      1  C   UNL     1       8.664   9.520  18.170  0.00  0.00    +0.000 C 
ATOM      2  C   UNL     1       8.140   8.113  18.133  0.00  0.00    +0.000 A 
ATOM      3  C   UNL     1       8.356   7.242  19.212  0.00  0.00    +0.000 A 
ATOM      4  C   UNL     1       7.864   5.936  19.177  0.00  0.00    +0.000 A 
ATOM      5  C   UNL     1       7.205   5.473  18.036  0.00  0.00    +0.000 A 
ATOM      6  C   UNL     1       7.104   6.297  16.904  0.00  0.00    +0.000 A 
ATOM      7  C   UNL     1       7.486   7.642  16.984  0.00  0.00    +0.000 A 
ENDROOT
BRANCH   6   8
ATOM      8  N   UNL     1       6.725   5.754  15.655  0.00  0.00    +0.000 N 
ATOM      9  N   UNL     1       7.633   5.731  14.641  0.00  0.00    +0.000 NA
ATOM     10  C   UNL     1       7.058   4.901  13.769  0.00  0.00    +0.000 A 
ATOM     11  C   UNL     1       7.611   4.359  12.604  0.00  0.00    +0.000 A 
ATOM     12  C   UNL     1       6.772   3.451  11.941  0.00  0.00    +0.000 A 
ATOM     13  C   UNL     1       5.462   3.131  12.399  0.00  0.00    +0.000 A 
ATOM     14  C   UNL     1       4.876   3.698  13.550  0.00  0.00    +0.000 A 
ATOM     15  C   UNL     1       5.708   4.596  14.244  0.00  0.00    +0.000 A 
ATOM     16  N   UNL     1       5.487   5.302  15.366  0.00  0.00    +0.000 NA
ENDBRANCH   6   8
BRANCH   5  17
ATOM     17  O   UNL     1       6.636   4.182  18.167  0.00  0.00    +0.000 OA
BRANCH  17  18
ATOM     18  C   UNL     1       5.541   4.018  19.023  0.00  0.00    +0.000 C 
ATOM     19  O   UNL     1       5.233   2.987  19.620  0.00  0.00    +0.000 OA
BRANCH  18  20
ATOM     20  C   UNL     1       4.679   5.253  19.030  0.00  0.00    +0.000 C 
BRANCH  20  21
ATOM     21  O   UNL     1       3.648   4.836  18.136  0.00  0.00    +0.000 OA
BRANCH  21  22
ATOM     22  C   UNL     1       2.614   4.114  18.629  0.00  0.00    +0.000 A 
ATOM     23  C   UNL     1       2.053   4.661  19.788  0.00  0.00    +0.000 A 
ATOM     24  C   UNL     1       0.968   4.049  20.405  0.00  0.00    +0.000 A 
ATOM     25  C   UNL     1       0.425   2.895  19.846  0.00  0.00    +0.000 A 
ATOM     26  C   UNL     1       0.964   2.362  18.673  0.00  0.00    +0.000 A 
ATOM     27  C   UNL     1       2.063   2.973  18.059  0.00  0.00    +0.000 A 
ENDBRANCH  21  22
ENDBRANCH  20  21
ENDBRANCH  18  20
ENDBRANCH  17  18
ENDBRANCH   5  17
TORSDOF 6
ENDMDL
MODEL 2
REMARK VINA RESULT:      -8.5      2.176      7.402
REMARK  Name = 
REMARK  7 active torsions:
REMARK  status: ('A' for Active; 'I' for Inactive)
REMARK    1  A    between atoms: C_1  and  C_2
REMARK    2  A    between atoms: C_5  and  O_6
REMARK    3  A    between atoms: O_6  and  C_7
REMARK    4  A    between atoms: C_7  and  C_9
REMARK    5  A    between atoms: C_9  and  O_10
REMARK    6  A    between atoms: O_10  and  C_11
REMARK    7  A    between atoms: C_17  and  N_18
REMARK                            x       y       z     vdW  Elec       q    Type
REMARK                         _______ _______ _______ _____ _____    ______ ____
ROOT
ATOM      1  C   UNL     1       6.237   3.382  12.938  0.00  0.00    +0.000 C 
ATOM      2  C   UNL     1       6.208   4.186  14.205  0.00  0.00    +0.000 A 
ATOM      3  C   UNL     1       7.346   4.886  14.634  0.00  0.00    +0.000 A 
ATOM      4  C   UNL     1       7.315   5.637  15.810  0.00  0.00    +0.000 A 
ATOM      5  C   UNL     1       6.163   5.643  16.599  0.00  0.00    +0.000 A 
ATOM      6  C   UNL     1       5.068   4.839  16.245  0.00  0.00    +0.000 A 
ATOM      7  C   UNL     1       5.055   4.187  15.005  0.00  0.00    +0.000 A 
ENDROOT
BRANCH   6   8
ATOM      8  N   UNL     1       4.031   4.593  17.172  0.00  0.00    +0.000 N 
ATOM      9  N   UNL     1       3.743   3.308  17.517  0.00  0.00    +0.000 NA
ATOM     10  C   UNL     1       2.974   3.473  18.595  0.00  0.00    +0.000 A 
ATOM     11  C   UNL     1       2.517   2.493  19.484  0.00  0.00    +0.000 A 
ATOM     12  C   UNL     1       1.788   3.001  20.569  0.00  0.00    +0.000 A 
ATOM     13  C   UNL     1       1.512   4.388  20.735  0.00  0.00    +0.000 A 
ATOM     14  C   UNL     1       1.933   5.383  19.828  0.00  0.00    +0.000 A 
ATOM     15  C   UNL     1       2.685   4.899  18.742  0.00  0.00    +0.000 A 
ATOM     16  N   UNL     1       3.246   5.551  17.708  0.00  0.00    +0.000 NA
ENDBRANCH   6   8
BRANCH   5  17
ATOM     17  O   UNL     1       6.202   6.542  17.693  0.00  0.00    +0.000 OA
BRANCH  17  18
ATOM     18  C   UNL     1       7.449   6.972  18.161  0.00  0.00    +0.000 C 
ATOM     19  O   UNL     1       8.193   6.356  18.922  0.00  0.00    +0.000 OA
BRANCH  18  20
ATOM     20  C   UNL     1       7.730   8.382  17.711  0.00  0.00    +0.000 C 
BRANCH  20  21
ATOM     21  O   UNL     1       8.752   8.736  18.643  0.00  0.00    +0.000 OA
BRANCH  21  22
ATOM     22  C   UNL     1       9.032  10.047  18.832  0.00  0.00    +0.000 A 
ATOM     23  C   UNL     1       9.420  10.352  20.141  0.00  0.00    +0.000 A 
ATOM     24  C   UNL     1       9.763  11.653  20.492  0.00  0.00    +0.000 A 
ATOM     25  C   UNL     1       9.738  12.651  19.522  0.00  0.00    +0.000 A 
ATOM     26  C   UNL     1       9.378  12.346  18.208  0.00  0.00    +0.000 A 
ATOM     27  C   UNL     1       9.023  11.037  17.859  0.00  0.00    +0.000 A 
ENDBRANCH  21  22
ENDBRANCH  20  21
ENDBRANCH  18  20
ENDBRANCH  17  18
ENDBRANCH   5  17
TORSDOF 6
ENDMDL
MODEL 3
REMARK VINA RESULT:      -8.4      2.480      7.635
REMARK  Name = 
REMARK  7 active torsions:
REMARK  status: ('A' for Active; 'I' for Inactive)
REMARK    1  A    between atoms: C_1  and  C_2
REMARK    2  A    between atoms: C_5  and  O_6
REMARK    3  A    between atoms: O_6  and  C_7
REMARK    4  A    between atoms: C_7  and  C_9
REMARK    5  A    between atoms: C_9  and  O_10
REMARK    6  A    between atoms: O_10  and  C_11
REMARK    7  A    between atoms: C_17  and  N_18
REMARK                            x       y       z     vdW  Elec       q    Type
REMARK                         _______ _______ _______ _____ _____    ______ ____
ROOT
ATOM      1  C   UNL     1       5.380   3.480  13.220  0.00  0.00    +0.000 C 
ATOM      2  C   UNL     1       5.875   4.174  14.455  0.00  0.00    +0.000 A 
ATOM      3  C   UNL     1       7.171   4.710  14.504  0.00  0.00    +0.000 A 
ATOM      4  C   UNL     1       7.628   5.358  15.654  0.00  0.00    +0.000 A 
ATOM      5  C   UNL     1       6.811   5.422  16.784  0.00  0.00    +0.000 A 
ATOM      6  C   UNL     1       5.566   4.772  16.787  0.00  0.00    +0.000 A 
ATOM      7  C   UNL     1       5.061   4.231  15.598  0.00  0.00    +0.000 A 
ENDROOT
BRANCH   6   8
ATOM      8  N   UNL     1       4.871   4.562  17.998  0.00  0.00    +0.000 N 
ATOM      9  N   UNL     1       3.948   5.479  18.400  0.00  0.00    +0.000 NA
ATOM     10  C   UNL     1       3.300   4.822  19.363  0.00  0.00    +0.000 A 
ATOM     11  C   UNL     1       2.129   5.204  20.027  0.00  0.00    +0.000 A 
ATOM     12  C   UNL     1       1.653   4.252  20.940  0.00  0.00    +0.000 A 
ATOM     13  C   UNL     1       2.319   3.018  21.190  0.00  0.00    +0.000 A 
ATOM     14  C   UNL     1       3.520   2.635  20.556  0.00  0.00    +0.000 A 
ATOM     15  C   UNL     1       4.005   3.566  19.620  0.00  0.00    +0.000 A 
ATOM     16  N   UNL     1       5.098   3.530  18.837  0.00  0.00    +0.000 NA
ENDBRANCH   6   8
BRANCH   5  17
ATOM     17  O   UNL     1       7.325   6.216  17.839  0.00  0.00    +0.000 OA
BRANCH  17  18
ATOM     18  C   UNL     1       7.288   7.609  17.706  0.00  0.00    +0.000 C 
ATOM     19  O   UNL     1       6.502   8.253  17.013  0.00  0.00    +0.000 OA
BRANCH  18  20
ATOM     20  C   UNL     1       8.442   8.245  18.435  0.00  0.00    +0.000 C 
BRANCH  20  21
ATOM     21  O   UNL     1       8.493   9.502  17.763  0.00  0.00    +0.000 OA
BRANCH  21  22
ATOM     22  C   UNL     1       9.012  10.568  18.416  0.00  0.00    +0.000 A 
ATOM     23  C   UNL     1       9.392  10.286  19.732  0.00  0.00    +0.000 A 
ATOM     24  C   UNL     1       9.963  11.271  20.530  0.00  0.00    +0.000 A 
ATOM     25  C   UNL     1      10.175  12.541  20.001  0.00  0.00    +0.000 A 
ATOM     26  C   UNL     1       9.822  12.820  18.678  0.00  0.00    +0.000 A 
ATOM     27  C   UNL     1       9.238  11.829  17.880  0.00  0.00    +0.000 A 
ENDBRANCH  21  22
ENDBRANCH  20  21
ENDBRANCH  18  20
ENDBRANCH  17  18
ENDBRANCH   5  17
TORSDOF 6
ENDMDL
MODEL 4
REMARK VINA RESULT:      -8.4      3.092      7.513
REMARK  Name = 
REMARK  7 active torsions:
REMARK  status: ('A' for Active; 'I' for Inactive)
REMARK    1  A    between atoms: C_1  and  C_2
REMARK    2  A    between atoms: C_5  and  O_6
REMARK    3  A    between atoms: O_6  and  C_7
REMARK    4  A    between atoms: C_7  and  C_9
REMARK    5  A    between atoms: C_9  and  O_10
REMARK    6  A    between atoms: O_10  and  C_11
REMARK    7  A    between atoms: C_17  and  N_18
REMARK                            x       y       z     vdW  Elec       q    Type
REMARK                         _______ _______ _______ _____ _____    ______ ____
ROOT
ATOM      1  C   UNL     1       0.737   1.861  18.860  0.00  0.00    +0.000 C 
ATOM      2  C   UNL     1       1.769   2.868  18.443  0.00  0.00    +0.000 A 
ATOM      3  C   UNL     1       3.023   2.453  17.969  0.00  0.00    +0.000 A 
ATOM      4  C   UNL     1       3.979   3.392  17.578  0.00  0.00    +0.000 A 
ATOM      5  C   UNL     1       3.709   4.755  17.716  0.00  0.00    +0.000 A 
ATOM      6  C   UNL     1       2.510   5.175  18.314  0.00  0.00    +0.000 A 
ATOM      7  C   UNL     1       1.505   4.239  18.591  0.00  0.00    +0.000 A 
ENDROOT
BRANCH   6   8
ATOM      8  N   UNL     1       2.353   6.513  18.741  0.00  0.00    +0.000 N 
ATOM      9  N   UNL     1       2.437   7.514  17.823  0.00  0.00    +0.000 NA
ATOM     10  C   UNL     1       1.942   8.554  18.497  0.00  0.00    +0.000 A 
ATOM     11  C   UNL     1       1.620   9.824  18.005  0.00  0.00    +0.000 A 
ATOM     12  C   UNL     1       1.042  10.676  18.956  0.00  0.00    +0.000 A 
ATOM     13  C   UNL     1       0.827  10.293  20.310  0.00  0.00    +0.000 A 
ATOM     14  C   UNL     1       1.181   9.030  20.831  0.00  0.00    +0.000 A 
ATOM     15  C   UNL     1       1.744   8.150  19.889  0.00  0.00    +0.000 A 
ATOM     16  N   UNL     1       2.182   6.886  20.026  0.00  0.00    +0.000 NA
ENDBRANCH   6   8
BRANCH   5  17
ATOM     17  O   UNL     1       4.695   5.610  17.165  0.00  0.00    +0.000 OA
BRANCH  17  18
ATOM     18  C   UNL     1       5.973   5.613  17.735  0.00  0.00    +0.000 C 
ATOM     19  O   UNL     1       6.235   5.715  18.933  0.00  0.00    +0.000 OA
BRANCH  18  20
ATOM     20  C   UNL     1       7.034   5.602  16.666  0.00  0.00    +0.000 C 
BRANCH  20  21
ATOM     21  O   UNL     1       6.576   4.503  15.879  0.00  0.00    +0.000 OA
BRANCH  21  22
ATOM     22  C   UNL     1       6.830   4.506  14.549  0.00  0.00    +0.000 A 
ATOM     23  C   UNL     1       6.072   3.574  13.833  0.00  0.00    +0.000 A 
ATOM     24  C   UNL     1       6.201   3.469  12.453  0.00  0.00    +0.000 A 
ATOM     25  C   UNL     1       7.078   4.316  11.782  0.00  0.00    +0.000 A 
ATOM     26  C   UNL     1       7.817   5.267  12.489  0.00  0.00    +0.000 A 
ATOM     27  C   UNL     1       7.693   5.365  13.880  0.00  0.00    +0.000 A 
ENDBRANCH  21  22
ENDBRANCH  20  21
ENDBRANCH  18  20
ENDBRANCH  17  18
ENDBRANCH   5  17
TORSDOF 6
ENDMDL
MODEL 5
REMARK VINA RESULT:      -8.3      2.137      7.423
REMARK  Name = 
REMARK  7 active torsions:
REMARK  status: ('A' for Active; 'I' for Inactive)
REMARK    1  A    between atoms: C_1  and  C_2
REMARK    2  A    between atoms: C_5  and  O_6
REMARK    3  A    between atoms: O_6  and  C_7
REMARK    4  A    between atoms: C_7  and  C_9
REMARK    5  A    between atoms: C_9  and  O_10
REMARK    6  A    between atoms: O_10  and  C_11
REMARK    7  A    between atoms: C_17  and  N_18
REMARK                            x       y       z     vdW  Elec       q    Type
REMARK                         _______ _______ _______ _____ _____    ______ ____
ROOT
ATOM      1  C   UNL     1       6.094   3.528  12.869  0.00  0.00    +0.000 C 
ATOM      2  C   UNL     1       6.123   4.280  14.167  0.00  0.00    +0.000 A 
ATOM      3  C   UNL     1       7.204   5.116  14.486  0.00  0.00    +0.000 A 
ATOM      4  C   UNL     1       7.226   5.817  15.693  0.00  0.00    +0.000 A 
ATOM      5  C   UNL     1       6.194   5.640  16.617  0.00  0.00    +0.000 A 
ATOM      6  C   UNL     1       5.179   4.705  16.362  0.00  0.00    +0.000 A 
ATOM      7  C   UNL     1       5.092   4.097  15.103  0.00  0.00    +0.000 A 
ENDROOT
BRANCH   6   8
ATOM      8  N   UNL     1       4.311   4.290  17.397  0.00  0.00    +0.000 N 
ATOM      9  N   UNL     1       3.848   5.214  18.283  0.00  0.00    +0.000 NA
ATOM     10  C   UNL     1       2.858   4.554  18.885  0.00  0.00    +0.000 A 
ATOM     11  C   UNL     1       1.902   5.059  19.774  0.00  0.00    +0.000 A 
ATOM     12  C   UNL     1       0.939   4.120  20.173  0.00  0.00    +0.000 A 
ATOM     13  C   UNL     1       0.950   2.766  19.733  0.00  0.00    +0.000 A 
ATOM     14  C   UNL     1       1.927   2.232  18.867  0.00  0.00    +0.000 A 
ATOM     15  C   UNL     1       2.892   3.162  18.437  0.00  0.00    +0.000 A 
ATOM     16  N   UNL     1       3.946   3.010  17.616  0.00  0.00    +0.000 NA
ENDBRANCH   6   8
BRANCH   5  17
ATOM     17  O   UNL     1       6.255   6.501  17.741  0.00  0.00    +0.000 OA
BRANCH  17  18
ATOM     18  C   UNL     1       7.512   6.883  18.223  0.00  0.00    +0.000 C 
ATOM     19  O   UNL     1       8.181   6.284  19.064  0.00  0.00    +0.000 OA
BRANCH  18  20
ATOM     20  C   UNL     1       7.910   8.226  17.671  0.00  0.00    +0.000 C 
BRANCH  20  21
ATOM     21  O   UNL     1       8.586   8.767  18.806  0.00  0.00    +0.000 OA
BRANCH  21  22
ATOM     22  C   UNL     1       9.047  10.038  18.743  0.00  0.00    +0.000 A 
ATOM     23  C   UNL     1       9.926  10.365  19.780  0.00  0.00    +0.000 A 
ATOM     24  C   UNL     1      10.504  11.628  19.844  0.00  0.00    +0.000 A 
ATOM     25  C   UNL     1      10.219  12.562  18.853  0.00  0.00    +0.000 A 
ATOM     26  C   UNL     1       9.363  12.230  17.800  0.00  0.00    +0.000 A 
ATOM     27  C   UNL     1       8.774  10.961  17.742  0.00  0.00    +0.000 A 
ENDBRANCH  21  22
ENDBRANCH  20  21
ENDBRANCH  18  20
ENDBRANCH  17  18
ENDBRANCH   5  17
TORSDOF 6
ENDMDL
MODEL 6
REMARK VINA RESULT:      -8.1      2.314      7.467
REMARK  Name = 
REMARK  7 active torsions:
REMARK  status: ('A' for Active; 'I' for Inactive)
REMARK    1  A    between atoms: C_1  and  C_2
REMARK    2  A    between atoms: C_5  and  O_6
REMARK    3  A    between atoms: O_6  and  C_7
REMARK    4  A    between atoms: C_7  and  C_9
REMARK    5  A    between atoms: C_9  and  O_10
REMARK    6  A    between atoms: O_10  and  C_11
REMARK    7  A    between atoms: C_17  and  N_18
REMARK                            x       y       z     vdW  Elec       q    Type
REMARK                         _______ _______ _______ _____ _____    ______ ____
ROOT
ATOM      1  C   UNL     1       5.813   3.421  12.787  0.00  0.00    +0.000 C 
ATOM      2  C   UNL     1       6.046   4.087  14.112  0.00  0.00    +0.000 A 
ATOM      3  C   UNL     1       7.307   4.612  14.436  0.00  0.00    +0.000 A 
ATOM      4  C   UNL     1       7.520   5.234  15.668  0.00  0.00    +0.000 A 
ATOM      5  C   UNL     1       6.489   5.283  16.608  0.00  0.00    +0.000 A 
ATOM      6  C   UNL     1       5.268   4.643  16.342  0.00  0.00    +0.000 A 
ATOM      7  C   UNL     1       5.015   4.129  15.064  0.00  0.00    +0.000 A 
ENDROOT
BRANCH   6   8
ATOM      8  N   UNL     1       4.337   4.415  17.381  0.00  0.00    +0.000 N 
ATOM      9  N   UNL     1       4.191   3.154  17.872  0.00  0.00    +0.000 NA
ATOM     10  C   UNL     1       3.504   3.370  18.995  0.00  0.00    +0.000 A 
ATOM     11  C   UNL     1       3.209   2.455  20.013  0.00  0.00    +0.000 A 
ATOM     12  C   UNL     1       2.533   3.015  21.107  0.00  0.00    +0.000 A 
ATOM     13  C   UNL     1       2.156   4.386  21.164  0.00  0.00    +0.000 A 
ATOM     14  C   UNL     1       2.412   5.312  20.131  0.00  0.00    +0.000 A 
ATOM     15  C   UNL     1       3.109   4.778  19.032  0.00  0.00    +0.000 A 
ATOM     16  N   UNL     1       3.522   5.360  17.893  0.00  0.00    +0.000 NA
ENDBRANCH   6   8
BRANCH   5  17
ATOM     17  O   UNL     1       6.779   6.053  17.761  0.00  0.00    +0.000 OA
BRANCH  17  18
ATOM     18  C   UNL     1       6.989   7.429  17.612  0.00  0.00    +0.000 C 
ATOM     19  O   UNL     1       6.317   8.197  16.926  0.00  0.00    +0.000 OA
BRANCH  18  20
ATOM     20  C   UNL     1       8.254   7.853  18.311  0.00  0.00    +0.000 C 
BRANCH  20  21
ATOM     21  O   UNL     1       8.414   9.158  17.754  0.00  0.00    +0.000 OA
BRANCH  21  22
ATOM     22  C   UNL     1       8.893  10.147  18.545  0.00  0.00    +0.000 A 
ATOM     23  C   UNL     1       9.070  11.362  17.875  0.00  0.00    +0.000 A 
ATOM     24  C   UNL     1       9.536  12.482  18.554  0.00  0.00    +0.000 A 
ATOM     25  C   UNL     1       9.804  12.393  19.917  0.00  0.00    +0.000 A 
ATOM     26  C   UNL     1       9.600  11.190  20.596  0.00  0.00    +0.000 A 
ATOM     27  C   UNL     1       9.142  10.060  19.908  0.00  0.00    +0.000 A 
ENDBRANCH  21  22
ENDBRANCH  20  21
ENDBRANCH  18  20
ENDBRANCH  17  18
ENDBRANCH   5  17
TORSDOF 6
ENDMDL
MODEL 7
REMARK VINA RESULT:      -8.0      2.392      7.679
REMARK  Name = 
REMARK  7 active torsions:
REMARK  status: ('A' for Active; 'I' for Inactive)
REMARK    1  A    between atoms: C_1  and  C_2
REMARK    2  A    between atoms: C_5  and  O_6
REMARK    3  A    between atoms: O_6  and  C_7
REMARK    4  A    between atoms: C_7  and  C_9
REMARK    5  A    between atoms: C_9  and  O_10
REMARK    6  A    between atoms: O_10  and  C_11
REMARK    7  A    between atoms: C_17  and  N_18
REMARK                            x       y       z     vdW  Elec       q    Type
REMARK                         _______ _______ _______ _____ _____    ______ ____
ROOT
ATOM      1  C   UNL     1       5.594   3.382  13.286  0.00  0.00    +0.000 C 
ATOM      2  C   UNL     1       5.788   4.292  14.464  0.00  0.00    +0.000 A 
ATOM      3  C   UNL     1       6.873   5.181  14.510  0.00  0.00    +0.000 A 
ATOM      4  C   UNL     1       7.048   6.029  15.605  0.00  0.00    +0.000 A 
ATOM      5  C   UNL     1       6.172   5.951  16.690  0.00  0.00    +0.000 A 
ATOM      6  C   UNL     1       5.166   4.973  16.708  0.00  0.00    +0.000 A 
ATOM      7  C   UNL     1       4.916   4.209  15.561  0.00  0.00    +0.000 A 
ENDROOT
BRANCH   6   8
ATOM      8  N   UNL     1       4.478   4.675  17.906  0.00  0.00    +0.000 N 
ATOM      9  N   UNL     1       3.323   5.338  18.188  0.00  0.00    +0.000 NA
ATOM     10  C   UNL     1       2.814   4.606  19.180  0.00  0.00    +0.000 A 
ATOM     11  C   UNL     1       1.546   4.708  19.763  0.00  0.00    +0.000 A 
ATOM     12  C   UNL     1       1.284   3.734  20.737  0.00  0.00    +0.000 A 
ATOM     13  C   UNL     1       2.235   2.747  21.121  0.00  0.00    +0.000 A 
ATOM     14  C   UNL     1       3.532   2.655  20.571  0.00  0.00    +0.000 A 
ATOM     15  C   UNL     1       3.809   3.609  19.575  0.00  0.00    +0.000 A 
ATOM     16  N   UNL     1       4.918   3.808  18.841  0.00  0.00    +0.000 NA
ENDBRANCH   6   8
BRANCH   5  17
ATOM     17  O   UNL     1       6.368   6.947  17.679  0.00  0.00    +0.000 OA
BRANCH  17  18
ATOM     18  C   UNL     1       7.668   7.189  18.137  0.00  0.00    +0.000 C 
ATOM     19  O   UNL     1       8.297   6.498  18.937  0.00  0.00    +0.000 OA
BRANCH  18  20
ATOM     20  C   UNL     1       8.179   8.507  17.618  0.00  0.00    +0.000 C 
BRANCH  20  21
ATOM     21  O   UNL     1       8.257   9.237  18.842  0.00  0.00    +0.000 OA
BRANCH  21  22
ATOM     22  C   UNL     1       9.077  10.312  18.906  0.00  0.00    +0.000 A 
ATOM     23  C   UNL     1       8.781  11.299  17.960  0.00  0.00    +0.000 A 
ATOM     24  C   UNL     1       9.520  12.476  17.911  0.00  0.00    +0.000 A 
ATOM     25  C   UNL     1      10.547  12.677  18.829  0.00  0.00    +0.000 A 
ATOM     26  C   UNL     1      10.827  11.706  19.793  0.00  0.00    +0.000 A 
ATOM     27  C   UNL     1      10.090  10.517  19.834  0.00  0.00    +0.000 A 
ENDBRANCH  21  22
ENDBRANCH  20  21
ENDBRANCH  18  20
ENDBRANCH  17  18
ENDBRANCH   5  17
TORSDOF 6
ENDMDL
MODEL 8
REMARK VINA RESULT:      -8.0      3.158      7.443
REMARK  Name = 
REMARK  7 active torsions:
REMARK  status: ('A' for Active; 'I' for Inactive)
REMARK    1  A    between atoms: C_1  and  C_2
REMARK    2  A    between atoms: C_5  and  O_6
REMARK    3  A    between atoms: O_6  and  C_7
REMARK    4  A    between atoms: C_7  and  C_9
REMARK    5  A    between atoms: C_9  and  O_10
REMARK    6  A    between atoms: O_10  and  C_11
REMARK    7  A    between atoms: C_17  and  N_18
REMARK                            x       y       z     vdW  Elec       q    Type
REMARK                         _______ _______ _______ _____ _____    ______ ____
ROOT
ATOM      1  C   UNL     1       0.917   1.842  18.611  0.00  0.00    +0.000 C 
ATOM      2  C   UNL     1       2.045   2.833  18.642  0.00  0.00    +0.000 A 
ATOM      3  C   UNL     1       3.375   2.400  18.752  0.00  0.00    +0.000 A 
ATOM      4  C   UNL     1       4.421   3.324  18.776  0.00  0.00    +0.000 A 
ATOM      5  C   UNL     1       4.140   4.691  18.750  0.00  0.00    +0.000 A 
ATOM      6  C   UNL     1       2.807   5.133  18.775  0.00  0.00    +0.000 A 
ATOM      7  C   UNL     1       1.765   4.209  18.626  0.00  0.00    +0.000 A 
ENDROOT
BRANCH   6   8
ATOM      8  N   UNL     1       2.505   6.484  19.058  0.00  0.00    +0.000 N 
ATOM      9  N   UNL     1       2.499   7.388  18.040  0.00  0.00    +0.000 NA
ATOM     10  C   UNL     1       1.889   8.434  18.599  0.00  0.00    +0.000 A 
ATOM     11  C   UNL     1       1.445   9.606  17.974  0.00  0.00    +0.000 A 
ATOM     12  C   UNL     1       0.767  10.487  18.828  0.00  0.00    +0.000 A 
ATOM     13  C   UNL     1       0.572  10.226  20.214  0.00  0.00    +0.000 A 
ATOM     14  C   UNL     1       1.046   9.068  20.866  0.00  0.00    +0.000 A 
ATOM     15  C   UNL     1       1.712   8.158  20.024  0.00  0.00    +0.000 A 
ATOM     16  N   UNL     1       2.276   6.969  20.296  0.00  0.00    +0.000 NA
ENDBRANCH   6   8
BRANCH   5  17
ATOM     17  O   UNL     1       5.280   5.526  18.644  0.00  0.00    +0.000 OA
BRANCH  17  18
ATOM     18  C   UNL     1       5.497   6.211  17.443  0.00  0.00    +0.000 C 
ATOM     19  O   UNL     1       5.892   7.371  17.328  0.00  0.00    +0.000 OA
BRANCH  18  20
ATOM     20  C   UNL     1       5.057   5.379  16.267  0.00  0.00    +0.000 C 
BRANCH  20  21
ATOM     21  O   UNL     1       6.324   4.897  15.821  0.00  0.00    +0.000 OA
BRANCH  21  22
ATOM     22  C   UNL     1       6.475   4.583  14.513  0.00  0.00    +0.000 A 
ATOM     23  C   UNL     1       7.489   5.307  13.878  0.00  0.00    +0.000 A 
ATOM     24  C   UNL     1       7.784   5.084  12.537  0.00  0.00    +0.000 A 
ATOM     25  C   UNL     1       7.074   4.115  11.834  0.00  0.00    +0.000 A 
ATOM     26  C   UNL     1       6.081   3.369  12.472  0.00  0.00    +0.000 A 
ATOM     27  C   UNL     1       5.778   3.602  13.819  0.00  0.00    +0.000 A 
ENDBRANCH  21  22
ENDBRANCH  20  21
ENDBRANCH  18  20
ENDBRANCH  17  18
ENDBRANCH   5  17
TORSDOF 6
ENDMDL
MODEL 9
REMARK VINA RESULT:      -7.9      3.306      7.497
REMARK  Name = 
REMARK  7 active torsions:
REMARK  status: ('A' for Active; 'I' for Inactive)
REMARK    1  A    between atoms: C_1  and  C_2
REMARK    2  A    between atoms: C_5  and  O_6
REMARK    3  A    between atoms: O_6  and  C_7
REMARK    4  A    between atoms: C_7  and  C_9
REMARK    5  A    between atoms: C_9  and  O_10
REMARK    6  A    between atoms: O_10  and  C_11
REMARK    7  A    between atoms: C_17  and  N_18
REMARK                            x       y       z     vdW  Elec       q    Type
REMARK                         _______ _______ _______ _____ _____    ______ ____
ROOT
ATOM      1  C   UNL     1       1.747   2.234  21.989  0.00  0.00    +0.000 C 
ATOM      2  C   UNL     1       2.388   3.052  20.906  0.00  0.00    +0.000 A 
ATOM      3  C   UNL     1       3.483   2.552  20.185  0.00  0.00    +0.000 A 
ATOM      4  C   UNL     1       4.075   3.314  19.176  0.00  0.00    +0.000 A 
ATOM      5  C   UNL     1       3.613   4.607  18.922  0.00  0.00    +0.000 A 
ATOM      6  C   UNL     1       2.607   5.162  19.728  0.00  0.00    +0.000 A 
ATOM      7  C   UNL     1       1.933   4.356  20.655  0.00  0.00    +0.000 A 
ENDROOT
BRANCH   6   8
ATOM      8  N   UNL     1       2.345   6.550  19.692  0.00  0.00    +0.000 N 
ATOM      9  N   UNL     1       2.618   7.246  18.554  0.00  0.00    +0.000 NA
ATOM     10  C   UNL     1       1.976   8.395  18.768  0.00  0.00    +0.000 A 
ATOM     11  C   UNL     1       1.757   9.440  17.862  0.00  0.00    +0.000 A 
ATOM     12  C   UNL     1       0.973  10.485  18.373  0.00  0.00    +0.000 A 
ATOM     13  C   UNL     1       0.470  10.495  19.705  0.00  0.00    +0.000 A 
ATOM     14  C   UNL     1       0.714   9.468  20.641  0.00  0.00    +0.000 A 
ATOM     15  C   UNL     1       1.480   8.398  20.144  0.00  0.00    +0.000 A 
ATOM     16  N   UNL     1       1.890   7.266  20.742  0.00  0.00    +0.000 NA
ENDBRANCH   6   8
BRANCH   5  17
ATOM     17  O   UNL     1       4.198   5.231  17.792  0.00  0.00    +0.000 OA
BRANCH  17  18
ATOM     18  C   UNL     1       5.592   5.336  17.733  0.00  0.00    +0.000 C 
ATOM     19  O   UNL     1       6.285   6.161  18.327  0.00  0.00    +0.000 OA
BRANCH  18  20
ATOM     20  C   UNL     1       6.157   4.372  16.724  0.00  0.00    +0.000 C 
BRANCH  20  21
ATOM     21  O   UNL     1       6.659   5.295  15.758  0.00  0.00    +0.000 OA
BRANCH  21  22
ATOM     22  C   UNL     1       6.805   4.881  14.478  0.00  0.00    +0.000 A 
ATOM     23  C   UNL     1       5.902   3.878  14.108  0.00  0.00    +0.000 A 
ATOM     24  C   UNL     1       5.909   3.361  12.818  0.00  0.00    +0.000 A 
ATOM     25  C   UNL     1       6.810   3.866  11.884  0.00  0.00    +0.000 A 
ATOM     26  C   UNL     1       7.694   4.886  12.241  0.00  0.00    +0.000 A 
ATOM     27  C   UNL     1       7.693   5.398  13.544  0.00  0.00    +0.000 A 
ENDBRANCH  21  22
ENDBRANCH  20  21
ENDBRANCH  18  20
ENDBRANCH  17  18
ENDBRANCH   5  17
TORSDOF 6
ENDMDL
