MODEL 1
REMARK VINA RESULT:      -5.9      0.000      0.000
REMARK  Name = 
REMARK  4 active torsions:
REMARK  status: ('A' for Active; 'I' for Inactive)
REMARK    1  A    between atoms: C_1  and  C_2
REMARK    2  A    between atoms: N_4  and  C_5
REMARK    3  A    between atoms: C_5  and  C_6
REMARK    4  A    between atoms: C_5  and  C_7
REMARK                            x       y       z     vdW  Elec       q    Type
REMARK                         _______ _______ _______ _____ _____    ______ ____
ROOT
ATOM      1  C   UNL     1       3.798   5.713  18.295  0.00  0.00    +0.000 C 
ATOM      2  C   UNL     1       3.240   7.095  17.961  0.00  0.00    +0.000 C 
ENDROOT
BRANCH   1   6
ATOM      3  C   UNL     1       6.017   3.875  15.761  0.00  0.00    +0.000 C 
ATOM      4  C   UNL     1       5.530   4.390  17.095  0.00  0.00    +0.000 C 
ATOM      5  N   UNL     1       6.195   4.135  18.173  0.00  0.00    +0.000 NA
ATOM      6  N   UNL     1       4.365   5.102  17.103  0.00  0.00    +0.000 N 
ATOM      7  H   UNL     1       7.029   3.578  17.965  0.00  0.00    +0.000 HD
ATOM      8  H   UNL     1       3.970   5.396  16.221  0.00  0.00    +0.000 HD
ENDBRANCH   1   6
BRANCH   1   9
ATOM      9  C   UNL     1       2.732   4.797  18.880  0.00  0.00    +0.000 A 
ATOM     10  C   UNL     1       2.091   3.861  18.052  0.00  0.00    +0.000 A 
ATOM     11  C   UNL     1       1.117   3.000  18.562  0.00  0.00    +0.000 A 
ATOM     12  C   UNL     1       0.763   3.066  19.906  0.00  0.00    +0.000 A 
ATOM     13  C   UNL     1       1.384   3.990  20.743  0.00  0.00    +0.000 A 
ATOM     14  C   UNL     1       2.363   4.848  20.236  0.00  0.00    +0.000 A 
ENDBRANCH   1   9
TORSDOF 2
ENDMDL
MODEL 2
REMARK VINA RESULT:      -5.9      0.061      1.393
REMARK  Name = 
REMARK  4 active torsions:
REMARK  status: ('A' for Active; 'I' for Inactive)
REMARK    1  A    between atoms: C_1  and  C_2
REMARK    2  A    between atoms: N_4  and  C_5
REMARK    3  A    between atoms: C_5  and  C_6
REMARK    4  A    between atoms: C_5  and  C_7
REMARK                            x       y       z     vdW  Elec       q    Type
REMARK                         _______ _______ _______ _____ _____    ______ ____
ROOT
ATOM      1  C   UNL     1       3.781   5.764  18.281  0.00  0.00    +0.000 C 
ATOM      2  C   UNL     1       3.194   7.135  17.947  0.00  0.00    +0.000 C 
ENDROOT
BRANCH   1   6
ATOM      3  C   UNL     1       6.069   3.948  15.794  0.00  0.00    +0.000 C 
ATOM      4  C   UNL     1       5.530   4.429  17.120  0.00  0.00    +0.000 C 
ATOM      5  N   UNL     1       6.130   4.112  18.219  0.00  0.00    +0.000 NA
ATOM      6  N   UNL     1       4.389   5.179  17.097  0.00  0.00    +0.000 N 
ATOM      7  H   UNL     1       6.956   3.535  18.032  0.00  0.00    +0.000 HD
ATOM      8  H   UNL     1       4.050   5.518  16.208  0.00  0.00    +0.000 HD
ENDBRANCH   1   6
BRANCH   1   9
ATOM      9  C   UNL     1       2.727   4.815  18.836  0.00  0.00    +0.000 A 
ATOM     10  C   UNL     1       2.397   4.868  20.200  0.00  0.00    +0.000 A 
ATOM     11  C   UNL     1       1.427   4.019  20.737  0.00  0.00    +0.000 A 
ATOM     12  C   UNL     1       0.776   3.099  19.920  0.00  0.00    +0.000 A 
ATOM     13  C   UNL     1       1.091   3.029  18.565  0.00  0.00    +0.000 A 
ATOM     14  C   UNL     1       2.057   3.882  18.025  0.00  0.00    +0.000 A 
ENDBRANCH   1   9
TORSDOF 2
ENDMDL
MODEL 3
REMARK VINA RESULT:      -5.9      1.669      2.167
REMARK  Name = 
REMARK  4 active torsions:
REMARK  status: ('A' for Active; 'I' for Inactive)
REMARK    1  A    between atoms: C_1  and  C_2
REMARK    2  A    between atoms: N_4  and  C_5
REMARK    3  A    between atoms: C_5  and  C_6
REMARK    4  A    between atoms: C_5  and  C_7
REMARK                            x       y       z     vdW  Elec       q    Type
REMARK                         _______ _______ _______ _____ _____    ______ ____
ROOT
ATOM      1  C   UNL     1       4.827   5.424  17.180  0.00  0.00    +0.000 C 
ATOM      2  C   UNL     1       4.336   6.865  17.311  0.00  0.00    +0.000 C 
ENDROOT
BRANCH   1   6
ATOM      3  C   UNL     1       6.923   4.724  14.044  0.00  0.00    +0.000 C 
ATOM      4  C   UNL     1       6.590   4.892  15.508  0.00  0.00    +0.000 C 
ATOM      5  N   UNL     1       7.508   4.746  16.405  0.00  0.00    +0.000 NA
ATOM      6  N   UNL     1       5.292   5.176  15.826  0.00  0.00    +0.000 N 
ATOM      7  H   UNL     1       8.409   4.522  15.972  0.00  0.00    +0.000 HD
ATOM      8  H   UNL     1       4.654   5.424  15.083  0.00  0.00    +0.000 HD
ENDBRANCH   1   6
BRANCH   1   9
ATOM      9  C   UNL     1       3.740   4.420  17.539  0.00  0.00    +0.000 A 
ATOM     10  C   UNL     1       2.443   4.877  17.827  0.00  0.00    +0.000 A 
ATOM     11  C   UNL     1       1.422   3.980  18.149  0.00  0.00    +0.000 A 
ATOM     12  C   UNL     1       1.682   2.614  18.196  0.00  0.00    +0.000 A 
ATOM     13  C   UNL     1       2.963   2.142  17.917  0.00  0.00    +0.000 A 
ATOM     14  C   UNL     1       3.984   3.037  17.589  0.00  0.00    +0.000 A 
ENDBRANCH   1   9
TORSDOF 2
ENDMDL
MODEL 4
REMARK VINA RESULT:      -5.9      1.655      2.017
REMARK  Name = 
REMARK  4 active torsions:
REMARK  status: ('A' for Active; 'I' for Inactive)
REMARK    1  A    between atoms: C_1  and  C_2
REMARK    2  A    between atoms: N_4  and  C_5
REMARK    3  A    between atoms: C_5  and  C_6
REMARK    4  A    between atoms: C_5  and  C_7
REMARK                            x       y       z     vdW  Elec       q    Type
REMARK                         _______ _______ _______ _____ _____    ______ ____
ROOT
ATOM      1  C   UNL     1       4.785   5.070  17.088  0.00  0.00    +0.000 C 
ATOM      2  C   UNL     1       4.438   6.556  17.175  0.00  0.00    +0.000 C 
ENDROOT
BRANCH   1   6
ATOM      3  C   UNL     1       6.641   4.292  13.821  0.00  0.00    +0.000 C 
ATOM      4  C   UNL     1       6.434   4.596  15.286  0.00  0.00    +0.000 C 
ATOM      5  N   UNL     1       7.449   4.709  16.077  0.00  0.00    +0.000 NA
ATOM      6  N   UNL     1       5.146   4.721  15.724  0.00  0.00    +0.000 N 
ATOM      7  H   UNL     1       8.327   4.569  15.567  0.00  0.00    +0.000 HD
ATOM      8  H   UNL     1       4.404   4.772  15.039  0.00  0.00    +0.000 HD
ENDBRANCH   1   6
BRANCH   1   9
ATOM      9  C   UNL     1       3.633   4.190  17.552  0.00  0.00    +0.000 A 
ATOM     10  C   UNL     1       3.834   2.808  17.704  0.00  0.00    +0.000 A 
ATOM     11  C   UNL     1       2.800   1.976  18.138  0.00  0.00    +0.000 A 
ATOM     12  C   UNL     1       1.547   2.511  18.422  0.00  0.00    +0.000 A 
ATOM     13  C   UNL     1       1.326   3.879  18.275  0.00  0.00    +0.000 A 
ATOM     14  C   UNL     1       2.362   4.713  17.846  0.00  0.00    +0.000 A 
ENDBRANCH   1   9
TORSDOF 2
ENDMDL
MODEL 5
REMARK VINA RESULT:      -5.9      1.690      2.091
REMARK  Name = 
REMARK  4 active torsions:
REMARK  status: ('A' for Active; 'I' for Inactive)
REMARK    1  A    between atoms: C_1  and  C_2
REMARK    2  A    between atoms: N_4  and  C_5
REMARK    3  A    between atoms: C_5  and  C_6
REMARK    4  A    between atoms: C_5  and  C_7
REMARK                            x       y       z     vdW  Elec       q    Type
REMARK                         _______ _______ _______ _____ _____    ______ ____
ROOT
ATOM      1  C   UNL     1       5.275   4.130  18.264  0.00  0.00    +0.000 C 
ATOM      2  C   UNL     1       5.555   5.335  19.160  0.00  0.00    +0.000 C 
ENDROOT
BRANCH   1   6
ATOM      3  C   UNL     1       7.044   4.900  14.948  0.00  0.00    +0.000 C 
ATOM      4  C   UNL     1       6.872   4.488  16.391  0.00  0.00    +0.000 C 
ATOM      5  N   UNL     1       7.902   4.170  17.103  0.00  0.00    +0.000 NA
ATOM      6  N   UNL     1       5.599   4.448  16.883  0.00  0.00    +0.000 N 
ATOM      7  H   UNL     1       8.764   4.248  16.555  0.00  0.00    +0.000 HD
ATOM      8  H   UNL     1       4.853   4.848  16.331  0.00  0.00    +0.000 HD
ENDBRANCH   1   6
BRANCH   1   9
ATOM      9  C   UNL     1       3.824   3.679  18.357  0.00  0.00    +0.000 A 
ATOM     10  C   UNL     1       3.507   2.510  19.069  0.00  0.00    +0.000 A 
ATOM     11  C   UNL     1       2.184   2.076  19.182  0.00  0.00    +0.000 A 
ATOM     12  C   UNL     1       1.159   2.798  18.579  0.00  0.00    +0.000 A 
ATOM     13  C   UNL     1       1.454   3.958  17.866  0.00  0.00    +0.000 A 
ATOM     14  C   UNL     1       2.776   4.397  17.757  0.00  0.00    +0.000 A 
ENDBRANCH   1   9
TORSDOF 2
ENDMDL
MODEL 6
REMARK VINA RESULT:      -5.9      1.017      1.017
REMARK  Name = 
REMARK  4 active torsions:
REMARK  status: ('A' for Active; 'I' for Inactive)
REMARK    1  A    between atoms: C_1  and  C_2
REMARK    2  A    between atoms: N_4  and  C_5
REMARK    3  A    between atoms: C_5  and  C_6
REMARK    4  A    between atoms: C_5  and  C_7
REMARK                            x       y       z     vdW  Elec       q    Type
REMARK                         _______ _______ _______ _____ _____    ______ ____
ROOT
ATOM      1  C   UNL     1       3.786   5.975  18.684  0.00  0.00    +0.000 C 
ATOM      2  C   UNL     1       3.179   7.171  17.952  0.00  0.00    +0.000 C 
ENDROOT
BRANCH   1   6
ATOM      3  C   UNL     1       7.123   4.574  17.410  0.00  0.00    +0.000 C 
ATOM      4  C   UNL     1       6.101   5.114  18.382  0.00  0.00    +0.000 C 
ATOM      5  N   UNL     1       6.408   5.276  19.626  0.00  0.00    +0.000 NA
ATOM      6  N   UNL     1       4.858   5.395  17.891  0.00  0.00    +0.000 N 
ATOM      7  H   UNL     1       7.377   4.997  19.803  0.00  0.00    +0.000 HD
ATOM      8  H   UNL     1       4.720   5.391  16.890  0.00  0.00    +0.000 HD
ENDBRANCH   1   6
BRANCH   1   9
ATOM      9  C   UNL     1       2.743   4.909  18.991  0.00  0.00    +0.000 A 
ATOM     10  C   UNL     1       2.448   3.930  18.027  0.00  0.00    +0.000 A 
ATOM     11  C   UNL     1       1.504   2.934  18.282  0.00  0.00    +0.000 A 
ATOM     12  C   UNL     1       0.835   2.903  19.501  0.00  0.00    +0.000 A 
ATOM     13  C   UNL     1       1.110   3.867  20.469  0.00  0.00    +0.000 A 
ATOM     14  C   UNL     1       2.059   4.861  20.217  0.00  0.00    +0.000 A 
ENDBRANCH   1   9
TORSDOF 2
ENDMDL
MODEL 7
REMARK VINA RESULT:      -5.9      1.140      1.783
REMARK  Name = 
REMARK  4 active torsions:
REMARK  status: ('A' for Active; 'I' for Inactive)
REMARK    1  A    between atoms: C_1  and  C_2
REMARK    2  A    between atoms: N_4  and  C_5
REMARK    3  A    between atoms: C_5  and  C_6
REMARK    4  A    between atoms: C_5  and  C_7
REMARK                            x       y       z     vdW  Elec       q    Type
REMARK                         _______ _______ _______ _____ _____    ______ ____
ROOT
ATOM      1  C   UNL     1       3.976   5.688  18.689  0.00  0.00    +0.000 C 
ATOM      2  C   UNL     1       3.419   6.930  17.994  0.00  0.00    +0.000 C 
ENDROOT
BRANCH   1   6
ATOM      3  C   UNL     1       7.457   4.563  17.532  0.00  0.00    +0.000 C 
ATOM      4  C   UNL     1       6.373   5.065  18.456  0.00  0.00    +0.000 C 
ATOM      5  N   UNL     1       6.651   5.360  19.683  0.00  0.00    +0.000 NA
ATOM      6  N   UNL     1       5.111   5.166  17.945  0.00  0.00    +0.000 N 
ATOM      7  H   UNL     1       7.644   5.204  19.881  0.00  0.00    +0.000 HD
ATOM      8  H   UNL     1       4.983   5.067  16.948  0.00  0.00    +0.000 HD
ENDBRANCH   1   6
BRANCH   1   9
ATOM      9  C   UNL     1       2.921   4.601  18.839  0.00  0.00    +0.000 A 
ATOM     10  C   UNL     1       1.969   4.697  19.867  0.00  0.00    +0.000 A 
ATOM     11  C   UNL     1       0.982   3.721  20.025  0.00  0.00    +0.000 A 
ATOM     12  C   UNL     1       0.935   2.631  19.161  0.00  0.00    +0.000 A 
ATOM     13  C   UNL     1       1.872   2.516  18.137  0.00  0.00    +0.000 A 
ATOM     14  C   UNL     1       2.857   3.494  17.974  0.00  0.00    +0.000 A 
ENDBRANCH   1   9
TORSDOF 2
ENDMDL
MODEL 8
REMARK VINA RESULT:      -5.8      1.683      1.949
REMARK  Name = 
REMARK  4 active torsions:
REMARK  status: ('A' for Active; 'I' for Inactive)
REMARK    1  A    between atoms: C_1  and  C_2
REMARK    2  A    between atoms: N_4  and  C_5
REMARK    3  A    between atoms: C_5  and  C_6
REMARK    4  A    between atoms: C_5  and  C_7
REMARK                            x       y       z     vdW  Elec       q    Type
REMARK                         _______ _______ _______ _____ _____    ______ ____
ROOT
ATOM      1  C   UNL     1       5.345   4.178  18.316  0.00  0.00    +0.000 C 
ATOM      2  C   UNL     1       5.635   5.406  19.178  0.00  0.00    +0.000 C 
ENDROOT
BRANCH   1   6
ATOM      3  C   UNL     1       7.030   4.866  14.939  0.00  0.00    +0.000 C 
ATOM      4  C   UNL     1       6.893   4.482  16.393  0.00  0.00    +0.000 C 
ATOM      5  N   UNL     1       7.939   4.166  17.083  0.00  0.00    +0.000 NA
ATOM      6  N   UNL     1       5.634   4.467  16.921  0.00  0.00    +0.000 N 
ATOM      7  H   UNL     1       8.786   4.223  16.510  0.00  0.00    +0.000 HD
ATOM      8  H   UNL     1       4.878   4.865  16.382  0.00  0.00    +0.000 HD
ENDBRANCH   1   6
BRANCH   1   9
ATOM      9  C   UNL     1       3.900   3.718  18.453  0.00  0.00    +0.000 A 
ATOM     10  C   UNL     1       2.899   4.341  17.689  0.00  0.00    +0.000 A 
ATOM     11  C   UNL     1       1.567   3.934  17.784  0.00  0.00    +0.000 A 
ATOM     12  C   UNL     1       1.212   2.905  18.650  0.00  0.00    +0.000 A 
ATOM     13  C   UNL     1       2.189   2.277  19.420  0.00  0.00    +0.000 A 
ATOM     14  C   UNL     1       3.524   2.678  19.320  0.00  0.00    +0.000 A 
ENDBRANCH   1   9
TORSDOF 2
ENDMDL
MODEL 9
REMARK VINA RESULT:      -5.7      2.313      5.190
REMARK  Name = 
REMARK  4 active torsions:
REMARK  status: ('A' for Active; 'I' for Inactive)
REMARK    1  A    between atoms: C_1  and  C_2
REMARK    2  A    between atoms: N_4  and  C_5
REMARK    3  A    between atoms: C_5  and  C_6
REMARK    4  A    between atoms: C_5  and  C_7
REMARK                            x       y       z     vdW  Elec       q    Type
REMARK                         _______ _______ _______ _____ _____    ______ ____
ROOT
ATOM      1  C   UNL     1       5.844   4.078  16.279  0.00  0.00    +0.000 C 
ATOM      2  C   UNL     1       6.111   4.223  14.782  0.00  0.00    +0.000 C 
ENDROOT
BRANCH   1   6
ATOM      3  C   UNL     1       2.239   3.658  17.520  0.00  0.00    +0.000 C 
ATOM      4  C   UNL     1       3.724   3.414  17.398  0.00  0.00    +0.000 C 
ATOM      5  N   UNL     1       4.290   2.483  18.093  0.00  0.00    +0.000 NA
ATOM      6  N   UNL     1       4.424   4.224  16.551  0.00  0.00    +0.000 N 
ATOM      7  H   UNL     1       3.604   1.996  18.678  0.00  0.00    +0.000 HD
ATOM      8  H   UNL     1       3.911   4.830  15.926  0.00  0.00    +0.000 HD
ENDBRANCH   1   6
BRANCH   1   9
ATOM      9  C   UNL     1       6.628   5.096  17.096  0.00  0.00    +0.000 A 
ATOM     10  C   UNL     1       6.727   6.422  16.640  0.00  0.00    +0.000 A 
ATOM     11  C   UNL     1       7.429   7.381  17.372  0.00  0.00    +0.000 A 
ATOM     12  C   UNL     1       8.051   7.031  18.566  0.00  0.00    +0.000 A 
ATOM     13  C   UNL     1       7.967   5.720  19.034  0.00  0.00    +0.000 A 
ATOM     14  C   UNL     1       7.259   4.761  18.306  0.00  0.00    +0.000 A 
ENDBRANCH   1   9
TORSDOF 2
ENDMDL
