MODEL 1
REMARK VINA RESULT:      -8.3      0.000      0.000
REMARK  Name = 
REMARK  6 active torsions:
REMARK  status: ('A' for Active; 'I' for Inactive)
REMARK    1  A    between atoms: C_1  and  O_2
REMARK    2  A    between atoms: O_2  and  C_3
REMARK    3  A    between atoms: C_6  and  N_7
REMARK    4  A    between atoms: C_9  and  C_10
REMARK    5  A    between atoms: C_13  and  C_14
REMARK    6  A    between atoms: N_23  and  C_24
REMARK                            x       y       z     vdW  Elec       q    Type
REMARK                         _______ _______ _______ _____ _____    ______ ____
ROOT
ATOM      1  N   UNL     1      -0.802  11.940  21.048  0.00  0.00    +0.000 N 
ATOM      2  N   UNL     1      -0.385  10.632  21.005  0.00  0.00    +0.000 NA
ATOM      3  C   UNL     1       0.560  10.687  20.080  0.00  0.00    +0.000 A 
ATOM      4  N   UNL     1       0.847  11.888  19.589  0.00  0.00    +0.000 NA
ATOM      5  N   UNL     1      -0.034  12.683  20.288  0.00  0.00    +0.000 N 
ENDROOT
BRANCH   5   6
ATOM      6  C   UNL     1       0.036  14.141  20.221  0.00  0.00    +0.000 A 
ATOM      7  C   UNL     1      -0.331  14.775  19.033  0.00  0.00    +0.000 A 
ATOM      8  C   UNL     1      -0.326  16.174  18.981  0.00  0.00    +0.000 A 
ATOM      9  C   UNL     1       0.057  16.913  20.101  0.00  0.00    +0.000 A 
ATOM     10 CL   UNL     1       0.025  18.630  20.043  0.00  0.00    +0.000 Cl
ATOM     11  C   UNL     1       0.464  16.269  21.269  0.00  0.00    +0.000 A 
ATOM     12  C   UNL     1       0.475  14.874  21.326  0.00  0.00    +0.000 A 
ENDBRANCH   5   6
BRANCH   1  16
ATOM     13  C   UNL     1      -4.454  12.813  22.977  0.00  0.00    +0.000 A 
ATOM     14  C   UNL     1      -3.346  12.366  23.707  0.00  0.00    +0.000 A 
ATOM     15  C   UNL     1      -2.139  12.092  23.078  0.00  0.00    +0.000 A 
ATOM     16  C   UNL     1      -2.057  12.279  21.707  0.00  0.00    +0.000 A 
ATOM     17  C   UNL     1      -3.154  12.702  20.950  0.00  0.00    +0.000 A 
ATOM     18  C   UNL     1      -4.359  12.983  21.598  0.00  0.00    +0.000 A 
BRANCH  13  20
ATOM     19  C   UNL     1      -6.462  14.035  23.375  0.00  0.00    +0.000 C 
ATOM     20  O   UNL     1      -5.582  12.979  23.714  0.00  0.00    +0.000 OA
ENDBRANCH  13  20
ENDBRANCH   1  16
BRANCH   3  21
ATOM     21  C   UNL     1       1.204   9.472  19.578  0.00  0.00    +0.000 A 
ATOM     22  C   UNL     1       1.447   8.377  20.422  0.00  0.00    +0.000 A 
ATOM     23  C   UNL     1       2.043   7.205  19.930  0.00  0.00    +0.000 A 
ATOM     24  C   UNL     1       2.410   7.074  18.580  0.00  0.00    +0.000 A 
ATOM     25  C   UNL     1       2.160   8.177  17.747  0.00  0.00    +0.000 A 
ATOM     26  C   UNL     1       1.579   9.358  18.233  0.00  0.00    +0.000 A 
BRANCH  24  27
ATOM     27  C   UNL     1       3.016   5.827  18.051  0.00  0.00    +0.000 A 
ATOM     28  C   UNL     1       4.392   5.733  17.772  0.00  0.00    +0.000 A 
ATOM     29  C   UNL     1       4.963   4.552  17.285  0.00  0.00    +0.000 A 
ATOM     30  C   UNL     1       4.170   3.428  17.078  0.00  0.00    +0.000 A 
ATOM     31  C   UNL     1       2.808   3.489  17.345  0.00  0.00    +0.000 A 
ATOM     32  C   UNL     1       2.240   4.677  17.817  0.00  0.00    +0.000 A 
ENDBRANCH  24  27
ENDBRANCH   3  21
TORSDOF 5
ENDMDL
MODEL 2
REMARK VINA RESULT:      -8.3      0.330      1.250
REMARK  Name = 
REMARK  6 active torsions:
REMARK  status: ('A' for Active; 'I' for Inactive)
REMARK    1  A    between atoms: C_1  and  O_2
REMARK    2  A    between atoms: O_2  and  C_3
REMARK    3  A    between atoms: C_6  and  N_7
REMARK    4  A    between atoms: C_9  and  C_10
REMARK    5  A    between atoms: C_13  and  C_14
REMARK    6  A    between atoms: N_23  and  C_24
REMARK                            x       y       z     vdW  Elec       q    Type
REMARK                         _______ _______ _______ _____ _____    ______ ____
ROOT
ATOM      1  N   UNL     1      -0.857  11.936  20.962  0.00  0.00    +0.000 N 
ATOM      2  N   UNL     1      -0.458  10.623  20.915  0.00  0.00    +0.000 NA
ATOM      3  C   UNL     1       0.539  10.681  20.048  0.00  0.00    +0.000 A 
ATOM      4  N   UNL     1       0.873  11.886  19.600  0.00  0.00    +0.000 NA
ATOM      5  N   UNL     1      -0.034  12.681  20.264  0.00  0.00    +0.000 N 
ENDROOT
BRANCH   5   6
ATOM      6  C   UNL     1       0.062  14.140  20.232  0.00  0.00    +0.000 A 
ATOM      7  C   UNL     1      -0.284  14.808  19.057  0.00  0.00    +0.000 A 
ATOM      8  C   UNL     1      -0.254  16.207  19.038  0.00  0.00    +0.000 A 
ATOM      9  C   UNL     1       0.134  16.913  20.179  0.00  0.00    +0.000 A 
ATOM     10 CL   UNL     1       0.133  18.631  20.162  0.00  0.00    +0.000 Cl
ATOM     11  C   UNL     1       0.519  16.234  21.334  0.00  0.00    +0.000 A 
ATOM     12  C   UNL     1       0.505  14.838  21.358  0.00  0.00    +0.000 A 
ENDBRANCH   5   6
BRANCH   1  16
ATOM     13  C   UNL     1      -4.560  13.050  22.656  0.00  0.00    +0.000 A 
ATOM     14  C   UNL     1      -4.352  13.124  21.273  0.00  0.00    +0.000 A 
ATOM     15  C   UNL     1      -3.141  12.745  20.711  0.00  0.00    +0.000 A 
ATOM     16  C   UNL     1      -2.142  12.283  21.554  0.00  0.00    +0.000 A 
ATOM     17  C   UNL     1      -2.315  12.220  22.941  0.00  0.00    +0.000 A 
ATOM     18  C   UNL     1      -3.542  12.596  23.491  0.00  0.00    +0.000 A 
BRANCH  13  20
ATOM     19  C   UNL     1      -6.486  12.764  24.032  0.00  0.00    +0.000 C 
ATOM     20  O   UNL     1      -5.768  13.512  23.067  0.00  0.00    +0.000 OA
ENDBRANCH  13  20
ENDBRANCH   1  16
BRANCH   3  21
ATOM     21  C   UNL     1       1.193   9.466  19.558  0.00  0.00    +0.000 A 
ATOM     22  C   UNL     1       1.487   8.401  20.423  0.00  0.00    +0.000 A 
ATOM     23  C   UNL     1       2.092   7.227  19.944  0.00  0.00    +0.000 A 
ATOM     24  C   UNL     1       2.416   7.066  18.586  0.00  0.00    +0.000 A 
ATOM     25  C   UNL     1       2.115   8.139  17.732  0.00  0.00    +0.000 A 
ATOM     26  C   UNL     1       1.525   9.321  18.205  0.00  0.00    +0.000 A 
BRANCH  24  27
ATOM     27  C   UNL     1       3.031   5.817  18.072  0.00  0.00    +0.000 A 
ATOM     28  C   UNL     1       2.267   4.662  17.825  0.00  0.00    +0.000 A 
ATOM     29  C   UNL     1       2.848   3.490  17.328  0.00  0.00    +0.000 A 
ATOM     30  C   UNL     1       4.211   3.449  17.053  0.00  0.00    +0.000 A 
ATOM     31  C   UNL     1       4.993   4.575  17.286  0.00  0.00    +0.000 A 
ATOM     32  C   UNL     1       4.409   5.739  17.797  0.00  0.00    +0.000 A 
ENDBRANCH  24  27
ENDBRANCH   3  21
TORSDOF 5
ENDMDL
MODEL 3
REMARK VINA RESULT:      -8.3      0.214      1.223
REMARK  Name = 
REMARK  6 active torsions:
REMARK  status: ('A' for Active; 'I' for Inactive)
REMARK    1  A    between atoms: C_1  and  O_2
REMARK    2  A    between atoms: O_2  and  C_3
REMARK    3  A    between atoms: C_6  and  N_7
REMARK    4  A    between atoms: C_9  and  C_10
REMARK    5  A    between atoms: C_13  and  C_14
REMARK    6  A    between atoms: N_23  and  C_24
REMARK                            x       y       z     vdW  Elec       q    Type
REMARK                         _______ _______ _______ _____ _____    ______ ____
ROOT
ATOM      1  N   UNL     1      -0.740  11.981  20.989  0.00  0.00    +0.000 N 
ATOM      2  N   UNL     1      -0.347  10.665  20.947  0.00  0.00    +0.000 NA
ATOM      3  C   UNL     1       0.617  10.707  20.042  0.00  0.00    +0.000 A 
ATOM      4  N   UNL     1       0.936  11.904  19.562  0.00  0.00    +0.000 NA
ATOM      5  N   UNL     1       0.057  12.712  20.248  0.00  0.00    +0.000 N 
ENDROOT
BRANCH   5   6
ATOM      6  C   UNL     1       0.156  14.170  20.189  0.00  0.00    +0.000 A 
ATOM      7  C   UNL     1       0.757  14.844  21.253  0.00  0.00    +0.000 A 
ATOM      8  C   UNL     1       0.909  16.233  21.176  0.00  0.00    +0.000 A 
ATOM      9  C   UNL     1       0.450  16.925  20.055  0.00  0.00    +0.000 A 
ATOM     10 CL   UNL     1       0.674  18.625  19.949  0.00  0.00    +0.000 Cl
ATOM     11  C   UNL     1      -0.188  16.247  19.017  0.00  0.00    +0.000 A 
ATOM     12  C   UNL     1      -0.357  14.863  19.090  0.00  0.00    +0.000 A 
ENDBRANCH   5   6
BRANCH   1  16
ATOM     13  C   UNL     1      -4.414  12.913  22.847  0.00  0.00    +0.000 A 
ATOM     14  C   UNL     1      -3.335  12.426  23.595  0.00  0.00    +0.000 A 
ATOM     15  C   UNL     1      -2.120  12.132  22.990  0.00  0.00    +0.000 A 
ATOM     16  C   UNL     1      -2.001  12.341  21.624  0.00  0.00    +0.000 A 
ATOM     17  C   UNL     1      -3.069  12.804  20.850  0.00  0.00    +0.000 A 
ATOM     18  C   UNL     1      -4.281  13.104  21.474  0.00  0.00    +0.000 A 
BRANCH  13  20
ATOM     19  C   UNL     1      -6.125  14.391  23.604  0.00  0.00    +0.000 C 
ATOM     20  O   UNL     1      -5.554  13.096  23.561  0.00  0.00    +0.000 OA
ENDBRANCH  13  20
ENDBRANCH   1  16
BRANCH   3  21
ATOM     21  C   UNL     1       1.248   9.482  19.546  0.00  0.00    +0.000 A 
ATOM     22  C   UNL     1       1.517   8.405  20.405  0.00  0.00    +0.000 A 
ATOM     23  C   UNL     1       2.100   7.223  19.921  0.00  0.00    +0.000 A 
ATOM     24  C   UNL     1       2.427   7.065  18.564  0.00  0.00    +0.000 A 
ATOM     25  C   UNL     1       2.152   8.150  17.716  0.00  0.00    +0.000 A 
ATOM     26  C   UNL     1       1.584   9.341  18.194  0.00  0.00    +0.000 A 
BRANCH  24  27
ATOM     27  C   UNL     1       3.020   5.808  18.044  0.00  0.00    +0.000 A 
ATOM     28  C   UNL     1       2.242   4.655  17.831  0.00  0.00    +0.000 A 
ATOM     29  C   UNL     1       2.801   3.474  17.328  0.00  0.00    +0.000 A 
ATOM     30  C   UNL     1       4.155   3.423  17.013  0.00  0.00    +0.000 A 
ATOM     31  C   UNL     1       4.950   4.546  17.211  0.00  0.00    +0.000 A 
ATOM     32  C   UNL     1       4.389   5.718  17.728  0.00  0.00    +0.000 A 
ENDBRANCH  24  27
ENDBRANCH   3  21
TORSDOF 5
ENDMDL
MODEL 4
REMARK VINA RESULT:      -8.2      0.319      1.253
REMARK  Name = 
REMARK  6 active torsions:
REMARK  status: ('A' for Active; 'I' for Inactive)
REMARK    1  A    between atoms: C_1  and  O_2
REMARK    2  A    between atoms: O_2  and  C_3
REMARK    3  A    between atoms: C_6  and  N_7
REMARK    4  A    between atoms: C_9  and  C_10
REMARK    5  A    between atoms: C_13  and  C_14
REMARK    6  A    between atoms: N_23  and  C_24
REMARK                            x       y       z     vdW  Elec       q    Type
REMARK                         _______ _______ _______ _____ _____    ______ ____
ROOT
ATOM      1  N   UNL     1      -0.830  11.933  21.071  0.00  0.00    +0.000 N 
ATOM      2  N   UNL     1      -0.412  10.627  20.996  0.00  0.00    +0.000 NA
ATOM      3  C   UNL     1       0.560  10.712  20.102  0.00  0.00    +0.000 A 
ATOM      4  N   UNL     1       0.862  11.929  19.662  0.00  0.00    +0.000 NA
ATOM      5  N   UNL     1      -0.039  12.701  20.361  0.00  0.00    +0.000 N 
ENDROOT
BRANCH   5   6
ATOM      6  C   UNL     1       0.033  14.160  20.345  0.00  0.00    +0.000 A 
ATOM      7  C   UNL     1       0.539  14.818  21.467  0.00  0.00    +0.000 A 
ATOM      8  C   UNL     1       0.668  16.212  21.436  0.00  0.00    +0.000 A 
ATOM      9  C   UNL     1       0.279  16.924  20.301  0.00  0.00    +0.000 A 
ATOM     10 CL   UNL     1       0.475  18.630  20.254  0.00  0.00    +0.000 Cl
ATOM     11  C   UNL     1      -0.265  16.261  19.202  0.00  0.00    +0.000 A 
ATOM     12  C   UNL     1      -0.410  14.873  19.228  0.00  0.00    +0.000 A 
ENDBRANCH   5   6
BRANCH   1  16
ATOM     13  C   UNL     1      -4.502  12.965  22.881  0.00  0.00    +0.000 A 
ATOM     14  C   UNL     1      -4.335  13.054  21.494  0.00  0.00    +0.000 A 
ATOM     15  C   UNL     1      -3.134  12.702  20.893  0.00  0.00    +0.000 A 
ATOM     16  C   UNL     1      -2.103  12.251  21.704  0.00  0.00    +0.000 A 
ATOM     17  C   UNL     1      -2.234  12.174  23.094  0.00  0.00    +0.000 A 
ATOM     18  C   UNL     1      -3.452  12.523  23.682  0.00  0.00    +0.000 A 
BRANCH  13  20
ATOM     19  C   UNL     1      -6.880  12.846  22.768  0.00  0.00    +0.000 C 
ATOM     20  O   UNL     1      -5.706  13.402  23.331  0.00  0.00    +0.000 OA
ENDBRANCH  13  20
ENDBRANCH   1  16
BRANCH   3  21
ATOM     21  C   UNL     1       1.219   9.514  19.579  0.00  0.00    +0.000 A 
ATOM     22  C   UNL     1       1.477   8.409  20.403  0.00  0.00    +0.000 A 
ATOM     23  C   UNL     1       2.088   7.253  19.891  0.00  0.00    +0.000 A 
ATOM     24  C   UNL     1       2.453   7.149  18.538  0.00  0.00    +0.000 A 
ATOM     25  C   UNL     1       2.187   8.263  17.725  0.00  0.00    +0.000 A 
ATOM     26  C   UNL     1       1.593   9.428  18.231  0.00  0.00    +0.000 A 
BRANCH  24  27
ATOM     27  C   UNL     1       3.074   5.919  17.987  0.00  0.00    +0.000 A 
ATOM     28  C   UNL     1       4.421   5.888  17.579  0.00  0.00    +0.000 A 
ATOM     29  C   UNL     1       5.007   4.723  17.072  0.00  0.00    +0.000 A 
ATOM     30  C   UNL     1       4.261   3.553  16.972  0.00  0.00    +0.000 A 
ATOM     31  C   UNL     1       2.929   3.552  17.368  0.00  0.00    +0.000 A 
ATOM     32  C   UNL     1       2.343   4.723  17.861  0.00  0.00    +0.000 A 
ENDBRANCH  24  27
ENDBRANCH   3  21
TORSDOF 5
ENDMDL
MODEL 5
REMARK VINA RESULT:      -8.2      2.551      4.584
REMARK  Name = 
REMARK  6 active torsions:
REMARK  status: ('A' for Active; 'I' for Inactive)
REMARK    1  A    between atoms: C_1  and  O_2
REMARK    2  A    between atoms: O_2  and  C_3
REMARK    3  A    between atoms: C_6  and  N_7
REMARK    4  A    between atoms: C_9  and  C_10
REMARK    5  A    between atoms: C_13  and  C_14
REMARK    6  A    between atoms: N_23  and  C_24
REMARK                            x       y       z     vdW  Elec       q    Type
REMARK                         _______ _______ _______ _____ _____    ______ ____
ROOT
ATOM      1  N   UNL     1       0.532  12.931  19.784  0.00  0.00    +0.000 N 
ATOM      2  N   UNL     1       0.976  11.916  18.972  0.00  0.00    +0.000 NA
ATOM      3  C   UNL     1       0.824  10.863  19.759  0.00  0.00    +0.000 A 
ATOM      4  N   UNL     1       0.262  11.078  20.944  0.00  0.00    +0.000 NA
ATOM      5  N   UNL     1       0.041  12.437  20.895  0.00  0.00    +0.000 N 
ENDROOT
BRANCH   5   6
ATOM      6  C   UNL     1      -0.743  13.120  21.922  0.00  0.00    +0.000 A 
ATOM      7  C   UNL     1      -1.992  12.602  22.266  0.00  0.00    +0.000 A 
ATOM      8  C   UNL     1      -2.722  13.215  23.291  0.00  0.00    +0.000 A 
ATOM      9  C   UNL     1      -2.205  14.336  23.942  0.00  0.00    +0.000 A 
ATOM     10 CL   UNL     1      -3.087  15.062  25.225  0.00  0.00    +0.000 Cl
ATOM     11  C   UNL     1      -0.975  14.872  23.561  0.00  0.00    +0.000 A 
ATOM     12  C   UNL     1      -0.246  14.275  22.531  0.00  0.00    +0.000 A 
ENDBRANCH   5   6
BRANCH   1  16
ATOM     13  C   UNL     1       1.361  16.916  18.666  0.00  0.00    +0.000 A 
ATOM     14  C   UNL     1       0.084  16.371  18.484  0.00  0.00    +0.000 A 
ATOM     15  C   UNL     1      -0.196  15.065  18.863  0.00  0.00    +0.000 A 
ATOM     16  C   UNL     1       0.820  14.316  19.436  0.00  0.00    +0.000 A 
ATOM     17  C   UNL     1       2.110  14.828  19.609  0.00  0.00    +0.000 A 
ATOM     18  C   UNL     1       2.375  16.146  19.231  0.00  0.00    +0.000 A 
BRANCH  13  20
ATOM     19  C   UNL     1       0.829  18.534  16.997  0.00  0.00    +0.000 C 
ATOM     20  O   UNL     1       1.504  18.180  18.191  0.00  0.00    +0.000 OA
ENDBRANCH  13  20
ENDBRANCH   1  16
BRANCH   3  21
ATOM     21  C   UNL     1       1.317   9.542  19.365  0.00  0.00    +0.000 A 
ATOM     22  C   UNL     1       1.633   9.254  18.029  0.00  0.00    +0.000 A 
ATOM     23  C   UNL     1       2.128   7.992  17.660  0.00  0.00    +0.000 A 
ATOM     24  C   UNL     1       2.337   6.976  18.607  0.00  0.00    +0.000 A 
ATOM     25  C   UNL     1       2.016   7.279  19.941  0.00  0.00    +0.000 A 
ATOM     26  C   UNL     1       1.506   8.531  20.316  0.00  0.00    +0.000 A 
BRANCH  24  27
ATOM     27  C   UNL     1       2.884   5.651  18.225  0.00  0.00    +0.000 A 
ATOM     28  C   UNL     1       4.255   5.353  18.343  0.00  0.00    +0.000 A 
ATOM     29  C   UNL     1       4.766   4.099  17.993  0.00  0.00    +0.000 A 
ATOM     30  C   UNL     1       3.913   3.103  17.528  0.00  0.00    +0.000 A 
ATOM     31  C   UNL     1       2.554   3.365  17.402  0.00  0.00    +0.000 A 
ATOM     32  C   UNL     1       2.051   4.626  17.738  0.00  0.00    +0.000 A 
ENDBRANCH  24  27
ENDBRANCH   3  21
TORSDOF 5
ENDMDL
MODEL 6
REMARK VINA RESULT:      -8.2      0.318      1.732
REMARK  Name = 
REMARK  6 active torsions:
REMARK  status: ('A' for Active; 'I' for Inactive)
REMARK    1  A    between atoms: C_1  and  O_2
REMARK    2  A    between atoms: O_2  and  C_3
REMARK    3  A    between atoms: C_6  and  N_7
REMARK    4  A    between atoms: C_9  and  C_10
REMARK    5  A    between atoms: C_13  and  C_14
REMARK    6  A    between atoms: N_23  and  C_24
REMARK                            x       y       z     vdW  Elec       q    Type
REMARK                         _______ _______ _______ _____ _____    ______ ____
ROOT
ATOM      1  N   UNL     1      -0.838  11.929  21.038  0.00  0.00    +0.000 N 
ATOM      2  N   UNL     1      -0.428  10.622  20.945  0.00  0.00    +0.000 NA
ATOM      3  C   UNL     1       0.541  10.712  20.048  0.00  0.00    +0.000 A 
ATOM      4  N   UNL     1       0.848  11.932  19.620  0.00  0.00    +0.000 NA
ATOM      5  N   UNL     1      -0.046  12.700  20.332  0.00  0.00    +0.000 N 
ENDROOT
BRANCH   5   6
ATOM      6  C   UNL     1       0.034  14.160  20.334  0.00  0.00    +0.000 A 
ATOM      7  C   UNL     1       0.511  14.803  21.476  0.00  0.00    +0.000 A 
ATOM      8  C   UNL     1       0.648  16.196  21.463  0.00  0.00    +0.000 A 
ATOM      9  C   UNL     1       0.296  16.922  20.324  0.00  0.00    +0.000 A 
ATOM     10 CL   UNL     1       0.503  18.627  20.300  0.00  0.00    +0.000 Cl
ATOM     11  C   UNL     1      -0.219  16.273  19.203  0.00  0.00    +0.000 A 
ATOM     12  C   UNL     1      -0.372  14.885  19.211  0.00  0.00    +0.000 A 
ENDBRANCH   5   6
BRANCH   1  16
ATOM     13  C   UNL     1      -4.497  12.960  22.873  0.00  0.00    +0.000 A 
ATOM     14  C   UNL     1      -4.346  13.032  21.483  0.00  0.00    +0.000 A 
ATOM     15  C   UNL     1      -3.149  12.680  20.874  0.00  0.00    +0.000 A 
ATOM     16  C   UNL     1      -2.107  12.247  21.679  0.00  0.00    +0.000 A 
ATOM     17  C   UNL     1      -2.223  12.187  23.072  0.00  0.00    +0.000 A 
ATOM     18  C   UNL     1      -3.436  12.535  23.669  0.00  0.00    +0.000 A 
BRANCH  13  20
ATOM     19  C   UNL     1      -6.480  14.228  22.493  0.00  0.00    +0.000 C 
ATOM     20  O   UNL     1      -5.700  13.395  23.331  0.00  0.00    +0.000 OA
ENDBRANCH  13  20
ENDBRANCH   1  16
BRANCH   3  21
ATOM     21  C   UNL     1       1.190   9.516  19.508  0.00  0.00    +0.000 A 
ATOM     22  C   UNL     1       1.583   9.449  18.162  0.00  0.00    +0.000 A 
ATOM     23  C   UNL     1       2.227   8.309  17.654  0.00  0.00    +0.000 A 
ATOM     24  C   UNL     1       2.515   7.201  18.468  0.00  0.00    +0.000 A 
ATOM     25  C   UNL     1       2.117   7.283  19.812  0.00  0.00    +0.000 A 
ATOM     26  C   UNL     1       1.459   8.410  20.324  0.00  0.00    +0.000 A 
BRANCH  24  27
ATOM     27  C   UNL     1       3.219   6.005  17.941  0.00  0.00    +0.000 A 
ATOM     28  C   UNL     1       2.572   4.763  17.807  0.00  0.00    +0.000 A 
ATOM     29  C   UNL     1       3.235   3.641  17.298  0.00  0.00    +0.000 A 
ATOM     30  C   UNL     1       4.564   3.738  16.898  0.00  0.00    +0.000 A 
ATOM     31  C   UNL     1       5.230   4.952  17.017  0.00  0.00    +0.000 A 
ATOM     32  C   UNL     1       4.567   6.067  17.540  0.00  0.00    +0.000 A 
ENDBRANCH  24  27
ENDBRANCH   3  21
TORSDOF 5
ENDMDL
MODEL 7
REMARK VINA RESULT:      -8.2      0.384      1.258
REMARK  Name = 
REMARK  6 active torsions:
REMARK  status: ('A' for Active; 'I' for Inactive)
REMARK    1  A    between atoms: C_1  and  O_2
REMARK    2  A    between atoms: O_2  and  C_3
REMARK    3  A    between atoms: C_6  and  N_7
REMARK    4  A    between atoms: C_9  and  C_10
REMARK    5  A    between atoms: C_13  and  C_14
REMARK    6  A    between atoms: N_23  and  C_24
REMARK                            x       y       z     vdW  Elec       q    Type
REMARK                         _______ _______ _______ _____ _____    ______ ____
ROOT
ATOM      1  N   UNL     1      -0.665  11.957  20.915  0.00  0.00    +0.000 N 
ATOM      2  N   UNL     1      -0.288  10.640  20.821  0.00  0.00    +0.000 NA
ATOM      3  C   UNL     1       0.695  10.710  19.939  0.00  0.00    +0.000 A 
ATOM      4  N   UNL     1       1.041  11.923  19.523  0.00  0.00    +0.000 NA
ATOM      5  N   UNL     1       0.157  12.711  20.227  0.00  0.00    +0.000 N 
ENDROOT
BRANCH   5   6
ATOM      6  C   UNL     1       0.276  14.168  20.238  0.00  0.00    +0.000 A 
ATOM      7  C   UNL     1       0.948  14.777  21.297  0.00  0.00    +0.000 A 
ATOM      8  C   UNL     1       1.119  16.167  21.284  0.00  0.00    +0.000 A 
ATOM      9  C   UNL     1       0.606  16.923  20.229  0.00  0.00    +0.000 A 
ATOM     10 CL   UNL     1       0.851  18.623  20.198  0.00  0.00    +0.000 Cl
ATOM     11  C   UNL     1      -0.102  16.309  19.197  0.00  0.00    +0.000 A 
ATOM     12  C   UNL     1      -0.289  14.925  19.208  0.00  0.00    +0.000 A 
ENDBRANCH   5   6
BRANCH   1  16
ATOM     13  C   UNL     1      -4.362  12.855  22.745  0.00  0.00    +0.000 A 
ATOM     14  C   UNL     1      -3.276  12.405  23.505  0.00  0.00    +0.000 A 
ATOM     15  C   UNL     1      -2.055  12.123  22.909  0.00  0.00    +0.000 A 
ATOM     16  C   UNL     1      -1.935  12.305  21.540  0.00  0.00    +0.000 A 
ATOM     17  C   UNL     1      -3.010  12.731  20.753  0.00  0.00    +0.000 A 
ATOM     18  C   UNL     1      -4.230  13.020  21.368  0.00  0.00    +0.000 A 
BRANCH  13  20
ATOM     19  C   UNL     1      -6.003  14.344  23.624  0.00  0.00    +0.000 C 
ATOM     20  O   UNL     1      -5.509  13.029  23.452  0.00  0.00    +0.000 OA
ENDBRANCH  13  20
ENDBRANCH   1  16
BRANCH   3  21
ATOM     21  C   UNL     1       1.322   9.501  19.401  0.00  0.00    +0.000 A 
ATOM     22  C   UNL     1       1.754   9.439  18.068  0.00  0.00    +0.000 A 
ATOM     23  C   UNL     1       2.376   8.285  17.563  0.00  0.00    +0.000 A 
ATOM     24  C   UNL     1       2.600   7.156  18.368  0.00  0.00    +0.000 A 
ATOM     25  C   UNL     1       2.163   7.233  19.701  0.00  0.00    +0.000 A 
ATOM     26  C   UNL     1       1.527   8.375  20.209  0.00  0.00    +0.000 A 
BRANCH  24  27
ATOM     27  C   UNL     1       3.281   5.945  17.846  0.00  0.00    +0.000 A 
ATOM     28  C   UNL     1       4.594   5.992  17.343  0.00  0.00    +0.000 A 
ATOM     29  C   UNL     1       5.238   4.846  16.862  0.00  0.00    +0.000 A 
ATOM     30  C   UNL     1       4.585   3.618  16.885  0.00  0.00    +0.000 A 
ATOM     31  C   UNL     1       3.287   3.539  17.377  0.00  0.00    +0.000 A 
ATOM     32  C   UNL     1       2.643   4.690  17.842  0.00  0.00    +0.000 A 
ENDBRANCH  24  27
ENDBRANCH   3  21
TORSDOF 5
ENDMDL
MODEL 8
REMARK VINA RESULT:      -8.1      0.540      1.312
REMARK  Name = 
REMARK  6 active torsions:
REMARK  status: ('A' for Active; 'I' for Inactive)
REMARK    1  A    between atoms: C_1  and  O_2
REMARK    2  A    between atoms: O_2  and  C_3
REMARK    3  A    between atoms: C_6  and  N_7
REMARK    4  A    between atoms: C_9  and  C_10
REMARK    5  A    between atoms: C_13  and  C_14
REMARK    6  A    between atoms: N_23  and  C_24
REMARK                            x       y       z     vdW  Elec       q    Type
REMARK                         _______ _______ _______ _____ _____    ______ ____
ROOT
ATOM      1  N   UNL     1      -0.774  11.946  20.826  0.00  0.00    +0.000 N 
ATOM      2  N   UNL     1      -0.434  10.620  20.715  0.00  0.00    +0.000 NA
ATOM      3  C   UNL     1       0.639  10.687  19.945  0.00  0.00    +0.000 A 
ATOM      4  N   UNL     1       1.068  11.902  19.620  0.00  0.00    +0.000 NA
ATOM      5  N   UNL     1       0.142  12.695  20.261  0.00  0.00    +0.000 N 
ENDROOT
BRANCH   5   6
ATOM      6  C   UNL     1       0.307  14.144  20.347  0.00  0.00    +0.000 A 
ATOM      7  C   UNL     1      -0.107  14.931  19.273  0.00  0.00    +0.000 A 
ATOM      8  C   UNL     1      -0.009  16.324  19.373  0.00  0.00    +0.000 A 
ATOM      9  C   UNL     1       0.513  16.905  20.530  0.00  0.00    +0.000 A 
ATOM     10 CL   UNL     1       0.596  18.616  20.663  0.00  0.00    +0.000 Cl
ATOM     11  C   UNL     1       0.964  16.108  21.581  0.00  0.00    +0.000 A 
ATOM     12  C   UNL     1       0.882  14.718  21.484  0.00  0.00    +0.000 A 
ENDBRANCH   5   6
BRANCH   1  16
ATOM     13  C   UNL     1      -4.603  12.914  22.318  0.00  0.00    +0.000 A 
ATOM     14  C   UNL     1      -3.545  12.632  23.189  0.00  0.00    +0.000 A 
ATOM     15  C   UNL     1      -2.280  12.327  22.703  0.00  0.00    +0.000 A 
ATOM     16  C   UNL     1      -2.091  12.317  21.329  0.00  0.00    +0.000 A 
ATOM     17  C   UNL     1      -3.136  12.572  20.436  0.00  0.00    +0.000 A 
ATOM     18  C   UNL     1      -4.400  12.886  20.940  0.00  0.00    +0.000 A 
BRANCH  13  20
ATOM     19  C   UNL     1      -5.975  12.639  24.249  0.00  0.00    +0.000 C 
ATOM     20  O   UNL     1      -5.794  13.131  22.933  0.00  0.00    +0.000 OA
ENDBRANCH  13  20
ENDBRANCH   1  16
BRANCH   3  21
ATOM     21  C   UNL     1       1.278   9.477  19.424  0.00  0.00    +0.000 A 
ATOM     22  C   UNL     1       1.751   9.417  18.104  0.00  0.00    +0.000 A 
ATOM     23  C   UNL     1       2.384   8.262  17.616  0.00  0.00    +0.000 A 
ATOM     24  C   UNL     1       2.581   7.131  18.425  0.00  0.00    +0.000 A 
ATOM     25  C   UNL     1       2.103   7.206  19.744  0.00  0.00    +0.000 A 
ATOM     26  C   UNL     1       1.455   8.349  20.235  0.00  0.00    +0.000 A 
BRANCH  24  27
ATOM     27  C   UNL     1       3.273   5.919  17.921  0.00  0.00    +0.000 A 
ATOM     28  C   UNL     1       2.605   4.688  17.783  0.00  0.00    +0.000 A 
ATOM     29  C   UNL     1       3.257   3.550  17.295  0.00  0.00    +0.000 A 
ATOM     30  C   UNL     1       4.595   3.619  16.921  0.00  0.00    +0.000 A 
ATOM     31  C   UNL     1       5.282   4.821  17.044  0.00  0.00    +0.000 A 
ATOM     32  C   UNL     1       4.629   5.952  17.547  0.00  0.00    +0.000 A 
ENDBRANCH  24  27
ENDBRANCH   3  21
TORSDOF 5
ENDMDL
MODEL 9
REMARK VINA RESULT:      -8.1      2.498      4.473
REMARK  Name = 
REMARK  6 active torsions:
REMARK  status: ('A' for Active; 'I' for Inactive)
REMARK    1  A    between atoms: C_1  and  O_2
REMARK    2  A    between atoms: O_2  and  C_3
REMARK    3  A    between atoms: C_6  and  N_7
REMARK    4  A    between atoms: C_9  and  C_10
REMARK    5  A    between atoms: C_13  and  C_14
REMARK    6  A    between atoms: N_23  and  C_24
REMARK                            x       y       z     vdW  Elec       q    Type
REMARK                         _______ _______ _______ _____ _____    ______ ____
ROOT
ATOM      1  N   UNL     1       0.506  12.894  19.878  0.00  0.00    +0.000 N 
ATOM      2  N   UNL     1       0.991  11.903  19.060  0.00  0.00    +0.000 NA
ATOM      3  C   UNL     1       0.846  10.834  19.827  0.00  0.00    +0.000 A 
ATOM      4  N   UNL     1       0.255  11.017  21.003  0.00  0.00    +0.000 NA
ATOM      5  N   UNL     1       0.004  12.370  20.971  0.00  0.00    +0.000 N 
ENDROOT
BRANCH   5   6
ATOM      6  C   UNL     1      -0.816  13.019  21.992  0.00  0.00    +0.000 A 
ATOM      7  C   UNL     1      -0.295  14.121  22.670  0.00  0.00    +0.000 A 
ATOM      8  C   UNL     1      -1.097  14.784  23.606  0.00  0.00    +0.000 A 
ATOM      9  C   UNL     1      -2.393  14.333  23.859  0.00  0.00    +0.000 A 
ATOM     10 CL   UNL     1      -3.388  15.173  24.980  0.00  0.00    +0.000 Cl
ATOM     11  C   UNL     1      -2.890  13.205  23.207  0.00  0.00    +0.000 A 
ATOM     12  C   UNL     1      -2.092  12.528  22.282  0.00  0.00    +0.000 A 
ENDBRANCH   5   6
BRANCH   1  16
ATOM     13  C   UNL     1       1.274  16.914  18.843  0.00  0.00    +0.000 A 
ATOM     14  C   UNL     1       0.040  16.320  18.550  0.00  0.00    +0.000 A 
ATOM     15  C   UNL     1      -0.222  15.003  18.902  0.00  0.00    +0.000 A 
ATOM     16  C   UNL     1       0.770  14.291  19.559  0.00  0.00    +0.000 A 
ATOM     17  C   UNL     1       2.020  14.851  19.843  0.00  0.00    +0.000 A 
ATOM     18  C   UNL     1       2.264  16.180  19.491  0.00  0.00    +0.000 A 
BRANCH  13  20
ATOM     19  C   UNL     1       0.534  18.631  17.364  0.00  0.00    +0.000 C 
ATOM     20  O   UNL     1       1.409  18.184  18.383  0.00  0.00    +0.000 OA
ENDBRANCH  13  20
ENDBRANCH   1  16
BRANCH   3  21
ATOM     21  C   UNL     1       1.377   9.531  19.423  0.00  0.00    +0.000 A 
ATOM     22  C   UNL     1       1.510   8.483  20.346  0.00  0.00    +0.000 A 
ATOM     23  C   UNL     1       1.997   7.227  19.948  0.00  0.00    +0.000 A 
ATOM     24  C   UNL     1       2.358   6.965  18.616  0.00  0.00    +0.000 A 
ATOM     25  C   UNL     1       2.219   8.022  17.703  0.00  0.00    +0.000 A 
ATOM     26  C   UNL     1       1.749   9.285  18.095  0.00  0.00    +0.000 A 
BRANCH  24  27
ATOM     27  C   UNL     1       2.848   5.631  18.187  0.00  0.00    +0.000 A 
ATOM     28  C   UNL     1       4.222   5.336  18.112  0.00  0.00    +0.000 A 
ATOM     29  C   UNL     1       4.681   4.073  17.719  0.00  0.00    +0.000 A 
ATOM     30  C   UNL     1       3.773   3.069  17.402  0.00  0.00    +0.000 A 
ATOM     31  C   UNL     1       2.409   3.330  17.467  0.00  0.00    +0.000 A 
ATOM     32  C   UNL     1       1.956   4.598  17.846  0.00  0.00    +0.000 A 
ENDBRANCH  24  27
ENDBRANCH   3  21
TORSDOF 5
ENDMDL
