MODEL 1
REMARK VINA RESULT:      -7.7      0.000      0.000
REMARK  Name = 
REMARK  14 active torsions:
REMARK  status: ('A' for Active; 'I' for Inactive)
REMARK    1  A    between atoms: C_1  and  N_2
REMARK    2  A    between atoms: N_2  and  C_3
REMARK    3  A    between atoms: N_2  and  C_4
REMARK    4  A    between atoms: C_4  and  C_5
REMARK    5  A    between atoms: C_5  and  N_6
REMARK    6  A    between atoms: C_7  and  C_9
REMARK    7  A    between atoms: C_9  and  O_10
REMARK    8  A    between atoms: O_10  and  C_11
REMARK    9  A    between atoms: C_17  and  N_18
REMARK   10  A    between atoms: N_18  and  C_19
REMARK   11  A    between atoms: C_19  and  C_20
REMARK   12  A    between atoms: C_20  and  N_21
REMARK   13  A    between atoms: N_21  and  C_22
REMARK   14  A    between atoms: N_21  and  C_23
REMARK                            x       y       z     vdW  Elec       q    Type
REMARK                         _______ _______ _______ _____ _____    ______ ____
ROOT
ATOM      1  C   UNL     1       0.927   9.565  19.385  0.00  0.00    +0.000 A 
ATOM      2  C   UNL     1       0.738   8.918  20.611  0.00  0.00    +0.000 A 
ATOM      3  C   UNL     1       1.404   7.725  20.906  0.00  0.00    +0.000 A 
ATOM      4  C   UNL     1       2.253   7.217  19.923  0.00  0.00    +0.000 A 
ATOM      5  O   UNL     1       2.985   6.085  20.050  0.00  0.00    +0.000 OA
ATOM      6  C   UNL     1       3.677   5.911  18.889  0.00  0.00    +0.000 A 
ATOM      7  C   UNL     1       4.570   4.867  18.601  0.00  0.00    +0.000 A 
ATOM      8  C   UNL     1       5.159   4.950  17.306  0.00  0.00    +0.000 A 
ATOM      9  C   UNL     1       6.068   3.968  16.827  0.00  0.00    +0.000 A 
ATOM     10  C   UNL     1       6.632   4.041  15.560  0.00  0.00    +0.000 A 
ATOM     11  C   UNL     1       6.304   5.108  14.736  0.00  0.00    +0.000 A 
ATOM     12  C   UNL     1       5.402   6.075  15.191  0.00  0.00    +0.000 A 
ATOM     13  C   UNL     1       4.807   6.032  16.453  0.00  0.00    +0.000 A 
ATOM     14  N   UNL     1       3.946   7.025  16.771  0.00  0.00    +0.000 NA
ATOM     15  C   UNL     1       3.384   6.940  18.004  0.00  0.00    +0.000 A 
ATOM     16  C   UNL     1       2.462   7.804  18.677  0.00  0.00    +0.000 A 
ATOM     17  C   UNL     1       1.774   9.004  18.405  0.00  0.00    +0.000 A 
ENDROOT
BRANCH   7  18
ATOM     18  N   UNL     1       4.955   3.886  19.522  0.00  0.00    +0.000 N 
ATOM     19  H   UNL     1       5.953   3.730  19.622  0.00  0.00    +0.000 HD
BRANCH  18  20
ATOM     20  C   UNL     1       4.220   2.625  19.566  0.00  0.00    +0.000 C 
BRANCH  20  21
ATOM     21  C   UNL     1       3.050   2.726  20.575  0.00  0.00    +0.000 C 
BRANCH  21  22
ATOM     22  N   UNL     1       1.714   2.462  19.999  0.00  0.00    +0.000 NA
ATOM     23  C   UNL     1       0.796   3.575  20.256  0.00  0.00    +0.000 C 
ATOM     24  C   UNL     1       1.821   2.230  18.558  0.00  0.00    +0.000 C 
ENDBRANCH  21  22
ENDBRANCH  20  21
ENDBRANCH  18  20
ENDBRANCH   7  18
BRANCH   1  25
ATOM     25  O   UNL     1       0.287  10.719  19.012  0.00  0.00    +0.000 OA
BRANCH  25  26
ATOM     26  C   UNL     1       0.834  11.947  19.490  0.00  0.00    +0.000 C 
BRANCH  26  28
ATOM     27  N   UNL     1      -1.281  12.824  20.401  0.00  0.00    +0.000 N 
ATOM     28  C   UNL     1       0.031  12.498  20.671  0.00  0.00    +0.000 C 
ATOM     29  O   UNL     1       0.537  12.635  21.783  0.00  0.00    +0.000 OA
ATOM     30  H   UNL     1      -1.683  12.520  19.518  0.00  0.00    +0.000 HD
BRANCH  27  31
ATOM     31  C   UNL     1      -2.148  13.312  21.452  0.00  0.00    +0.000 C 
BRANCH  31  32
ATOM     32  C   UNL     1      -2.588  12.238  22.467  0.00  0.00    +0.000 C 
BRANCH  32  34
ATOM     33  C   UNL     1      -4.047  12.493  24.396  0.00  0.00    +0.000 C 
ATOM     34  N   UNL     1      -3.987  12.370  22.936  0.00  0.00    +0.000 NA
ATOM     35  C   UNL     1      -4.614  13.553  22.333  0.00  0.00    +0.000 C 
ENDBRANCH  32  34
ENDBRANCH  31  32
ENDBRANCH  27  31
ENDBRANCH  26  28
ENDBRANCH  25  26
ENDBRANCH   1  25
TORSDOF 10
ENDMDL
MODEL 2
REMARK VINA RESULT:      -7.6      2.057      3.566
REMARK  Name = 
REMARK  14 active torsions:
REMARK  status: ('A' for Active; 'I' for Inactive)
REMARK    1  A    between atoms: C_1  and  N_2
REMARK    2  A    between atoms: N_2  and  C_3
REMARK    3  A    between atoms: N_2  and  C_4
REMARK    4  A    between atoms: C_4  and  C_5
REMARK    5  A    between atoms: C_5  and  N_6
REMARK    6  A    between atoms: C_7  and  C_9
REMARK    7  A    between atoms: C_9  and  O_10
REMARK    8  A    between atoms: O_10  and  C_11
REMARK    9  A    between atoms: C_17  and  N_18
REMARK   10  A    between atoms: N_18  and  C_19
REMARK   11  A    between atoms: C_19  and  C_20
REMARK   12  A    between atoms: C_20  and  N_21
REMARK   13  A    between atoms: N_21  and  C_22
REMARK   14  A    between atoms: N_21  and  C_23
REMARK                            x       y       z     vdW  Elec       q    Type
REMARK                         _______ _______ _______ _____ _____    ______ ____
ROOT
ATOM      1  C   UNL     1       1.035   9.413  19.485  0.00  0.00    +0.000 A 
ATOM      2  C   UNL     1       0.858   8.735  20.695  0.00  0.00    +0.000 A 
ATOM      3  C   UNL     1       1.524   7.532  20.951  0.00  0.00    +0.000 A 
ATOM      4  C   UNL     1       2.359   7.048  19.945  0.00  0.00    +0.000 A 
ATOM      5  O   UNL     1       3.089   5.910  20.033  0.00  0.00    +0.000 OA
ATOM      6  C   UNL     1       3.766   5.765  18.861  0.00  0.00    +0.000 A 
ATOM      7  C   UNL     1       4.652   4.726  18.534  0.00  0.00    +0.000 A 
ATOM      8  C   UNL     1       5.226   4.841  17.235  0.00  0.00    +0.000 A 
ATOM      9  C   UNL     1       6.126   3.869  16.719  0.00  0.00    +0.000 A 
ATOM     10  C   UNL     1       6.676   3.974  15.448  0.00  0.00    +0.000 A 
ATOM     11  C   UNL     1       6.341   5.063  14.657  0.00  0.00    +0.000 A 
ATOM     12  C   UNL     1       5.448   6.021  15.148  0.00  0.00    +0.000 A 
ATOM     13  C   UNL     1       4.868   5.947  16.415  0.00  0.00    +0.000 A 
ATOM     14  N   UNL     1       4.014   6.933  16.769  0.00  0.00    +0.000 NA
ATOM     15  C   UNL     1       3.467   6.817  18.006  0.00  0.00    +0.000 A 
ATOM     16  C   UNL     1       2.555   7.666  18.713  0.00  0.00    +0.000 A 
ATOM     17  C   UNL     1       1.868   8.875  18.481  0.00  0.00    +0.000 A 
ENDROOT
BRANCH   7  18
ATOM     18  N   UNL     1       5.045   3.719  19.425  0.00  0.00    +0.000 N 
ATOM     19  H   UNL     1       5.911   3.238  19.205  0.00  0.00    +0.000 HD
BRANCH  18  20
ATOM     20  C   UNL     1       4.041   2.789  19.933  0.00  0.00    +0.000 C 
BRANCH  20  21
ATOM     21  C   UNL     1       3.172   2.257  18.768  0.00  0.00    +0.000 C 
BRANCH  21  22
ATOM     22  N   UNL     1       1.713   2.396  18.972  0.00  0.00    +0.000 NA
ATOM     23  C   UNL     1       1.399   2.672  20.376  0.00  0.00    +0.000 C 
ATOM     24  C   UNL     1       1.184   3.465  18.125  0.00  0.00    +0.000 C 
ENDBRANCH  21  22
ENDBRANCH  20  21
ENDBRANCH  18  20
ENDBRANCH   7  18
BRANCH   1  25
ATOM     25  O   UNL     1       0.394  10.578  19.150  0.00  0.00    +0.000 OA
BRANCH  25  26
ATOM     26  C   UNL     1      -0.167  11.339  20.218  0.00  0.00    +0.000 C 
BRANCH  26  28
ATOM     27  N   UNL     1       1.168  13.229  19.369  0.00  0.00    +0.000 N 
ATOM     28  C   UNL     1       0.639  12.614  20.483  0.00  0.00    +0.000 C 
ATOM     29  O   UNL     1       0.796  13.049  21.622  0.00  0.00    +0.000 OA
ATOM     30  H   UNL     1       0.853  12.922  18.452  0.00  0.00    +0.000 HD
BRANCH  27  31
ATOM     31  C   UNL     1       1.911  14.464  19.494  0.00  0.00    +0.000 C 
BRANCH  31  32
ATOM     32  C   UNL     1       3.427  14.326  19.248  0.00  0.00    +0.000 C 
BRANCH  32  34
ATOM     33  C   UNL     1       3.479  16.266  17.783  0.00  0.00    +0.000 C 
ATOM     34  N   UNL     1       3.892  14.870  17.952  0.00  0.00    +0.000 NA
ATOM     35  C   UNL     1       5.357  14.794  17.867  0.00  0.00    +0.000 C 
ENDBRANCH  32  34
ENDBRANCH  31  32
ENDBRANCH  27  31
ENDBRANCH  26  28
ENDBRANCH  25  26
ENDBRANCH   1  25
TORSDOF 10
ENDMDL
MODEL 3
REMARK VINA RESULT:      -7.4      2.298      2.998
REMARK  Name = 
REMARK  14 active torsions:
REMARK  status: ('A' for Active; 'I' for Inactive)
REMARK    1  A    between atoms: C_1  and  N_2
REMARK    2  A    between atoms: N_2  and  C_3
REMARK    3  A    between atoms: N_2  and  C_4
REMARK    4  A    between atoms: C_4  and  C_5
REMARK    5  A    between atoms: C_5  and  N_6
REMARK    6  A    between atoms: C_7  and  C_9
REMARK    7  A    between atoms: C_9  and  O_10
REMARK    8  A    between atoms: O_10  and  C_11
REMARK    9  A    between atoms: C_17  and  N_18
REMARK   10  A    between atoms: N_18  and  C_19
REMARK   11  A    between atoms: C_19  and  C_20
REMARK   12  A    between atoms: C_20  and  N_21
REMARK   13  A    between atoms: N_21  and  C_22
REMARK   14  A    between atoms: N_21  and  C_23
REMARK                            x       y       z     vdW  Elec       q    Type
REMARK                         _______ _______ _______ _____ _____    ______ ____
ROOT
ATOM      1  C   UNL     1      -0.126  11.053  20.065  0.00  0.00    +0.000 A 
ATOM      2  C   UNL     1      -0.584  10.444  21.238  0.00  0.00    +0.000 A 
ATOM      3  C   UNL     1      -0.137   9.173  21.612  0.00  0.00    +0.000 A 
ATOM      4  C   UNL     1       0.776   8.551  20.760  0.00  0.00    +0.000 A 
ATOM      5  O   UNL     1       1.322   7.331  20.980  0.00  0.00    +0.000 OA
ATOM      6  C   UNL     1       2.152   7.060  19.934  0.00  0.00    +0.000 A 
ATOM      7  C   UNL     1       2.931   5.904  19.768  0.00  0.00    +0.000 A 
ATOM      8  C   UNL     1       3.716   5.900  18.579  0.00  0.00    +0.000 A 
ATOM      9  C   UNL     1       4.548   4.802  18.228  0.00  0.00    +0.000 A 
ATOM     10  C   UNL     1       5.302   4.791  17.062  0.00  0.00    +0.000 A 
ATOM     11  C   UNL     1       5.248   5.888  16.214  0.00  0.00    +0.000 A 
ATOM     12  C   UNL     1       4.425   6.971  16.543  0.00  0.00    +0.000 A 
ATOM     13  C   UNL     1       3.646   7.015  17.699  0.00  0.00    +0.000 A 
ATOM     14  N   UNL     1       2.887   8.116  17.899  0.00  0.00    +0.000 NA
ATOM     15  C   UNL     1       2.138   8.114  19.031  0.00  0.00    +0.000 A 
ATOM     16  C   UNL     1       1.248   9.098  19.570  0.00  0.00    +0.000 A 
ATOM     17  C   UNL     1       0.776  10.377  19.216  0.00  0.00    +0.000 A 
ENDROOT
BRANCH   7  18
ATOM     18  N   UNL     1       3.037   4.884  20.722  0.00  0.00    +0.000 N 
ATOM     19  H   UNL     1       3.871   4.307  20.672  0.00  0.00    +0.000 HD
BRANCH  18  20
ATOM     20  C   UNL     1       1.860   4.080  21.036  0.00  0.00    +0.000 C 
BRANCH  20  21
ATOM     21  C   UNL     1       2.209   2.573  20.961  0.00  0.00    +0.000 C 
BRANCH  21  22
ATOM     22  N   UNL     1       1.891   1.930  19.668  0.00  0.00    +0.000 NA
ATOM     23  C   UNL     1       0.880   2.691  18.931  0.00  0.00    +0.000 C 
ATOM     24  C   UNL     1       3.102   1.798  18.858  0.00  0.00    +0.000 C 
ENDBRANCH  21  22
ENDBRANCH  20  21
ENDBRANCH  18  20
ENDBRANCH   7  18
BRANCH   1  25
ATOM     25  O   UNL     1      -0.542  12.280  19.617  0.00  0.00    +0.000 OA
BRANCH  25  26
ATOM     26  C   UNL     1      -1.307  12.304  18.412  0.00  0.00    +0.000 C 
BRANCH  26  28
ATOM     27  N   UNL     1      -3.437  12.629  19.610  0.00  0.00    +0.000 N 
ATOM     28  C   UNL     1      -2.761  11.892  18.662  0.00  0.00    +0.000 C 
ATOM     29  O   UNL     1      -3.278  10.960  18.048  0.00  0.00    +0.000 OA
ATOM     30  H   UNL     1      -3.013  13.490  19.946  0.00  0.00    +0.000 HD
BRANCH  27  31
ATOM     31  C   UNL     1      -4.829  12.357  19.897  0.00  0.00    +0.000 C 
BRANCH  31  32
ATOM     32  C   UNL     1      -5.818  13.361  19.270  0.00  0.00    +0.000 C 
BRANCH  32  34
ATOM     33  C   UNL     1      -7.847  13.684  17.971  0.00  0.00    +0.000 C 
ATOM     34  N   UNL     1      -7.110  12.772  18.851  0.00  0.00    +0.000 NA
ATOM     35  C   UNL     1      -6.885  11.506  18.142  0.00  0.00    +0.000 C 
ENDBRANCH  32  34
ENDBRANCH  31  32
ENDBRANCH  27  31
ENDBRANCH  26  28
ENDBRANCH  25  26
ENDBRANCH   1  25
TORSDOF 10
ENDMDL
MODEL 4
REMARK VINA RESULT:      -7.4      1.036      1.127
REMARK  Name = 
REMARK  14 active torsions:
REMARK  status: ('A' for Active; 'I' for Inactive)
REMARK    1  A    between atoms: C_1  and  N_2
REMARK    2  A    between atoms: N_2  and  C_3
REMARK    3  A    between atoms: N_2  and  C_4
REMARK    4  A    between atoms: C_4  and  C_5
REMARK    5  A    between atoms: C_5  and  N_6
REMARK    6  A    between atoms: C_7  and  C_9
REMARK    7  A    between atoms: C_9  and  O_10
REMARK    8  A    between atoms: O_10  and  C_11
REMARK    9  A    between atoms: C_17  and  N_18
REMARK   10  A    between atoms: N_18  and  C_19
REMARK   11  A    between atoms: C_19  and  C_20
REMARK   12  A    between atoms: C_20  and  N_21
REMARK   13  A    between atoms: N_21  and  C_22
REMARK   14  A    between atoms: N_21  and  C_23
REMARK                            x       y       z     vdW  Elec       q    Type
REMARK                         _______ _______ _______ _____ _____    ______ ____
ROOT
ATOM      1  C   UNL     1       1.050   9.587  19.152  0.00  0.00    +0.000 A 
ATOM      2  C   UNL     1       0.875   8.988  20.404  0.00  0.00    +0.000 A 
ATOM      3  C   UNL     1       1.546   7.809  20.739  0.00  0.00    +0.000 A 
ATOM      4  C   UNL     1       2.386   7.264  19.768  0.00  0.00    +0.000 A 
ATOM      5  O   UNL     1       3.121   6.138  19.933  0.00  0.00    +0.000 OA
ATOM      6  C   UNL     1       3.801   5.920  18.773  0.00  0.00    +0.000 A 
ATOM      7  C   UNL     1       4.693   4.866  18.517  0.00  0.00    +0.000 A 
ATOM      8  C   UNL     1       5.269   4.898  17.214  0.00  0.00    +0.000 A 
ATOM      9  C   UNL     1       6.175   3.899  16.764  0.00  0.00    +0.000 A 
ATOM     10  C   UNL     1       6.725   3.922  15.489  0.00  0.00    +0.000 A 
ATOM     11  C   UNL     1       6.386   4.955  14.627  0.00  0.00    +0.000 A 
ATOM     12  C   UNL     1       5.487   5.939  15.053  0.00  0.00    +0.000 A 
ATOM     13  C   UNL     1       4.906   5.945  16.322  0.00  0.00    +0.000 A 
ATOM     14  N   UNL     1       4.046   6.949  16.609  0.00  0.00    +0.000 NA
ATOM     15  C   UNL     1       3.498   6.912  17.851  0.00  0.00    +0.000 A 
ATOM     16  C   UNL     1       2.581   7.801  18.498  0.00  0.00    +0.000 A 
ATOM     17  C   UNL     1       1.888   8.987  18.186  0.00  0.00    +0.000 A 
ENDROOT
BRANCH   7  18
ATOM     18  N   UNL     1       5.090   3.923  19.472  0.00  0.00    +0.000 N 
ATOM     19  H   UNL     1       5.957   3.429  19.284  0.00  0.00    +0.000 HD
BRANCH  18  20
ATOM     20  C   UNL     1       4.089   3.027  20.044  0.00  0.00    +0.000 C 
BRANCH  20  21
ATOM     21  C   UNL     1       2.967   2.754  19.012  0.00  0.00    +0.000 C 
BRANCH  21  22
ATOM     22  N   UNL     1       1.677   2.333  19.600  0.00  0.00    +0.000 NA
ATOM     23  C   UNL     1       1.337   3.145  20.771  0.00  0.00    +0.000 C 
ATOM     24  C   UNL     1       0.611   2.430  18.602  0.00  0.00    +0.000 C 
ENDBRANCH  21  22
ENDBRANCH  20  21
ENDBRANCH  18  20
ENDBRANCH   7  18
BRANCH   1  25
ATOM     25  O   UNL     1       0.404  10.723  18.739  0.00  0.00    +0.000 OA
BRANCH  25  26
ATOM     26  C   UNL     1      -1.022  10.688  18.726  0.00  0.00    +0.000 C 
BRANCH  26  28
ATOM     27  N   UNL     1      -2.834  12.219  19.397  0.00  0.00    +0.000 N 
ATOM     28  C   UNL     1      -1.618  11.669  19.741  0.00  0.00    +0.000 C 
ATOM     29  O   UNL     1      -1.037  11.939  20.790  0.00  0.00    +0.000 OA
ATOM     30  H   UNL     1      -3.341  11.820  18.610  0.00  0.00    +0.000 HD
BRANCH  27  31
ATOM     31  C   UNL     1      -3.512  13.124  20.299  0.00  0.00    +0.000 C 
BRANCH  31  32
ATOM     32  C   UNL     1      -4.908  12.648  20.752  0.00  0.00    +0.000 C 
BRANCH  32  34
ATOM     33  C   UNL     1      -3.786  12.728  22.908  0.00  0.00    +0.000 C 
ATOM     34  N   UNL     1      -5.038  12.421  22.210  0.00  0.00    +0.000 NA
ATOM     35  C   UNL     1      -6.109  13.261  22.761  0.00  0.00    +0.000 C 
ENDBRANCH  32  34
ENDBRANCH  31  32
ENDBRANCH  27  31
ENDBRANCH  26  28
ENDBRANCH  25  26
ENDBRANCH   1  25
TORSDOF 10
ENDMDL
MODEL 5
REMARK VINA RESULT:      -7.4      1.934      4.283
REMARK  Name = 
REMARK  14 active torsions:
REMARK  status: ('A' for Active; 'I' for Inactive)
REMARK    1  A    between atoms: C_1  and  N_2
REMARK    2  A    between atoms: N_2  and  C_3
REMARK    3  A    between atoms: N_2  and  C_4
REMARK    4  A    between atoms: C_4  and  C_5
REMARK    5  A    between atoms: C_5  and  N_6
REMARK    6  A    between atoms: C_7  and  C_9
REMARK    7  A    between atoms: C_9  and  O_10
REMARK    8  A    between atoms: O_10  and  C_11
REMARK    9  A    between atoms: C_17  and  N_18
REMARK   10  A    between atoms: N_18  and  C_19
REMARK   11  A    between atoms: C_19  and  C_20
REMARK   12  A    between atoms: C_20  and  N_21
REMARK   13  A    between atoms: N_21  and  C_22
REMARK   14  A    between atoms: N_21  and  C_23
REMARK                            x       y       z     vdW  Elec       q    Type
REMARK                         _______ _______ _______ _____ _____    ______ ____
ROOT
ATOM      1  C   UNL     1      -0.151  10.537  20.304  0.00  0.00    +0.000 A 
ATOM      2  C   UNL     1       0.463  11.118  19.189  0.00  0.00    +0.000 A 
ATOM      3  C   UNL     1       1.395  10.408  18.427  0.00  0.00    +0.000 A 
ATOM      4  C   UNL     1       1.681   9.105  18.836  0.00  0.00    +0.000 A 
ATOM      5  O   UNL     1       2.544   8.274  18.204  0.00  0.00    +0.000 OA
ATOM      6  C   UNL     1       2.564   7.101  18.897  0.00  0.00    +0.000 A 
ATOM      7  C   UNL     1       3.316   5.959  18.578  0.00  0.00    +0.000 A 
ATOM      8  C   UNL     1       3.128   4.872  19.479  0.00  0.00    +0.000 A 
ATOM      9  C   UNL     1       3.825   3.641  19.332  0.00  0.00    +0.000 A 
ATOM     10  C   UNL     1       3.653   2.586  20.218  0.00  0.00    +0.000 A 
ATOM     11  C   UNL     1       2.769   2.732  21.277  0.00  0.00    +0.000 A 
ATOM     12  C   UNL     1       2.085   3.941  21.439  0.00  0.00    +0.000 A 
ATOM     13  C   UNL     1       2.237   5.028  20.577  0.00  0.00    +0.000 A 
ATOM     14  N   UNL     1       1.524   6.144  20.847  0.00  0.00    +0.000 NA
ATOM     15  C   UNL     1       1.710   7.179  19.988  0.00  0.00    +0.000 A 
ATOM     16  C   UNL     1       1.119   8.483  19.948  0.00  0.00    +0.000 A 
ATOM     17  C   UNL     1       0.187   9.225  20.700  0.00  0.00    +0.000 A 
ENDROOT
BRANCH   7  18
ATOM     18  N   UNL     1       4.097   5.830  17.423  0.00  0.00    +0.000 N 
ATOM     19  H   UNL     1       4.383   4.888  17.176  0.00  0.00    +0.000 HD
BRANCH  18  20
ATOM     20  C   UNL     1       5.176   6.785  17.185  0.00  0.00    +0.000 C 
BRANCH  20  21
ATOM     21  C   UNL     1       6.299   6.122  16.351  0.00  0.00    +0.000 C 
BRANCH  21  22
ATOM     22  N   UNL     1       7.574   5.927  17.075  0.00  0.00    +0.000 NA
ATOM     23  C   UNL     1       7.768   6.962  18.094  0.00  0.00    +0.000 C 
ATOM     24  C   UNL     1       7.604   4.604  17.700  0.00  0.00    +0.000 C 
ENDBRANCH  21  22
ENDBRANCH  20  21
ENDBRANCH  18  20
ENDBRANCH   7  18
BRANCH   1  25
ATOM     25  O   UNL     1      -1.049  11.180  21.116  0.00  0.00    +0.000 OA
BRANCH  25  26
ATOM     26  C   UNL     1      -0.656  11.398  22.470  0.00  0.00    +0.000 C 
BRANCH  26  28
ATOM     27  N   UNL     1      -2.891  11.770  23.440  0.00  0.00    +0.000 N 
ATOM     28  C   UNL     1      -1.645  12.309  23.203  0.00  0.00    +0.000 C 
ATOM     29  O   UNL     1      -1.333  13.446  23.551  0.00  0.00    +0.000 OA
ATOM     30  H   UNL     1      -3.024  10.773  23.289  0.00  0.00    +0.000 HD
BRANCH  27  31
ATOM     31  C   UNL     1      -3.892  12.524  24.163  0.00  0.00    +0.000 C 
BRANCH  31  32
ATOM     32  C   UNL     1      -4.972  13.171  23.272  0.00  0.00    +0.000 C 
BRANCH  32  34
ATOM     33  C   UNL     1      -6.790  14.762  23.547  0.00  0.00    +0.000 C 
ATOM     34  N   UNL     1      -6.247  13.466  23.965  0.00  0.00    +0.000 NA
ATOM     35  C   UNL     1      -7.236  12.420  23.673  0.00  0.00    +0.000 C 
ENDBRANCH  32  34
ENDBRANCH  31  32
ENDBRANCH  27  31
ENDBRANCH  26  28
ENDBRANCH  25  26
ENDBRANCH   1  25
TORSDOF 10
ENDMDL
MODEL 6
REMARK VINA RESULT:      -7.4      2.128      2.391
REMARK  Name = 
REMARK  14 active torsions:
REMARK  status: ('A' for Active; 'I' for Inactive)
REMARK    1  A    between atoms: C_1  and  N_2
REMARK    2  A    between atoms: N_2  and  C_3
REMARK    3  A    between atoms: N_2  and  C_4
REMARK    4  A    between atoms: C_4  and  C_5
REMARK    5  A    between atoms: C_5  and  N_6
REMARK    6  A    between atoms: C_7  and  C_9
REMARK    7  A    between atoms: C_9  and  O_10
REMARK    8  A    between atoms: O_10  and  C_11
REMARK    9  A    between atoms: C_17  and  N_18
REMARK   10  A    between atoms: N_18  and  C_19
REMARK   11  A    between atoms: C_19  and  C_20
REMARK   12  A    between atoms: C_20  and  N_21
REMARK   13  A    between atoms: N_21  and  C_22
REMARK   14  A    between atoms: N_21  and  C_23
REMARK                            x       y       z     vdW  Elec       q    Type
REMARK                         _______ _______ _______ _____ _____    ______ ____
ROOT
ATOM      1  C   UNL     1       0.910   9.452  19.293  0.00  0.00    +0.000 A 
ATOM      2  C   UNL     1       0.765   8.815  20.530  0.00  0.00    +0.000 A 
ATOM      3  C   UNL     1       1.481   7.652  20.831  0.00  0.00    +0.000 A 
ATOM      4  C   UNL     1       2.334   7.164  19.841  0.00  0.00    +0.000 A 
ATOM      5  O   UNL     1       3.112   6.063  19.972  0.00  0.00    +0.000 OA
ATOM      6  C   UNL     1       3.792   5.901  18.803  0.00  0.00    +0.000 A 
ATOM      7  C   UNL     1       4.720   4.888  18.515  0.00  0.00    +0.000 A 
ATOM      8  C   UNL     1       5.286   4.975  17.210  0.00  0.00    +0.000 A 
ATOM      9  C   UNL     1       6.225   4.023  16.729  0.00  0.00    +0.000 A 
ATOM     10  C   UNL     1       6.767   4.099  15.453  0.00  0.00    +0.000 A 
ATOM     11  C   UNL     1       6.384   5.141  14.620  0.00  0.00    +0.000 A 
ATOM     12  C   UNL     1       5.453   6.079  15.077  0.00  0.00    +0.000 A 
ATOM     13  C   UNL     1       4.880   6.031  16.348  0.00  0.00    +0.000 A 
ATOM     14  N   UNL     1       3.985   6.994  16.666  0.00  0.00    +0.000 NA
ATOM     15  C   UNL     1       3.446   6.904  17.909  0.00  0.00    +0.000 A 
ATOM     16  C   UNL     1       2.501   7.741  18.585  0.00  0.00    +0.000 A 
ATOM     17  C   UNL     1       1.763   8.909  18.308  0.00  0.00    +0.000 A 
ENDROOT
BRANCH   7  18
ATOM     18  N   UNL     1       5.157   3.935  19.443  0.00  0.00    +0.000 N 
ATOM     19  H   UNL     1       6.162   3.800  19.510  0.00  0.00    +0.000 HD
BRANCH  18  20
ATOM     20  C   UNL     1       4.450   2.662  19.541  0.00  0.00    +0.000 C 
BRANCH  20  21
ATOM     21  C   UNL     1       3.386   2.730  20.664  0.00  0.00    +0.000 C 
BRANCH  21  22
ATOM     22  N   UNL     1       2.016   2.369  20.239  0.00  0.00    +0.000 NA
ATOM     23  C   UNL     1       1.025   2.783  21.236  0.00  0.00    +0.000 C 
ATOM     24  C   UNL     1       1.708   2.985  18.948  0.00  0.00    +0.000 C 
ENDBRANCH  21  22
ENDBRANCH  20  21
ENDBRANCH  18  20
ENDBRANCH   7  18
BRANCH   1  25
ATOM     25  O   UNL     1       0.219  10.574  18.915  0.00  0.00    +0.000 OA
BRANCH  25  26
ATOM     26  C   UNL     1      -0.814  10.402  17.947  0.00  0.00    +0.000 C 
BRANCH  26  28
ATOM     27  N   UNL     1      -3.177  11.061  17.707  0.00  0.00    +0.000 N 
ATOM     28  C   UNL     1      -1.919  11.450  18.112  0.00  0.00    +0.000 C 
ATOM     29  O   UNL     1      -1.682  12.564  18.576  0.00  0.00    +0.000 OA
ATOM     30  H   UNL     1      -3.338  10.077  17.504  0.00  0.00    +0.000 HD
BRANCH  27  31
ATOM     31  C   UNL     1      -4.306  11.954  17.857  0.00  0.00    +0.000 C 
BRANCH  31  32
ATOM     32  C   UNL     1      -5.057  11.815  19.198  0.00  0.00    +0.000 C 
BRANCH  32  34
ATOM     33  C   UNL     1      -7.017  12.116  17.791  0.00  0.00    +0.000 C 
ATOM     34  N   UNL     1      -6.516  11.598  19.068  0.00  0.00    +0.000 NA
ATOM     35  C   UNL     1      -6.826  10.165  19.155  0.00  0.00    +0.000 C 
ENDBRANCH  32  34
ENDBRANCH  31  32
ENDBRANCH  27  31
ENDBRANCH  26  28
ENDBRANCH  25  26
ENDBRANCH   1  25
TORSDOF 10
ENDMDL
MODEL 7
REMARK VINA RESULT:      -7.4      2.089      2.292
REMARK  Name = 
REMARK  14 active torsions:
REMARK  status: ('A' for Active; 'I' for Inactive)
REMARK    1  A    between atoms: C_1  and  N_2
REMARK    2  A    between atoms: N_2  and  C_3
REMARK    3  A    between atoms: N_2  and  C_4
REMARK    4  A    between atoms: C_4  and  C_5
REMARK    5  A    between atoms: C_5  and  N_6
REMARK    6  A    between atoms: C_7  and  C_9
REMARK    7  A    between atoms: C_9  and  O_10
REMARK    8  A    between atoms: O_10  and  C_11
REMARK    9  A    between atoms: C_17  and  N_18
REMARK   10  A    between atoms: N_18  and  C_19
REMARK   11  A    between atoms: C_19  and  C_20
REMARK   12  A    between atoms: C_20  and  N_21
REMARK   13  A    between atoms: N_21  and  C_22
REMARK   14  A    between atoms: N_21  and  C_23
REMARK                            x       y       z     vdW  Elec       q    Type
REMARK                         _______ _______ _______ _____ _____    ______ ____
ROOT
ATOM      1  C   UNL     1       0.784   9.644  19.205  0.00  0.00    +0.000 A 
ATOM      2  C   UNL     1       0.620   9.061  20.466  0.00  0.00    +0.000 A 
ATOM      3  C   UNL     1       1.330   7.912  20.827  0.00  0.00    +0.000 A 
ATOM      4  C   UNL     1       2.196   7.380  19.872  0.00  0.00    +0.000 A 
ATOM      5  O   UNL     1       2.969   6.285  20.061  0.00  0.00    +0.000 OA
ATOM      6  C   UNL     1       3.666   6.071  18.911  0.00  0.00    +0.000 A 
ATOM      7  C   UNL     1       4.597   5.046  18.680  0.00  0.00    +0.000 A 
ATOM      8  C   UNL     1       5.182   5.076  17.381  0.00  0.00    +0.000 A 
ATOM      9  C   UNL     1       6.126   4.102  16.956  0.00  0.00    +0.000 A 
ATOM     10  C   UNL     1       6.686   4.123  15.685  0.00  0.00    +0.000 A 
ATOM     11  C   UNL     1       6.318   5.128  14.803  0.00  0.00    +0.000 A 
ATOM     12  C   UNL     1       5.381   6.086  15.205  0.00  0.00    +0.000 A 
ATOM     13  C   UNL     1       4.790   6.094  16.469  0.00  0.00    +0.000 A 
ATOM     14  N   UNL     1       3.893   7.071  16.732  0.00  0.00    +0.000 NA
ATOM     15  C   UNL     1       3.335   7.036  17.969  0.00  0.00    +0.000 A 
ATOM     16  C   UNL     1       2.382   7.902  18.595  0.00  0.00    +0.000 A 
ATOM     17  C   UNL     1       1.650   9.058  18.256  0.00  0.00    +0.000 A 
ENDROOT
BRANCH   7  18
ATOM     18  N   UNL     1       5.019   4.133  19.655  0.00  0.00    +0.000 N 
ATOM     19  H   UNL     1       6.014   4.119  19.857  0.00  0.00    +0.000 HD
BRANCH  18  20
ATOM     20  C   UNL     1       4.465   2.783  19.651  0.00  0.00    +0.000 C 
BRANCH  20  21
ATOM     21  C   UNL     1       2.939   2.834  19.393  0.00  0.00    +0.000 C 
BRANCH  21  22
ATOM     22  N   UNL     1       2.136   3.325  20.534  0.00  0.00    +0.000 NA
ATOM     23  C   UNL     1       0.738   3.533  20.148  0.00  0.00    +0.000 C 
ATOM     24  C   UNL     1       2.209   2.380  21.648  0.00  0.00    +0.000 C 
ENDBRANCH  21  22
ENDBRANCH  20  21
ENDBRANCH  18  20
ENDBRANCH   7  18
BRANCH   1  25
ATOM     25  O   UNL     1       0.101  10.749  18.768  0.00  0.00    +0.000 OA
BRANCH  25  26
ATOM     26  C   UNL     1      -1.090  10.520  18.016  0.00  0.00    +0.000 C 
BRANCH  26  28
ATOM     27  N   UNL     1      -3.487  11.089  17.970  0.00  0.00    +0.000 N 
ATOM     28  C   UNL     1      -2.271  11.314  18.579  0.00  0.00    +0.000 C 
ATOM     29  O   UNL     1      -2.130  12.100  19.514  0.00  0.00    +0.000 OA
ATOM     30  H   UNL     1      -3.570  10.303  17.330  0.00  0.00    +0.000 HD
BRANCH  27  31
ATOM     31  C   UNL     1      -4.682  11.752  18.447  0.00  0.00    +0.000 C 
BRANCH  31  32
ATOM     32  C   UNL     1      -5.943  10.863  18.459  0.00  0.00    +0.000 C 
BRANCH  32  34
ATOM     33  C   UNL     1      -7.412  10.613  20.381  0.00  0.00    +0.000 C 
ATOM     34  N   UNL     1      -7.089  11.430  19.207  0.00  0.00    +0.000 NA
ATOM     35  C   UNL     1      -6.780  12.796  19.648  0.00  0.00    +0.000 C 
ENDBRANCH  32  34
ENDBRANCH  31  32
ENDBRANCH  27  31
ENDBRANCH  26  28
ENDBRANCH  25  26
ENDBRANCH   1  25
TORSDOF 10
ENDMDL
MODEL 8
REMARK VINA RESULT:      -7.3      2.574      4.445
REMARK  Name = 
REMARK  14 active torsions:
REMARK  status: ('A' for Active; 'I' for Inactive)
REMARK    1  A    between atoms: C_1  and  N_2
REMARK    2  A    between atoms: N_2  and  C_3
REMARK    3  A    between atoms: N_2  and  C_4
REMARK    4  A    between atoms: C_4  and  C_5
REMARK    5  A    between atoms: C_5  and  N_6
REMARK    6  A    between atoms: C_7  and  C_9
REMARK    7  A    between atoms: C_9  and  O_10
REMARK    8  A    between atoms: O_10  and  C_11
REMARK    9  A    between atoms: C_17  and  N_18
REMARK   10  A    between atoms: N_18  and  C_19
REMARK   11  A    between atoms: C_19  and  C_20
REMARK   12  A    between atoms: C_20  and  N_21
REMARK   13  A    between atoms: N_21  and  C_22
REMARK   14  A    between atoms: N_21  and  C_23
REMARK                            x       y       z     vdW  Elec       q    Type
REMARK                         _______ _______ _______ _____ _____    ______ ____
ROOT
ATOM      1  C   UNL     1       0.551  10.611  19.881  0.00  0.00    +0.000 A 
ATOM      2  C   UNL     1       1.116  11.050  18.679  0.00  0.00    +0.000 A 
ATOM      3  C   UNL     1       1.908  10.199  17.902  0.00  0.00    +0.000 A 
ATOM      4  C   UNL     1       2.108   8.907  18.387  0.00  0.00    +0.000 A 
ATOM      5  O   UNL     1       2.832   7.952  17.755  0.00  0.00    +0.000 OA
ATOM      6  C   UNL     1       2.805   6.835  18.533  0.00  0.00    +0.000 A 
ATOM      7  C   UNL     1       3.418   5.605  18.245  0.00  0.00    +0.000 A 
ATOM      8  C   UNL     1       3.211   4.607  19.240  0.00  0.00    +0.000 A 
ATOM      9  C   UNL     1       3.776   3.307  19.134  0.00  0.00    +0.000 A 
ATOM     10  C   UNL     1       3.586   2.338  20.111  0.00  0.00    +0.000 A 
ATOM     11  C   UNL     1       2.816   2.645  21.223  0.00  0.00    +0.000 A 
ATOM     12  C   UNL     1       2.263   3.923  21.345  0.00  0.00    +0.000 A 
ATOM     13  C   UNL     1       2.438   4.926  20.391  0.00  0.00    +0.000 A 
ATOM     14  N   UNL     1       1.857   6.124  20.629  0.00  0.00    +0.000 NA
ATOM     15  C   UNL     1       2.060   7.072  19.680  0.00  0.00    +0.000 A 
ATOM     16  C   UNL     1       1.591   8.422  19.586  0.00  0.00    +0.000 A 
ATOM     17  C   UNL     1       0.800   9.303  20.351  0.00  0.00    +0.000 A 
ENDROOT
BRANCH   7  18
ATOM     18  N   UNL     1       4.080   5.320  17.044  0.00  0.00    +0.000 N 
ATOM     19  H   UNL     1       4.136   4.340  16.784  0.00  0.00    +0.000 HD
BRANCH  18  20
ATOM     20  C   UNL     1       5.325   6.017  16.736  0.00  0.00    +0.000 C 
BRANCH  20  21
ATOM     21  C   UNL     1       6.535   5.186  17.226  0.00  0.00    +0.000 C 
BRANCH  21  22
ATOM     22  N   UNL     1       7.657   5.987  17.763  0.00  0.00    +0.000 NA
ATOM     23  C   UNL     1       7.449   7.417  17.525  0.00  0.00    +0.000 C 
ATOM     24  C   UNL     1       7.814   5.740  19.196  0.00  0.00    +0.000 C 
ENDBRANCH  21  22
ENDBRANCH  20  21
ENDBRANCH  18  20
ENDBRANCH   7  18
BRANCH   1  25
ATOM     25  O   UNL     1      -0.209  11.394  20.711  0.00  0.00    +0.000 OA
BRANCH  25  26
ATOM     26  C   UNL     1      -0.460  12.733  20.286  0.00  0.00    +0.000 C 
BRANCH  26  28
ATOM     27  N   UNL     1      -2.650  12.029  19.400  0.00  0.00    +0.000 N 
ATOM     28  C   UNL     1      -1.959  12.992  20.102  0.00  0.00    +0.000 C 
ATOM     29  O   UNL     1      -2.496  14.000  20.557  0.00  0.00    +0.000 OA
ATOM     30  H   UNL     1      -2.188  11.143  19.210  0.00  0.00    +0.000 HD
BRANCH  27  31
ATOM     31  C   UNL     1      -4.079  12.146  19.203  0.00  0.00    +0.000 C 
BRANCH  31  32
ATOM     32  C   UNL     1      -4.587  11.578  17.862  0.00  0.00    +0.000 C 
BRANCH  32  34
ATOM     33  C   UNL     1      -6.812  10.801  18.462  0.00  0.00    +0.000 C 
ATOM     34  N   UNL     1      -6.042  11.738  17.637  0.00  0.00    +0.000 NA
ATOM     35  C   UNL     1      -6.458  13.109  17.961  0.00  0.00    +0.000 C 
ENDBRANCH  32  34
ENDBRANCH  31  32
ENDBRANCH  27  31
ENDBRANCH  26  28
ENDBRANCH  25  26
ENDBRANCH   1  25
TORSDOF 10
ENDMDL
MODEL 9
REMARK VINA RESULT:      -7.3      2.340      2.946
REMARK  Name = 
REMARK  14 active torsions:
REMARK  status: ('A' for Active; 'I' for Inactive)
REMARK    1  A    between atoms: C_1  and  N_2
REMARK    2  A    between atoms: N_2  and  C_3
REMARK    3  A    between atoms: N_2  and  C_4
REMARK    4  A    between atoms: C_4  and  C_5
REMARK    5  A    between atoms: C_5  and  N_6
REMARK    6  A    between atoms: C_7  and  C_9
REMARK    7  A    between atoms: C_9  and  O_10
REMARK    8  A    between atoms: O_10  and  C_11
REMARK    9  A    between atoms: C_17  and  N_18
REMARK   10  A    between atoms: N_18  and  C_19
REMARK   11  A    between atoms: C_19  and  C_20
REMARK   12  A    between atoms: C_20  and  N_21
REMARK   13  A    between atoms: N_21  and  C_22
REMARK   14  A    between atoms: N_21  and  C_23
REMARK                            x       y       z     vdW  Elec       q    Type
REMARK                         _______ _______ _______ _____ _____    ______ ____
ROOT
ATOM      1  C   UNL     1       1.031   9.519  19.434  0.00  0.00    +0.000 A 
ATOM      2  C   UNL     1       0.829   8.849  20.645  0.00  0.00    +0.000 A 
ATOM      3  C   UNL     1       1.472   7.637  20.913  0.00  0.00    +0.000 A 
ATOM      4  C   UNL     1       2.311   7.135  19.919  0.00  0.00    +0.000 A 
ATOM      5  O   UNL     1       3.021   5.986  20.020  0.00  0.00    +0.000 OA
ATOM      6  C   UNL     1       3.709   5.825  18.856  0.00  0.00    +0.000 A 
ATOM      7  C   UNL     1       4.582   4.771  18.545  0.00  0.00    +0.000 A 
ATOM      8  C   UNL     1       5.173   4.871  17.252  0.00  0.00    +0.000 A 
ATOM      9  C   UNL     1       6.064   3.883  16.751  0.00  0.00    +0.000 A 
ATOM     10  C   UNL     1       6.630   3.973  15.486  0.00  0.00    +0.000 A 
ATOM     11  C   UNL     1       6.322   5.064  14.686  0.00  0.00    +0.000 A 
ATOM     12  C   UNL     1       5.439   6.038  15.163  0.00  0.00    +0.000 A 
ATOM     13  C   UNL     1       4.843   5.979  16.423  0.00  0.00    +0.000 A 
ATOM     14  N   UNL     1       4.001   6.981  16.764  0.00  0.00    +0.000 NA
ATOM     15  C   UNL     1       3.437   6.878  17.994  0.00  0.00    +0.000 A 
ATOM     16  C   UNL     1       2.532   7.745  18.687  0.00  0.00    +0.000 A 
ATOM     17  C   UNL     1       1.867   8.963  18.442  0.00  0.00    +0.000 A 
ENDROOT
BRANCH   7  18
ATOM     18  N   UNL     1       4.948   3.762  19.444  0.00  0.00    +0.000 N 
ATOM     19  H   UNL     1       5.942   3.573  19.527  0.00  0.00    +0.000 HD
BRANCH  18  20
ATOM     20  C   UNL     1       4.174   2.524  19.476  0.00  0.00    +0.000 C 
BRANCH  20  21
ATOM     21  C   UNL     1       3.140   2.574  20.627  0.00  0.00    +0.000 C 
BRANCH  21  22
ATOM     22  N   UNL     1       1.735   2.394  20.201  0.00  0.00    +0.000 NA
ATOM     23  C   UNL     1       0.919   3.556  20.563  0.00  0.00    +0.000 C 
ATOM     24  C   UNL     1       1.668   2.170  18.757  0.00  0.00    +0.000 C 
ENDBRANCH  21  22
ENDBRANCH  20  21
ENDBRANCH  18  20
ENDBRANCH   7  18
BRANCH   1  25
ATOM     25  O   UNL     1       0.413  10.693  19.086  0.00  0.00    +0.000 OA
BRANCH  25  26
ATOM     26  C   UNL     1       1.253  11.766  18.664  0.00  0.00    +0.000 C 
BRANCH  26  28
ATOM     27  N   UNL     1       0.879  14.182  18.982  0.00  0.00    +0.000 N 
ATOM     28  C   UNL     1       1.132  12.975  19.598  0.00  0.00    +0.000 C 
ATOM     29  O   UNL     1       1.256  12.860  20.815  0.00  0.00    +0.000 OA
ATOM     30  H   UNL     1       0.611  14.178  18.001  0.00  0.00    +0.000 HD
BRANCH  27  31
ATOM     31  C   UNL     1       0.701  15.384  19.768  0.00  0.00    +0.000 C 
BRANCH  31  32
ATOM     32  C   UNL     1      -0.270  16.412  19.152  0.00  0.00    +0.000 C 
BRANCH  32  34
ATOM     33  C   UNL     1      -0.566  18.070  17.398  0.00  0.00    +0.000 C 
ATOM     34  N   UNL     1       0.381  17.465  18.340  0.00  0.00    +0.000 NA
ATOM     35  C   UNL     1       0.922  18.516  19.212  0.00  0.00    +0.000 C 
ENDBRANCH  32  34
ENDBRANCH  31  32
ENDBRANCH  27  31
ENDBRANCH  26  28
ENDBRANCH  25  26
ENDBRANCH   1  25
TORSDOF 10
ENDMDL
