MODEL 1
REMARK VINA RESULT:      -6.6      0.000      0.000
REMARK  Name = 
REMARK  17 active torsions:
REMARK  status: ('A' for Active; 'I' for Inactive)
REMARK    1  A    between atoms: C_1  and  C_2
REMARK    2  A    between atoms: C_2  and  C_3
REMARK    3  A    between atoms: C_3  and  C_4
REMARK    4  A    between atoms: C_3  and  N_5
REMARK    5  A    between atoms: N_5  and  C_6
REMARK    6  A    between atoms: N_5  and  C_22
REMARK    7  A    between atoms: C_6  and  C_7
REMARK    8  A    between atoms: C_7  and  C_8
REMARK    9  A    between atoms: C_8  and  C_9
REMARK   10  A    between atoms: C_8  and  C_13
REMARK   11  A    between atoms: C_8  and  C_16
REMARK   12  A    between atoms: C_9  and  C_10
REMARK   13  A    between atoms: C_10  and  C_11
REMARK   14  A    between atoms: C_10  and  C_12
REMARK   15  A    between atoms: C_22  and  C_23
REMARK   16  A    between atoms: C_22  and  C_24
REMARK   17  A    between atoms: C_24  and  C_25
REMARK                            x       y       z     vdW  Elec       q    Type
REMARK                         _______ _______ _______ _____ _____    ______ ____
ROOT
ATOM      1  C   UNL     1       5.733   5.376  17.090  0.00  0.00    +0.000 C 
ENDROOT
BRANCH   1   2
ATOM      2  C   UNL     1       5.144   4.107  17.753  0.00  0.00    +0.000 A 
ATOM      3  C   UNL     1       4.372   3.190  17.039  0.00  0.00    +0.000 A 
ATOM      4  C   UNL     1       3.783   2.123  17.721  0.00  0.00    +0.000 A 
ATOM      5  C   UNL     1       3.982   1.980  19.089  0.00  0.00    +0.000 A 
ATOM      6  C   UNL     1       4.785   2.904  19.723  0.00  0.00    +0.000 A 
ATOM      7  N   UNL     1       5.371   3.938  19.085  0.00  0.00    +0.000 NA
ENDBRANCH   1   2
BRANCH   1   8
ATOM      8  C   UNL     1       7.250   5.410  17.379  0.00  0.00    +0.000 C 
ATOM      9  N   UNL     1       7.857   4.211  17.621  0.00  0.00    +0.000 N 
ATOM     10  O   UNL     1       7.917   6.441  17.423  0.00  0.00    +0.000 OA
ATOM     11  H   UNL     1       7.393   3.333  17.393  0.00  0.00    +0.000 HD
ATOM     12  H   UNL     1       8.865   4.203  17.726  0.00  0.00    +0.000 HD
ENDBRANCH   1   8
BRANCH   1  13
ATOM     13  C   UNL     1       5.064   6.637  17.734  0.00  0.00    +0.000 C 
BRANCH  13  14
ATOM     14  C   UNL     1       3.538   6.800  17.722  0.00  0.00    +0.000 C 
BRANCH  14  15
ATOM     15  N   UNL     1       2.764   6.540  19.006  0.00  0.00    +0.000 NA
BRANCH  15  16
ATOM     16  C   UNL     1       2.149   5.160  19.110  0.00  0.00    +0.000 C 
ATOM     17  C   UNL     1       1.326   4.768  17.864  0.00  0.00    +0.000 C 
BRANCH  16  19
ATOM     18  C   UNL     1       1.519   3.681  21.162  0.00  0.00    +0.000 C 
ATOM     19  C   UNL     1       1.159   4.893  20.294  0.00  0.00    +0.000 C 
ENDBRANCH  16  19
ENDBRANCH  15  16
BRANCH  15  20
ATOM     20  C   UNL     1       1.800   7.709  19.162  0.00  0.00    +0.000 C 
ATOM     21  C   UNL     1       1.670   8.213  20.619  0.00  0.00    +0.000 C 
BRANCH  20  22
ATOM     22  C   UNL     1       1.880   8.954  18.233  0.00  0.00    +0.000 C 
ATOM     23  C   UNL     1       0.587   9.728  18.050  0.00  0.00    +0.000 C 
ENDBRANCH  20  22
ENDBRANCH  15  20
ENDBRANCH  14  15
ENDBRANCH  13  14
ENDBRANCH   1  13
BRANCH   1  24
ATOM     24  C   UNL     1       5.497   5.348  15.531  0.00  0.00    +0.000 C 
BRANCH  24  25
ATOM     25  C   UNL     1       6.418   4.480  14.619  0.00  0.00    +0.000 C 
ATOM     26  C   UNL     1       5.563   3.754  13.567  0.00  0.00    +0.000 C 
ATOM     27  C   UNL     1       7.510   5.252  13.875  0.00  0.00    +0.000 C 
ENDBRANCH  24  25
ENDBRANCH   1  24
TORSDOF 11
ENDMDL
MODEL 2
REMARK VINA RESULT:      -6.3      2.086      5.795
REMARK  Name = 
REMARK  17 active torsions:
REMARK  status: ('A' for Active; 'I' for Inactive)
REMARK    1  A    between atoms: C_1  and  C_2
REMARK    2  A    between atoms: C_2  and  C_3
REMARK    3  A    between atoms: C_3  and  C_4
REMARK    4  A    between atoms: C_3  and  N_5
REMARK    5  A    between atoms: N_5  and  C_6
REMARK    6  A    between atoms: N_5  and  C_22
REMARK    7  A    between atoms: C_6  and  C_7
REMARK    8  A    between atoms: C_7  and  C_8
REMARK    9  A    between atoms: C_8  and  C_9
REMARK   10  A    between atoms: C_8  and  C_13
REMARK   11  A    between atoms: C_8  and  C_16
REMARK   12  A    between atoms: C_9  and  C_10
REMARK   13  A    between atoms: C_10  and  C_11
REMARK   14  A    between atoms: C_10  and  C_12
REMARK   15  A    between atoms: C_22  and  C_23
REMARK   16  A    between atoms: C_22  and  C_24
REMARK   17  A    between atoms: C_24  and  C_25
REMARK                            x       y       z     vdW  Elec       q    Type
REMARK                         _______ _______ _______ _____ _____    ______ ____
ROOT
ATOM      1  C   UNL     1       2.923   4.145  18.249  0.00  0.00    +0.000 C 
ENDROOT
BRANCH   1   2
ATOM      2  C   UNL     1       2.539   3.492  19.600  0.00  0.00    +0.000 A 
ATOM      3  C   UNL     1       1.268   3.635  20.156  0.00  0.00    +0.000 A 
ATOM      4  C   UNL     1       1.020   3.111  21.426  0.00  0.00    +0.000 A 
ATOM      5  C   UNL     1       2.030   2.446  22.111  0.00  0.00    +0.000 A 
ATOM      6  C   UNL     1       3.252   2.312  21.486  0.00  0.00    +0.000 A 
ATOM      7  N   UNL     1       3.513   2.803  20.257  0.00  0.00    +0.000 NA
ENDBRANCH   1   2
BRANCH   1   8
ATOM      8  C   UNL     1       2.571   3.153  17.119  0.00  0.00    +0.000 C 
ATOM      9  N   UNL     1       2.534   1.830  17.451  0.00  0.00    +0.000 N 
ATOM     10  O   UNL     1       2.350   3.489  15.957  0.00  0.00    +0.000 OA
ATOM     11  H   UNL     1       2.507   1.533  18.425  0.00  0.00    +0.000 HD
ATOM     12  H   UNL     1       2.221   1.173  16.745  0.00  0.00    +0.000 HD
ENDBRANCH   1   8
BRANCH   1  13
ATOM     13  C   UNL     1       4.467   4.405  18.236  0.00  0.00    +0.000 C 
BRANCH  13  14
ATOM     14  C   UNL     1       5.341   3.846  17.105  0.00  0.00    +0.000 C 
BRANCH  14  15
ATOM     15  N   UNL     1       5.948   4.816  16.102  0.00  0.00    +0.000 NA
BRANCH  15  16
ATOM     16  C   UNL     1       6.377   4.191  14.792  0.00  0.00    +0.000 C 
ATOM     17  C   UNL     1       7.386   5.057  14.008  0.00  0.00    +0.000 C 
BRANCH  16  19
ATOM     18  C   UNL     1       5.790   3.354  12.394  0.00  0.00    +0.000 C 
ATOM     19  C   UNL     1       5.264   3.887  13.732  0.00  0.00    +0.000 C 
ENDBRANCH  16  19
ENDBRANCH  15  16
BRANCH  15  20
ATOM     20  C   UNL     1       7.028   5.582  16.856  0.00  0.00    +0.000 C 
ATOM     21  C   UNL     1       6.602   7.011  17.265  0.00  0.00    +0.000 C 
BRANCH  20  22
ATOM     22  C   UNL     1       7.780   4.945  18.061  0.00  0.00    +0.000 C 
ATOM     23  C   UNL     1       7.792   5.763  19.340  0.00  0.00    +0.000 C 
ENDBRANCH  20  22
ENDBRANCH  15  20
ENDBRANCH  14  15
ENDBRANCH  13  14
ENDBRANCH   1  13
BRANCH   1  24
ATOM     24  C   UNL     1       2.125   5.488  18.036  0.00  0.00    +0.000 C 
BRANCH  24  25
ATOM     25  C   UNL     1       2.669   6.822  18.632  0.00  0.00    +0.000 C 
ATOM     26  C   UNL     1       2.295   7.990  17.704  0.00  0.00    +0.000 C 
ATOM     27  C   UNL     1       2.159   7.164  20.034  0.00  0.00    +0.000 C 
ENDBRANCH  24  25
ENDBRANCH   1  24
TORSDOF 11
ENDMDL
MODEL 3
REMARK VINA RESULT:      -6.3      2.389      5.883
REMARK  Name = 
REMARK  17 active torsions:
REMARK  status: ('A' for Active; 'I' for Inactive)
REMARK    1  A    between atoms: C_1  and  C_2
REMARK    2  A    between atoms: C_2  and  C_3
REMARK    3  A    between atoms: C_3  and  C_4
REMARK    4  A    between atoms: C_3  and  N_5
REMARK    5  A    between atoms: N_5  and  C_6
REMARK    6  A    between atoms: N_5  and  C_22
REMARK    7  A    between atoms: C_6  and  C_7
REMARK    8  A    between atoms: C_7  and  C_8
REMARK    9  A    between atoms: C_8  and  C_9
REMARK   10  A    between atoms: C_8  and  C_13
REMARK   11  A    between atoms: C_8  and  C_16
REMARK   12  A    between atoms: C_9  and  C_10
REMARK   13  A    between atoms: C_10  and  C_11
REMARK   14  A    between atoms: C_10  and  C_12
REMARK   15  A    between atoms: C_22  and  C_23
REMARK   16  A    between atoms: C_22  and  C_24
REMARK   17  A    between atoms: C_24  and  C_25
REMARK                            x       y       z     vdW  Elec       q    Type
REMARK                         _______ _______ _______ _____ _____    ______ ____
ROOT
ATOM      1  C   UNL     1       2.780   5.397  19.399  0.00  0.00    +0.000 C 
ENDROOT
BRANCH   1   2
ATOM      2  C   UNL     1       2.304   6.838  19.095  0.00  0.00    +0.000 A 
ATOM      3  C   UNL     1       2.377   7.387  17.815  0.00  0.00    +0.000 A 
ATOM      4  C   UNL     1       2.032   8.728  17.631  0.00  0.00    +0.000 A 
ATOM      5  C   UNL     1       1.609   9.490  18.713  0.00  0.00    +0.000 A 
ATOM      6  C   UNL     1       1.528   8.872  19.943  0.00  0.00    +0.000 A 
ATOM      7  N   UNL     1       1.850   7.577  20.144  0.00  0.00    +0.000 NA
ENDBRANCH   1   2
BRANCH   1   8
ATOM      8  C   UNL     1       2.028   4.896  20.652  0.00  0.00    +0.000 C 
ATOM      9  N   UNL     1       2.784   4.614  21.753  0.00  0.00    +0.000 N 
ATOM     10  O   UNL     1       0.811   4.722  20.697  0.00  0.00    +0.000 OA
ATOM     11  H   UNL     1       3.749   4.935  21.823  0.00  0.00    +0.000 HD
ATOM     12  H   UNL     1       2.301   4.369  22.609  0.00  0.00    +0.000 HD
ENDBRANCH   1   8
BRANCH   1  13
ATOM     13  C   UNL     1       4.315   5.427  19.705  0.00  0.00    +0.000 C 
BRANCH  13  14
ATOM     14  C   UNL     1       5.335   5.111  18.603  0.00  0.00    +0.000 C 
BRANCH  14  15
ATOM     15  N   UNL     1       5.761   6.226  17.659  0.00  0.00    +0.000 NA
BRANCH  15  16
ATOM     16  C   UNL     1       5.908   5.812  16.210  0.00  0.00    +0.000 C 
ATOM     17  C   UNL     1       4.980   6.596  15.258  0.00  0.00    +0.000 C 
BRANCH  16  19
ATOM     18  C   UNL     1       5.733   3.990  14.355  0.00  0.00    +0.000 C 
ATOM     19  C   UNL     1       5.615   4.317  15.848  0.00  0.00    +0.000 C 
ENDBRANCH  16  19
ENDBRANCH  15  16
BRANCH  15  20
ATOM     20  C   UNL     1       6.989   6.868  18.292  0.00  0.00    +0.000 C 
ATOM     21  C   UNL     1       7.916   5.858  19.009  0.00  0.00    +0.000 C 
BRANCH  20  22
ATOM     22  C   UNL     1       7.889   7.855  17.493  0.00  0.00    +0.000 C 
ATOM     23  C   UNL     1       8.352   9.088  18.249  0.00  0.00    +0.000 C 
ENDBRANCH  20  22
ENDBRANCH  15  20
ENDBRANCH  14  15
ENDBRANCH  13  14
ENDBRANCH   1  13
BRANCH   1  24
ATOM     24  C   UNL     1       2.467   4.442  18.184  0.00  0.00    +0.000 C 
BRANCH  24  25
ATOM     25  C   UNL     1       2.453   2.896  18.390  0.00  0.00    +0.000 C 
ATOM     26  C   UNL     1       1.000   2.391  18.391  0.00  0.00    +0.000 C 
ATOM     27  C   UNL     1       3.222   2.093  17.339  0.00  0.00    +0.000 C 
ENDBRANCH  24  25
ENDBRANCH   1  24
TORSDOF 11
ENDMDL
MODEL 4
REMARK VINA RESULT:      -6.3      1.879      6.281
REMARK  Name = 
REMARK  17 active torsions:
REMARK  status: ('A' for Active; 'I' for Inactive)
REMARK    1  A    between atoms: C_1  and  C_2
REMARK    2  A    between atoms: C_2  and  C_3
REMARK    3  A    between atoms: C_3  and  C_4
REMARK    4  A    between atoms: C_3  and  N_5
REMARK    5  A    between atoms: N_5  and  C_6
REMARK    6  A    between atoms: N_5  and  C_22
REMARK    7  A    between atoms: C_6  and  C_7
REMARK    8  A    between atoms: C_7  and  C_8
REMARK    9  A    between atoms: C_8  and  C_9
REMARK   10  A    between atoms: C_8  and  C_13
REMARK   11  A    between atoms: C_8  and  C_16
REMARK   12  A    between atoms: C_9  and  C_10
REMARK   13  A    between atoms: C_10  and  C_11
REMARK   14  A    between atoms: C_10  and  C_12
REMARK   15  A    between atoms: C_22  and  C_23
REMARK   16  A    between atoms: C_22  and  C_24
REMARK   17  A    between atoms: C_24  and  C_25
REMARK                            x       y       z     vdW  Elec       q    Type
REMARK                         _______ _______ _______ _____ _____    ______ ____
ROOT
ATOM      1  C   UNL     1       2.935   6.184  18.500  0.00  0.00    +0.000 C 
ENDROOT
BRANCH   1   2
ATOM      2  C   UNL     1       2.132   7.453  18.878  0.00  0.00    +0.000 A 
ATOM      3  C   UNL     1       1.791   8.422  17.935  0.00  0.00    +0.000 A 
ATOM      4  C   UNL     1       1.161   9.593  18.361  0.00  0.00    +0.000 A 
ATOM      5  C   UNL     1       0.870   9.772  19.708  0.00  0.00    +0.000 A 
ATOM      6  C   UNL     1       1.204   8.758  20.580  0.00  0.00    +0.000 A 
ATOM      7  N   UNL     1       1.808   7.615  20.191  0.00  0.00    +0.000 NA
ENDBRANCH   1   2
BRANCH   1   8
ATOM      8  C   UNL     1       3.555   5.606  19.791  0.00  0.00    +0.000 C 
ATOM      9  N   UNL     1       2.698   5.335  20.818  0.00  0.00    +0.000 N 
ATOM     10  O   UNL     1       4.759   5.404  19.943  0.00  0.00    +0.000 OA
ATOM     11  H   UNL     1       1.692   5.292  20.665  0.00  0.00    +0.000 HD
ATOM     12  H   UNL     1       3.073   4.875  21.640  0.00  0.00    +0.000 HD
ENDBRANCH   1   8
BRANCH   1  13
ATOM     13  C   UNL     1       4.085   6.589  17.519  0.00  0.00    +0.000 C 
BRANCH  13  14
ATOM     14  C   UNL     1       4.913   5.514  16.804  0.00  0.00    +0.000 C 
BRANCH  14  15
ATOM     15  N   UNL     1       6.058   5.951  15.902  0.00  0.00    +0.000 NA
BRANCH  15  16
ATOM     16  C   UNL     1       6.247   5.108  14.659  0.00  0.00    +0.000 C 
ATOM     17  C   UNL     1       5.814   3.638  14.850  0.00  0.00    +0.000 C 
BRANCH  16  19
ATOM     18  C   UNL     1       7.829   5.401  12.608  0.00  0.00    +0.000 C 
ATOM     19  C   UNL     1       7.696   4.984  14.077  0.00  0.00    +0.000 C 
ENDBRANCH  16  19
ENDBRANCH  15  16
BRANCH  15  20
ATOM     20  C   UNL     1       7.280   6.083  16.804  0.00  0.00    +0.000 C 
ATOM     21  C   UNL     1       7.496   7.515  17.347  0.00  0.00    +0.000 C 
BRANCH  20  22
ATOM     22  C   UNL     1       7.534   5.087  17.972  0.00  0.00    +0.000 C 
ATOM     23  C   UNL     1       7.977   5.707  19.285  0.00  0.00    +0.000 C 
ENDBRANCH  20  22
ENDBRANCH  15  20
ENDBRANCH  14  15
ENDBRANCH  13  14
ENDBRANCH   1  13
BRANCH   1  24
ATOM     24  C   UNL     1       1.989   5.106  17.845  0.00  0.00    +0.000 C 
BRANCH  24  25
ATOM     25  C   UNL     1       2.104   3.608  18.267  0.00  0.00    +0.000 C 
ATOM     26  C   UNL     1       0.721   3.088  18.695  0.00  0.00    +0.000 C 
ATOM     27  C   UNL     1       2.638   2.667  17.186  0.00  0.00    +0.000 C 
ENDBRANCH  24  25
ENDBRANCH   1  24
TORSDOF 11
ENDMDL
MODEL 5
REMARK VINA RESULT:      -6.2      2.542      5.217
REMARK  Name = 
REMARK  17 active torsions:
REMARK  status: ('A' for Active; 'I' for Inactive)
REMARK    1  A    between atoms: C_1  and  C_2
REMARK    2  A    between atoms: C_2  and  C_3
REMARK    3  A    between atoms: C_3  and  C_4
REMARK    4  A    between atoms: C_3  and  N_5
REMARK    5  A    between atoms: N_5  and  C_6
REMARK    6  A    between atoms: N_5  and  C_22
REMARK    7  A    between atoms: C_6  and  C_7
REMARK    8  A    between atoms: C_7  and  C_8
REMARK    9  A    between atoms: C_8  and  C_9
REMARK   10  A    between atoms: C_8  and  C_13
REMARK   11  A    between atoms: C_8  and  C_16
REMARK   12  A    between atoms: C_9  and  C_10
REMARK   13  A    between atoms: C_10  and  C_11
REMARK   14  A    between atoms: C_10  and  C_12
REMARK   15  A    between atoms: C_22  and  C_23
REMARK   16  A    between atoms: C_22  and  C_24
REMARK   17  A    between atoms: C_24  and  C_25
REMARK                            x       y       z     vdW  Elec       q    Type
REMARK                         _______ _______ _______ _____ _____    ______ ____
ROOT
ATOM      1  C   UNL     1       3.026   5.393  18.597  0.00  0.00    +0.000 C 
ENDROOT
BRANCH   1   2
ATOM      2  C   UNL     1       4.517   5.657  18.274  0.00  0.00    +0.000 A 
ATOM      3  C   UNL     1       5.540   5.291  19.148  0.00  0.00    +0.000 A 
ATOM      4  C   UNL     1       6.854   5.655  18.847  0.00  0.00    +0.000 A 
ATOM      5  C   UNL     1       7.128   6.359  17.681  0.00  0.00    +0.000 A 
ATOM      6  C   UNL     1       6.072   6.658  16.845  0.00  0.00    +0.000 A 
ATOM      7  N   UNL     1       4.796   6.311  17.113  0.00  0.00    +0.000 NA
ENDBRANCH   1   2
BRANCH   1   8
ATOM      8  C   UNL     1       2.502   4.329  17.607  0.00  0.00    +0.000 C 
ATOM      9  N   UNL     1       3.436   3.542  16.997  0.00  0.00    +0.000 N 
ATOM     10  O   UNL     1       1.314   4.176  17.330  0.00  0.00    +0.000 OA
ATOM     11  H   UNL     1       4.393   3.496  17.346  0.00  0.00    +0.000 HD
ATOM     12  H   UNL     1       3.107   2.783  16.412  0.00  0.00    +0.000 HD
ENDBRANCH   1   8
BRANCH   1  13
ATOM     13  C   UNL     1       2.223   6.720  18.390  0.00  0.00    +0.000 C 
BRANCH  13  14
ATOM     14  C   UNL     1       2.271   7.831  19.447  0.00  0.00    +0.000 C 
BRANCH  14  15
ATOM     15  N   UNL     1       0.983   8.558  19.804  0.00  0.00    +0.000 NA
BRANCH  15  16
ATOM     16  C   UNL     1       0.870   9.963  19.250  0.00  0.00    +0.000 C 
ATOM     17  C   UNL     1      -0.488  10.240  18.570  0.00  0.00    +0.000 C 
BRANCH  16  19
ATOM     18  C   UNL     1       2.277  11.891  18.203  0.00  0.00    +0.000 C 
ATOM     19  C   UNL     1       1.911  10.402  18.166  0.00  0.00    +0.000 C 
ENDBRANCH  16  19
ENDBRANCH  15  16
BRANCH  15  20
ATOM     20  C   UNL     1       0.829   8.428  21.315  0.00  0.00    +0.000 C 
ATOM     21  C   UNL     1       1.933   9.160  22.114  0.00  0.00    +0.000 C 
BRANCH  20  22
ATOM     22  C   UNL     1      -0.531   8.707  22.017  0.00  0.00    +0.000 C 
ATOM     23  C   UNL     1      -0.541   9.858  23.007  0.00  0.00    +0.000 C 
ENDBRANCH  20  22
ENDBRANCH  15  20
ENDBRANCH  14  15
ENDBRANCH  13  14
ENDBRANCH   1  13
BRANCH   1  24
ATOM     24  C   UNL     1       2.865   4.860  20.072  0.00  0.00    +0.000 C 
BRANCH  24  25
ATOM     25  C   UNL     1       2.481   3.369  20.325  0.00  0.00    +0.000 C 
ATOM     26  C   UNL     1       3.758   2.534  20.514  0.00  0.00    +0.000 C 
ATOM     27  C   UNL     1       1.584   3.126  21.541  0.00  0.00    +0.000 C 
ENDBRANCH  24  25
ENDBRANCH   1  24
TORSDOF 11
ENDMDL
MODEL 6
REMARK VINA RESULT:      -6.2      1.571      6.182
REMARK  Name = 
REMARK  17 active torsions:
REMARK  status: ('A' for Active; 'I' for Inactive)
REMARK    1  A    between atoms: C_1  and  C_2
REMARK    2  A    between atoms: C_2  and  C_3
REMARK    3  A    between atoms: C_3  and  C_4
REMARK    4  A    between atoms: C_3  and  N_5
REMARK    5  A    between atoms: N_5  and  C_6
REMARK    6  A    between atoms: N_5  and  C_22
REMARK    7  A    between atoms: C_6  and  C_7
REMARK    8  A    between atoms: C_7  and  C_8
REMARK    9  A    between atoms: C_8  and  C_9
REMARK   10  A    between atoms: C_8  and  C_13
REMARK   11  A    between atoms: C_8  and  C_16
REMARK   12  A    between atoms: C_9  and  C_10
REMARK   13  A    between atoms: C_10  and  C_11
REMARK   14  A    between atoms: C_10  and  C_12
REMARK   15  A    between atoms: C_22  and  C_23
REMARK   16  A    between atoms: C_22  and  C_24
REMARK   17  A    between atoms: C_24  and  C_25
REMARK                            x       y       z     vdW  Elec       q    Type
REMARK                         _______ _______ _______ _____ _____    ______ ____
ROOT
ATOM      1  C   UNL     1       3.723   4.594  18.260  0.00  0.00    +0.000 C 
ENDROOT
BRANCH   1   2
ATOM      2  C   UNL     1       2.988   5.913  18.602  0.00  0.00    +0.000 A 
ATOM      3  C   UNL     1       2.796   6.921  17.657  0.00  0.00    +0.000 A 
ATOM      4  C   UNL     1       2.221   8.128  18.059  0.00  0.00    +0.000 A 
ATOM      5  C   UNL     1       1.835   8.306  19.382  0.00  0.00    +0.000 A 
ATOM      6  C   UNL     1       2.022   7.254  20.255  0.00  0.00    +0.000 A 
ATOM      7  N   UNL     1       2.569   6.076  19.888  0.00  0.00    +0.000 NA
ENDBRANCH   1   2
BRANCH   1   8
ATOM      8  C   UNL     1       4.861   4.398  19.286  0.00  0.00    +0.000 C 
ATOM      9  N   UNL     1       5.155   3.113  19.640  0.00  0.00    +0.000 N 
ATOM     10  O   UNL     1       5.484   5.323  19.803  0.00  0.00    +0.000 OA
ATOM     11  H   UNL     1       4.812   2.326  19.092  0.00  0.00    +0.000 HD
ATOM     12  H   UNL     1       5.954   2.959  20.245  0.00  0.00    +0.000 HD
ENDBRANCH   1   8
BRANCH   1  13
ATOM     13  C   UNL     1       4.344   4.721  16.829  0.00  0.00    +0.000 C 
BRANCH  13  14
ATOM     14  C   UNL     1       5.337   3.669  16.315  0.00  0.00    +0.000 C 
BRANCH  14  15
ATOM     15  N   UNL     1       6.619   4.140  15.643  0.00  0.00    +0.000 NA
BRANCH  15  16
ATOM     16  C   UNL     1       7.435   5.126  16.451  0.00  0.00    +0.000 C 
ATOM     17  C   UNL     1       7.915   4.554  17.803  0.00  0.00    +0.000 C 
BRANCH  16  19
ATOM     18  C   UNL     1       7.635   7.409  17.693  0.00  0.00    +0.000 C 
ATOM     19  C   UNL     1       6.753   6.477  16.854  0.00  0.00    +0.000 C 
ENDBRANCH  16  19
ENDBRANCH  15  16
BRANCH  15  20
ATOM     20  C   UNL     1       6.219   4.598  14.246  0.00  0.00    +0.000 C 
ATOM     21  C   UNL     1       7.416   5.059  13.381  0.00  0.00    +0.000 C 
BRANCH  20  22
ATOM     22  C   UNL     1       5.286   3.736  13.347  0.00  0.00    +0.000 C 
ATOM     23  C   UNL     1       5.924   3.152  12.100  0.00  0.00    +0.000 C 
ENDBRANCH  20  22
ENDBRANCH  15  20
ENDBRANCH  14  15
ENDBRANCH  13  14
ENDBRANCH   1  13
BRANCH   1  24
ATOM     24  C   UNL     1       2.731   3.371  18.337  0.00  0.00    +0.000 C 
BRANCH  24  25
ATOM     25  C   UNL     1       1.528   3.404  19.330  0.00  0.00    +0.000 C 
ATOM     26  C   UNL     1       0.380   2.545  18.774  0.00  0.00    +0.000 C 
ATOM     27  C   UNL     1       1.837   2.905  20.743  0.00  0.00    +0.000 C 
ENDBRANCH  24  25
ENDBRANCH   1  24
TORSDOF 11
ENDMDL
MODEL 7
REMARK VINA RESULT:      -6.2      2.528      5.164
REMARK  Name = 
REMARK  17 active torsions:
REMARK  status: ('A' for Active; 'I' for Inactive)
REMARK    1  A    between atoms: C_1  and  C_2
REMARK    2  A    between atoms: C_2  and  C_3
REMARK    3  A    between atoms: C_3  and  C_4
REMARK    4  A    between atoms: C_3  and  N_5
REMARK    5  A    between atoms: N_5  and  C_6
REMARK    6  A    between atoms: N_5  and  C_22
REMARK    7  A    between atoms: C_6  and  C_7
REMARK    8  A    between atoms: C_7  and  C_8
REMARK    9  A    between atoms: C_8  and  C_9
REMARK   10  A    between atoms: C_8  and  C_13
REMARK   11  A    between atoms: C_8  and  C_16
REMARK   12  A    between atoms: C_9  and  C_10
REMARK   13  A    between atoms: C_10  and  C_11
REMARK   14  A    between atoms: C_10  and  C_12
REMARK   15  A    between atoms: C_22  and  C_23
REMARK   16  A    between atoms: C_22  and  C_24
REMARK   17  A    between atoms: C_24  and  C_25
REMARK                            x       y       z     vdW  Elec       q    Type
REMARK                         _______ _______ _______ _____ _____    ______ ____
ROOT
ATOM      1  C   UNL     1       3.210   5.376  18.653  0.00  0.00    +0.000 C 
ENDROOT
BRANCH   1   2
ATOM      2  C   UNL     1       4.687   5.780  18.426  0.00  0.00    +0.000 A 
ATOM      3  C   UNL     1       5.078   6.588  17.358  0.00  0.00    +0.000 A 
ATOM      4  C   UNL     1       6.438   6.826  17.149  0.00  0.00    +0.000 A 
ATOM      5  C   UNL     1       7.379   6.273  18.009  0.00  0.00    +0.000 A 
ATOM      6  C   UNL     1       6.919   5.513  19.065  0.00  0.00    +0.000 A 
ATOM      7  N   UNL     1       5.610   5.275  19.290  0.00  0.00    +0.000 NA
ENDBRANCH   1   2
BRANCH   1   8
ATOM      8  C   UNL     1       2.839   4.304  17.605  0.00  0.00    +0.000 C 
ATOM      9  N   UNL     1       3.847   3.491  17.172  0.00  0.00    +0.000 N 
ATOM     10  O   UNL     1       1.711   4.164  17.136  0.00  0.00    +0.000 OA
ATOM     11  H   UNL     1       4.730   3.437  17.677  0.00  0.00    +0.000 HD
ATOM     12  H   UNL     1       3.606   2.727  16.551  0.00  0.00    +0.000 HD
ENDBRANCH   1   8
BRANCH   1  13
ATOM     13  C   UNL     1       2.304   6.635  18.435  0.00  0.00    +0.000 C 
BRANCH  13  14
ATOM     14  C   UNL     1       2.296   7.774  19.463  0.00  0.00    +0.000 C 
BRANCH  14  15
ATOM     15  N   UNL     1       0.986   8.498  19.742  0.00  0.00    +0.000 NA
BRANCH  15  16
ATOM     16  C   UNL     1       0.880   9.879  19.131  0.00  0.00    +0.000 C 
ATOM     17  C   UNL     1      -0.452  10.113  18.387  0.00  0.00    +0.000 C 
BRANCH  16  19
ATOM     18  C   UNL     1       2.349  11.774  18.109  0.00  0.00    +0.000 C 
ATOM     19  C   UNL     1       1.960  10.292  18.074  0.00  0.00    +0.000 C 
ENDBRANCH  16  19
ENDBRANCH  15  16
BRANCH  15  20
ATOM     20  C   UNL     1       0.775   8.423  21.249  0.00  0.00    +0.000 C 
ATOM     21  C   UNL     1       1.878   9.138  22.065  0.00  0.00    +0.000 C 
BRANCH  20  22
ATOM     22  C   UNL     1      -0.597   8.775  21.893  0.00  0.00    +0.000 C 
ATOM     23  C   UNL     1      -0.546   9.697  23.097  0.00  0.00    +0.000 C 
ENDBRANCH  20  22
ENDBRANCH  15  20
ENDBRANCH  14  15
ENDBRANCH  13  14
ENDBRANCH   1  13
BRANCH   1  24
ATOM     24  C   UNL     1       3.013   4.784  20.101  0.00  0.00    +0.000 C 
BRANCH  24  25
ATOM     25  C   UNL     1       2.193   3.473  20.302  0.00  0.00    +0.000 C 
ATOM     26  C   UNL     1       2.650   2.774  21.594  0.00  0.00    +0.000 C 
ATOM     27  C   UNL     1       0.677   3.662  20.390  0.00  0.00    +0.000 C 
ENDBRANCH  24  25
ENDBRANCH   1  24
TORSDOF 11
ENDMDL
MODEL 8
REMARK VINA RESULT:      -6.1      1.696      4.347
REMARK  Name = 
REMARK  17 active torsions:
REMARK  status: ('A' for Active; 'I' for Inactive)
REMARK    1  A    between atoms: C_1  and  C_2
REMARK    2  A    between atoms: C_2  and  C_3
REMARK    3  A    between atoms: C_3  and  C_4
REMARK    4  A    between atoms: C_3  and  N_5
REMARK    5  A    between atoms: N_5  and  C_6
REMARK    6  A    between atoms: N_5  and  C_22
REMARK    7  A    between atoms: C_6  and  C_7
REMARK    8  A    between atoms: C_7  and  C_8
REMARK    9  A    between atoms: C_8  and  C_9
REMARK   10  A    between atoms: C_8  and  C_13
REMARK   11  A    between atoms: C_8  and  C_16
REMARK   12  A    between atoms: C_9  and  C_10
REMARK   13  A    between atoms: C_10  and  C_11
REMARK   14  A    between atoms: C_10  and  C_12
REMARK   15  A    between atoms: C_22  and  C_23
REMARK   16  A    between atoms: C_22  and  C_24
REMARK   17  A    between atoms: C_24  and  C_25
REMARK                            x       y       z     vdW  Elec       q    Type
REMARK                         _______ _______ _______ _____ _____    ______ ____
ROOT
ATOM      1  C   UNL     1       5.946   5.608  17.246  0.00  0.00    +0.000 C 
ENDROOT
BRANCH   1   2
ATOM      2  C   UNL     1       6.169   5.175  15.776  0.00  0.00    +0.000 A 
ATOM      3  C   UNL     1       5.320   4.276  15.132  0.00  0.00    +0.000 A 
ATOM      4  C   UNL     1       5.639   3.845  13.842  0.00  0.00    +0.000 A 
ATOM      5  C   UNL     1       6.782   4.324  13.215  0.00  0.00    +0.000 A 
ATOM      6  C   UNL     1       7.558   5.237  13.898  0.00  0.00    +0.000 A 
ATOM      7  N   UNL     1       7.266   5.673  15.141  0.00  0.00    +0.000 NA
ENDBRANCH   1   2
BRANCH   1   8
ATOM      8  C   UNL     1       6.890   4.775  18.141  0.00  0.00    +0.000 C 
ATOM      9  N   UNL     1       7.955   4.182  17.528  0.00  0.00    +0.000 N 
ATOM     10  O   UNL     1       6.719   4.606  19.347  0.00  0.00    +0.000 OA
ATOM     11  H   UNL     1       8.244   4.461  16.591  0.00  0.00    +0.000 HD
ATOM     12  H   UNL     1       8.632   3.704  18.111  0.00  0.00    +0.000 HD
ENDBRANCH   1   8
BRANCH   1  13
ATOM     13  C   UNL     1       4.463   5.298  17.642  0.00  0.00    +0.000 C 
BRANCH  13  14
ATOM     14  C   UNL     1       3.942   5.649  19.042  0.00  0.00    +0.000 C 
BRANCH  14  15
ATOM     15  N   UNL     1       2.478   6.030  19.203  0.00  0.00    +0.000 NA
BRANCH  15  16
ATOM     16  C   UNL     1       2.236   7.339  19.924  0.00  0.00    +0.000 C 
ATOM     17  C   UNL     1       1.115   7.252  20.982  0.00  0.00    +0.000 C 
BRANCH  16  19
ATOM     18  C   UNL     1       2.308   8.533  17.608  0.00  0.00    +0.000 C 
ATOM     19  C   UNL     1       1.821   8.578  19.061  0.00  0.00    +0.000 C 
ENDBRANCH  16  19
ENDBRANCH  15  16
BRANCH  15  20
ATOM     20  C   UNL     1       1.787   4.809  19.799  0.00  0.00    +0.000 C 
ATOM     21  C   UNL     1       1.281   3.805  18.737  0.00  0.00    +0.000 C 
BRANCH  20  22
ATOM     22  C   UNL     1       2.440   3.993  20.953  0.00  0.00    +0.000 C 
ATOM     23  C   UNL     1       1.617   2.837  21.493  0.00  0.00    +0.000 C 
ENDBRANCH  20  22
ENDBRANCH  15  20
ENDBRANCH  14  15
ENDBRANCH  13  14
ENDBRANCH   1  13
BRANCH   1  24
ATOM     24  C   UNL     1       6.269   7.140  17.427  0.00  0.00    +0.000 C 
BRANCH  24  25
ATOM     25  C   UNL     1       7.743   7.608  17.632  0.00  0.00    +0.000 C 
ATOM     26  C   UNL     1       7.821   9.137  17.493  0.00  0.00    +0.000 C 
ATOM     27  C   UNL     1       8.362   7.234  18.981  0.00  0.00    +0.000 C 
ENDBRANCH  24  25
ENDBRANCH   1  24
TORSDOF 11
ENDMDL
MODEL 9
REMARK VINA RESULT:      -6.1      1.828      3.224
REMARK  Name = 
REMARK  17 active torsions:
REMARK  status: ('A' for Active; 'I' for Inactive)
REMARK    1  A    between atoms: C_1  and  C_2
REMARK    2  A    between atoms: C_2  and  C_3
REMARK    3  A    between atoms: C_3  and  C_4
REMARK    4  A    between atoms: C_3  and  N_5
REMARK    5  A    between atoms: N_5  and  C_6
REMARK    6  A    between atoms: N_5  and  C_22
REMARK    7  A    between atoms: C_6  and  C_7
REMARK    8  A    between atoms: C_7  and  C_8
REMARK    9  A    between atoms: C_8  and  C_9
REMARK   10  A    between atoms: C_8  and  C_13
REMARK   11  A    between atoms: C_8  and  C_16
REMARK   12  A    between atoms: C_9  and  C_10
REMARK   13  A    between atoms: C_10  and  C_11
REMARK   14  A    between atoms: C_10  and  C_12
REMARK   15  A    between atoms: C_22  and  C_23
REMARK   16  A    between atoms: C_22  and  C_24
REMARK   17  A    between atoms: C_24  and  C_25
REMARK                            x       y       z     vdW  Elec       q    Type
REMARK                         _______ _______ _______ _____ _____    ______ ____
ROOT
ATOM      1  C   UNL     1       3.881   5.154  18.725  0.00  0.00    +0.000 C 
ENDROOT
BRANCH   1   2
ATOM      2  C   UNL     1       2.806   4.225  19.339  0.00  0.00    +0.000 A 
ATOM      3  C   UNL     1       1.844   3.588  18.556  0.00  0.00    +0.000 A 
ATOM      4  C   UNL     1       0.838   2.850  19.183  0.00  0.00    +0.000 A 
ATOM      5  C   UNL     1       0.815   2.747  20.569  0.00  0.00    +0.000 A 
ATOM      6  C   UNL     1       1.818   3.374  21.278  0.00  0.00    +0.000 A 
ATOM      7  N   UNL     1       2.804   4.087  20.694  0.00  0.00    +0.000 NA
ENDBRANCH   1   2
BRANCH   1   8
ATOM      8  C   UNL     1       5.264   4.695  19.239  0.00  0.00    +0.000 C 
ATOM      9  N   UNL     1       5.494   3.350  19.267  0.00  0.00    +0.000 N 
ATOM     10  O   UNL     1       6.137   5.464  19.638  0.00  0.00    +0.000 OA
ATOM     11  H   UNL     1       4.890   2.703  18.762  0.00  0.00    +0.000 HD
ATOM     12  H   UNL     1       6.424   3.034  19.519  0.00  0.00    +0.000 HD
ENDBRANCH   1   8
BRANCH   1  13
ATOM     13  C   UNL     1       3.618   6.619  19.210  0.00  0.00    +0.000 C 
BRANCH  13  14
ATOM     14  C   UNL     1       2.185   7.156  19.322  0.00  0.00    +0.000 C 
BRANCH  14  15
ATOM     15  N   UNL     1       1.941   8.427  20.123  0.00  0.00    +0.000 NA
BRANCH  15  16
ATOM     16  C   UNL     1       1.163   8.230  21.407  0.00  0.00    +0.000 C 
ATOM     17  C   UNL     1      -0.334   7.934  21.171  0.00  0.00    +0.000 C 
BRANCH  16  19
ATOM     18  C   UNL     1      -0.181   9.564  23.198  0.00  0.00    +0.000 C 
ATOM     19  C   UNL     1       1.139   9.414  22.431  0.00  0.00    +0.000 C 
ENDBRANCH  16  19
ENDBRANCH  15  16
BRANCH  15  20
ATOM     20  C   UNL     1       1.357   9.438  19.144  0.00  0.00    +0.000 C 
ATOM     21  C   UNL     1       1.416   8.975  17.669  0.00  0.00    +0.000 C 
BRANCH  20  22
ATOM     22  C   UNL     1      -0.038  10.085  19.384  0.00  0.00    +0.000 C 
ATOM     23  C   UNL     1      -0.927  10.213  18.161  0.00  0.00    +0.000 C 
ENDBRANCH  20  22
ENDBRANCH  15  20
ENDBRANCH  14  15
ENDBRANCH  13  14
ENDBRANCH   1  13
BRANCH   1  24
ATOM     24  C   UNL     1       3.854   5.069  17.150  0.00  0.00    +0.000 C 
BRANCH  24  25
ATOM     25  C   UNL     1       5.149   5.360  16.331  0.00  0.00    +0.000 C 
ATOM     26  C   UNL     1       5.402   4.208  15.344  0.00  0.00    +0.000 C 
ATOM     27  C   UNL     1       5.130   6.662  15.527  0.00  0.00    +0.000 C 
ENDBRANCH  24  25
ENDBRANCH   1  24
TORSDOF 11
ENDMDL
