MODEL 1
REMARK VINA RESULT:      -7.6      0.000      0.000
REMARK  Name = 
REMARK  6 active torsions:
REMARK  status: ('A' for Active; 'I' for Inactive)
REMARK    1  A    between atoms: C_1  and  O_2
REMARK    2  A    between atoms: O_2  and  C_3
REMARK    3  A    between atoms: C_7  and  N_8
REMARK    4  A    between atoms: C_9  and  C_11
REMARK    5  A    between atoms: N_15  and  S_16
REMARK    6  A    between atoms: S_16  and  C_19
REMARK                            x       y       z     vdW  Elec       q    Type
REMARK                         _______ _______ _______ _____ _____    ______ ____
ROOT
ATOM      1  C   UNL     1       1.768   4.660  18.987  0.00  0.00    +0.000 C 
ATOM      2  C   UNL     1       1.272   3.990  20.270  0.00  0.00    +0.000 C 
ATOM      3  C   UNL     1       0.744   2.642  19.792  0.00  0.00    +0.000 C 
ATOM      4  C   UNL     1       1.388   2.408  18.427  0.00  0.00    +0.000 C 
ATOM      5  N   UNL     1       2.374   3.524  18.251  0.00  0.00    +0.000 NA
ENDROOT
BRANCH   1   7
ATOM      6  N   UNL     1       1.557   7.133  18.613  0.00  0.00    +0.000 N 
ATOM      7  C   UNL     1       2.208   6.092  19.240  0.00  0.00    +0.000 C 
ATOM      8  O   UNL     1       3.113   6.264  20.067  0.00  0.00    +0.000 OA
ATOM      9  H   UNL     1       1.004   6.910  17.783  0.00  0.00    +0.000 HD
BRANCH   6  14
ATOM     10  C   UNL     1       2.059  10.824  18.366  0.00  0.00    +0.000 A 
ATOM     11  C   UNL     1       1.484  11.264  19.561  0.00  0.00    +0.000 A 
ATOM     12  C   UNL     1       1.002  10.348  20.486  0.00  0.00    +0.000 A 
ATOM     13  C   UNL     1       1.062   8.980  20.208  0.00  0.00    +0.000 A 
ATOM     14  C   UNL     1       1.604   8.507  19.003  0.00  0.00    +0.000 A 
ATOM     15  C   UNL     1       2.134   9.448  18.100  0.00  0.00    +0.000 A 
BRANCH  10  17
ATOM     16  C   UNL     1       2.610  13.154  18.102  0.00  0.00    +0.000 C 
ATOM     17  O   UNL     1       2.458  11.853  17.560  0.00  0.00    +0.000 OA
ENDBRANCH  10  17
ENDBRANCH   6  14
ENDBRANCH   1   7
BRANCH   5  18
ATOM     18  S   UNL     1       3.980   3.070  18.548  0.00  0.00    +0.000 S 
ATOM     19  O   UNL     1       4.321   3.411  19.911  0.00  0.00    +0.000 OA
ATOM     20  O   UNL     1       4.122   1.698  18.095  0.00  0.00    +0.000 OA
BRANCH  18  21
ATOM     21  C   UNL     1       4.905   4.100  17.429  0.00  0.00    +0.000 A 
ATOM     22  C   UNL     1       4.505   4.190  16.083  0.00  0.00    +0.000 A 
ATOM     23  C   UNL     1       5.195   5.029  15.211  0.00  0.00    +0.000 A 
ATOM     24  C   UNL     1       6.269   5.776  15.685  0.00  0.00    +0.000 A 
ATOM     25  C   UNL     1       6.639   5.709  17.038  0.00  0.00    +0.000 A 
ATOM     26  C   UNL     1       7.670   6.520  17.530  0.00  0.00    +0.000 A 
ATOM     27  C   UNL     1       7.988   6.501  18.880  0.00  0.00    +0.000 A 
ATOM     28  C   UNL     1       7.281   5.642  19.692  0.00  0.00    +0.000 A 
ATOM     29  N   UNL     1       6.303   4.828  19.246  0.00  0.00    +0.000 NA
ATOM     30  C   UNL     1       5.958   4.856  17.942  0.00  0.00    +0.000 A 
ENDBRANCH  18  21
ENDBRANCH   5  18
TORSDOF 5
ENDMDL
MODEL 2
REMARK VINA RESULT:      -7.5      0.928      1.571
REMARK  Name = 
REMARK  6 active torsions:
REMARK  status: ('A' for Active; 'I' for Inactive)
REMARK    1  A    between atoms: C_1  and  O_2
REMARK    2  A    between atoms: O_2  and  C_3
REMARK    3  A    between atoms: C_7  and  N_8
REMARK    4  A    between atoms: C_9  and  C_11
REMARK    5  A    between atoms: N_15  and  S_16
REMARK    6  A    between atoms: S_16  and  C_19
REMARK                            x       y       z     vdW  Elec       q    Type
REMARK                         _______ _______ _______ _____ _____    ______ ____
ROOT
ATOM      1  C   UNL     1       1.754   4.801  18.883  0.00  0.00    +0.000 C 
ATOM      2  C   UNL     1       1.270   4.278  20.237  0.00  0.00    +0.000 C 
ATOM      3  C   UNL     1       0.750   2.881  19.920  0.00  0.00    +0.000 C 
ATOM      4  C   UNL     1       1.388   2.497  18.586  0.00  0.00    +0.000 C 
ATOM      5  N   UNL     1       2.365   3.592  18.279  0.00  0.00    +0.000 NA
ENDROOT
BRANCH   1   7
ATOM      6  N   UNL     1       1.443   7.231  18.337  0.00  0.00    +0.000 N 
ATOM      7  C   UNL     1       2.184   6.256  18.968  0.00  0.00    +0.000 C 
ATOM      8  O   UNL     1       3.170   6.509  19.673  0.00  0.00    +0.000 OA
ATOM      9  H   UNL     1       0.807   6.931  17.594  0.00  0.00    +0.000 HD
BRANCH   6  14
ATOM     10  C   UNL     1       1.199  10.443  20.223  0.00  0.00    +0.000 A 
ATOM     11  C   UNL     1       1.818  11.332  19.341  0.00  0.00    +0.000 A 
ATOM     12  C   UNL     1       2.246  10.898  18.093  0.00  0.00    +0.000 A 
ATOM     13  C   UNL     1       2.087   9.558  17.730  0.00  0.00    +0.000 A 
ATOM     14  C   UNL     1       1.499   8.633  18.606  0.00  0.00    +0.000 A 
ATOM     15  C   UNL     1       1.024   9.103  19.845  0.00  0.00    +0.000 A 
BRANCH  10  17
ATOM     16  C   UNL     1      -0.477  10.970  21.871  0.00  0.00    +0.000 C 
ATOM     17  O   UNL     1       0.863  11.026  21.413  0.00  0.00    +0.000 OA
ENDBRANCH  10  17
ENDBRANCH   6  14
ENDBRANCH   1   7
BRANCH   5  18
ATOM     18  S   UNL     1       3.975   3.187  18.616  0.00  0.00    +0.000 S 
ATOM     19  O   UNL     1       4.294   3.603  19.963  0.00  0.00    +0.000 OA
ATOM     20  O   UNL     1       4.150   1.797  18.234  0.00  0.00    +0.000 OA
BRANCH  18  21
ATOM     21  C   UNL     1       4.893   4.178  17.456  0.00  0.00    +0.000 A 
ATOM     22  C   UNL     1       4.470   4.242  16.116  0.00  0.00    +0.000 A 
ATOM     23  C   UNL     1       5.154   5.051  15.211  0.00  0.00    +0.000 A 
ATOM     24  C   UNL     1       6.247   5.794  15.648  0.00  0.00    +0.000 A 
ATOM     25  C   UNL     1       6.641   5.753  16.996  0.00  0.00    +0.000 A 
ATOM     26  C   UNL     1       7.692   6.560  17.450  0.00  0.00    +0.000 A 
ATOM     27  C   UNL     1       8.035   6.568  18.794  0.00  0.00    +0.000 A 
ATOM     28  C   UNL     1       7.332   5.738  19.638  0.00  0.00    +0.000 A 
ATOM     29  N   UNL     1       6.335   4.928  19.229  0.00  0.00    +0.000 NA
ATOM     30  C   UNL     1       5.966   4.931  17.931  0.00  0.00    +0.000 A 
ENDBRANCH  18  21
ENDBRANCH   5  18
TORSDOF 5
ENDMDL
MODEL 3
REMARK VINA RESULT:      -7.4      0.969      2.051
REMARK  Name = 
REMARK  6 active torsions:
REMARK  status: ('A' for Active; 'I' for Inactive)
REMARK    1  A    between atoms: C_1  and  O_2
REMARK    2  A    between atoms: O_2  and  C_3
REMARK    3  A    between atoms: C_7  and  N_8
REMARK    4  A    between atoms: C_9  and  C_11
REMARK    5  A    between atoms: N_15  and  S_16
REMARK    6  A    between atoms: S_16  and  C_19
REMARK                            x       y       z     vdW  Elec       q    Type
REMARK                         _______ _______ _______ _____ _____    ______ ____
ROOT
ATOM      1  C   UNL     1       2.057   4.822  18.612  0.00  0.00    +0.000 C 
ATOM      2  C   UNL     1       1.129   4.113  19.601  0.00  0.00    +0.000 C 
ATOM      3  C   UNL     1       0.842   2.775  18.931  0.00  0.00    +0.000 C 
ATOM      4  C   UNL     1       1.953   2.583  17.901  0.00  0.00    +0.000 C 
ATOM      5  N   UNL     1       2.914   3.711  18.132  0.00  0.00    +0.000 NA
ENDROOT
BRANCH   1   7
ATOM      6  N   UNL     1       1.833   7.305  18.318  0.00  0.00    +0.000 N 
ATOM      7  C   UNL     1       2.344   6.250  19.043  0.00  0.00    +0.000 C 
ATOM      8  O   UNL     1       2.990   6.402  20.089  0.00  0.00    +0.000 OA
ATOM      9  H   UNL     1       1.529   7.113  17.361  0.00  0.00    +0.000 HD
BRANCH   6  14
ATOM     10  C   UNL     1       2.075  11.030  18.326  0.00  0.00    +0.000 A 
ATOM     11  C   UNL     1       1.285  11.359  19.431  0.00  0.00    +0.000 A 
ATOM     12  C   UNL     1       0.736  10.358  20.222  0.00  0.00    +0.000 A 
ATOM     13  C   UNL     1       0.947   9.016  19.895  0.00  0.00    +0.000 A 
ATOM     14  C   UNL     1       1.708   8.654  18.773  0.00  0.00    +0.000 A 
ATOM     15  C   UNL     1       2.299   9.680  18.013  0.00  0.00    +0.000 A 
BRANCH  10  17
ATOM     16  C   UNL     1       2.280  13.425  18.170  0.00  0.00    +0.000 C 
ATOM     17  O   UNL     1       2.514  12.130  17.644  0.00  0.00    +0.000 OA
ENDBRANCH  10  17
ENDBRANCH   6  14
ENDBRANCH   1   7
BRANCH   5  18
ATOM     18  S   UNL     1       4.300   3.263  18.998  0.00  0.00    +0.000 S 
ATOM     19  O   UNL     1       4.067   3.486  20.408  0.00  0.00    +0.000 OA
ATOM     20  O   UNL     1       4.678   1.941  18.534  0.00  0.00    +0.000 OA
BRANCH  18  21
ATOM     21  C   UNL     1       5.531   4.407  18.411  0.00  0.00    +0.000 A 
ATOM     22  C   UNL     1       6.251   5.182  19.338  0.00  0.00    +0.000 A 
ATOM     23  C   UNL     1       7.248   6.046  18.892  0.00  0.00    +0.000 A 
ATOM     24  C   UNL     1       7.527   6.125  17.531  0.00  0.00    +0.000 A 
ATOM     25  C   UNL     1       6.831   5.320  16.615  0.00  0.00    +0.000 A 
ATOM     26  C   UNL     1       7.165   5.344  15.255  0.00  0.00    +0.000 A 
ATOM     27  C   UNL     1       6.521   4.499  14.363  0.00  0.00    +0.000 A 
ATOM     28  C   UNL     1       5.534   3.677  14.860  0.00  0.00    +0.000 A 
ATOM     29  N   UNL     1       5.167   3.650  16.157  0.00  0.00    +0.000 NA
ATOM     30  C   UNL     1       5.805   4.442  17.045  0.00  0.00    +0.000 A 
ENDBRANCH  18  21
ENDBRANCH   5  18
TORSDOF 5
ENDMDL
MODEL 4
REMARK VINA RESULT:      -7.4      8.346     10.689
REMARK  Name = 
REMARK  6 active torsions:
REMARK  status: ('A' for Active; 'I' for Inactive)
REMARK    1  A    between atoms: C_1  and  O_2
REMARK    2  A    between atoms: O_2  and  C_3
REMARK    3  A    between atoms: C_7  and  N_8
REMARK    4  A    between atoms: C_9  and  C_11
REMARK    5  A    between atoms: N_15  and  S_16
REMARK    6  A    between atoms: S_16  and  C_19
REMARK                            x       y       z     vdW  Elec       q    Type
REMARK                         _______ _______ _______ _____ _____    ______ ____
ROOT
ATOM      1  C   UNL     1      -5.940  12.518  20.953  0.00  0.00    +0.000 C 
ATOM      2  C   UNL     1      -6.892  13.680  20.664  0.00  0.00    +0.000 C 
ATOM      3  C   UNL     1      -7.282  14.181  22.049  0.00  0.00    +0.000 C 
ATOM      4  C   UNL     1      -6.208  13.650  22.997  0.00  0.00    +0.000 C 
ATOM      5  N   UNL     1      -5.169  13.023  22.115  0.00  0.00    +0.000 NA
ENDROOT
BRANCH   1   7
ATOM      6  N   UNL     1      -4.411  12.156  18.996  0.00  0.00    +0.000 N 
ATOM      7  C   UNL     1      -5.549  11.787  19.680  0.00  0.00    +0.000 C 
ATOM      8  O   UNL     1      -6.256  10.828  19.343  0.00  0.00    +0.000 OA
ATOM      9  H   UNL     1      -4.027  13.085  19.189  0.00  0.00    +0.000 HD
BRANCH   6  14
ATOM     10  C   UNL     1      -3.384  10.846  15.655  0.00  0.00    +0.000 A 
ATOM     11  C   UNL     1      -2.265  10.078  15.988  0.00  0.00    +0.000 A 
ATOM     12  C   UNL     1      -1.892   9.924  17.317  0.00  0.00    +0.000 A 
ATOM     13  C   UNL     1      -2.618  10.565  18.324  0.00  0.00    +0.000 A 
ATOM     14  C   UNL     1      -3.726  11.370  18.019  0.00  0.00    +0.000 A 
ATOM     15  C   UNL     1      -4.121  11.473  16.671  0.00  0.00    +0.000 A 
BRANCH  10  17
ATOM     16  C   UNL     1      -4.165   9.809  13.626  0.00  0.00    +0.000 C 
ATOM     17  O   UNL     1      -3.596  10.914  14.307  0.00  0.00    +0.000 OA
ENDBRANCH  10  17
ENDBRANCH   6  14
ENDBRANCH   1   7
BRANCH   5  18
ATOM     18  S   UNL     1      -3.799  13.991  21.878  0.00  0.00    +0.000 S 
ATOM     19  O   UNL     1      -3.830  14.532  20.537  0.00  0.00    +0.000 OA
ATOM     20  O   UNL     1      -3.716  14.892  23.013  0.00  0.00    +0.000 OA
BRANCH  18  21
ATOM     21  C   UNL     1      -2.455  12.831  22.018  0.00  0.00    +0.000 A 
ATOM     22  C   UNL     1      -2.445  11.912  23.084  0.00  0.00    +0.000 A 
ATOM     23  C   UNL     1      -1.422  10.971  23.176  0.00  0.00    +0.000 A 
ATOM     24  C   UNL     1      -0.426  10.945  22.205  0.00  0.00    +0.000 A 
ATOM     25  C   UNL     1      -0.463  11.841  21.124  0.00  0.00    +0.000 A 
ATOM     26  C   UNL     1       0.498  11.764  20.108  0.00  0.00    +0.000 A 
ATOM     27  C   UNL     1       0.419  12.605  19.008  0.00  0.00    +0.000 A 
ATOM     28  C   UNL     1      -0.606  13.525  18.978  0.00  0.00    +0.000 A 
ATOM     29  N   UNL     1      -1.529  13.645  19.953  0.00  0.00    +0.000 NA
ATOM     30  C   UNL     1      -1.487  12.814  21.015  0.00  0.00    +0.000 A 
ENDBRANCH  18  21
ENDBRANCH   5  18
TORSDOF 5
ENDMDL
MODEL 5
REMARK VINA RESULT:      -7.4      1.316      2.289
REMARK  Name = 
REMARK  6 active torsions:
REMARK  status: ('A' for Active; 'I' for Inactive)
REMARK    1  A    between atoms: C_1  and  O_2
REMARK    2  A    between atoms: O_2  and  C_3
REMARK    3  A    between atoms: C_7  and  N_8
REMARK    4  A    between atoms: C_9  and  C_11
REMARK    5  A    between atoms: N_15  and  S_16
REMARK    6  A    between atoms: S_16  and  C_19
REMARK                            x       y       z     vdW  Elec       q    Type
REMARK                         _______ _______ _______ _____ _____    ______ ____
ROOT
ATOM      1  C   UNL     1       1.845   4.516  19.007  0.00  0.00    +0.000 C 
ATOM      2  C   UNL     1       1.011   3.433  19.695  0.00  0.00    +0.000 C 
ATOM      3  C   UNL     1       0.969   2.305  18.672  0.00  0.00    +0.000 C 
ATOM      4  C   UNL     1       2.132   2.570  17.718  0.00  0.00    +0.000 C 
ATOM      5  N   UNL     1       2.888   3.719  18.317  0.00  0.00    +0.000 NA
ENDROOT
BRANCH   1   7
ATOM      6  N   UNL     1       1.945   7.017  19.190  0.00  0.00    +0.000 N 
ATOM      7  C   UNL     1       1.882   5.796  19.825  0.00  0.00    +0.000 C 
ATOM      8  O   UNL     1       1.786   5.679  21.054  0.00  0.00    +0.000 OA
ATOM      9  H   UNL     1       2.262   7.025  18.218  0.00  0.00    +0.000 HD
BRANCH   6  14
ATOM     10  C   UNL     1       0.980  10.615  19.430  0.00  0.00    +0.000 A 
ATOM     11  C   UNL     1       0.744  10.750  20.800  0.00  0.00    +0.000 A 
ATOM     12  C   UNL     1       0.977   9.684  21.660  0.00  0.00    +0.000 A 
ATOM     13  C   UNL     1       1.418   8.460  21.149  0.00  0.00    +0.000 A 
ATOM     14  C   UNL     1       1.633   8.283  19.773  0.00  0.00    +0.000 A 
ATOM     15  C   UNL     1       1.441   9.390  18.924  0.00  0.00    +0.000 A 
BRANCH  10  17
ATOM     16  C   UNL     1      -0.662  12.208  18.676  0.00  0.00    +0.000 C 
ATOM     17  O   UNL     1       0.677  11.747  18.727  0.00  0.00    +0.000 OA
ENDBRANCH  10  17
ENDBRANCH   6  14
ENDBRANCH   1   7
BRANCH   5  18
ATOM     18  S   UNL     1       4.296   3.257  19.138  0.00  0.00    +0.000 S 
ATOM     19  O   UNL     1       4.108   3.474  20.555  0.00  0.00    +0.000 OA
ATOM     20  O   UNL     1       4.652   1.934  18.656  0.00  0.00    +0.000 OA
BRANCH  18  21
ATOM     21  C   UNL     1       5.517   4.396  18.520  0.00  0.00    +0.000 A 
ATOM     22  C   UNL     1       6.250   5.182  19.428  0.00  0.00    +0.000 A 
ATOM     23  C   UNL     1       7.239   6.042  18.957  0.00  0.00    +0.000 A 
ATOM     24  C   UNL     1       7.497   6.107  17.591  0.00  0.00    +0.000 A 
ATOM     25  C   UNL     1       6.787   5.291  16.694  0.00  0.00    +0.000 A 
ATOM     26  C   UNL     1       7.100   5.302  15.329  0.00  0.00    +0.000 A 
ATOM     27  C   UNL     1       6.443   4.447  14.456  0.00  0.00    +0.000 A 
ATOM     28  C   UNL     1       5.465   3.628  14.977  0.00  0.00    +0.000 A 
ATOM     29  N   UNL     1       5.119   3.615  16.280  0.00  0.00    +0.000 NA
ATOM     30  C   UNL     1       5.770   4.416  17.149  0.00  0.00    +0.000 A 
ENDBRANCH  18  21
ENDBRANCH   5  18
TORSDOF 5
ENDMDL
MODEL 6
REMARK VINA RESULT:      -7.4      1.417      2.704
REMARK  Name = 
REMARK  6 active torsions:
REMARK  status: ('A' for Active; 'I' for Inactive)
REMARK    1  A    between atoms: C_1  and  O_2
REMARK    2  A    between atoms: O_2  and  C_3
REMARK    3  A    between atoms: C_7  and  N_8
REMARK    4  A    between atoms: C_9  and  C_11
REMARK    5  A    between atoms: N_15  and  S_16
REMARK    6  A    between atoms: S_16  and  C_19
REMARK                            x       y       z     vdW  Elec       q    Type
REMARK                         _______ _______ _______ _____ _____    ______ ____
ROOT
ATOM      1  C   UNL     1       1.943   4.720  18.712  0.00  0.00    +0.000 C 
ATOM      2  C   UNL     1       1.041   3.817  19.557  0.00  0.00    +0.000 C 
ATOM      3  C   UNL     1       0.976   2.522  18.757  0.00  0.00    +0.000 C 
ATOM      4  C   UNL     1       2.176   2.560  17.812  0.00  0.00    +0.000 C 
ATOM      5  N   UNL     1       2.967   3.768  18.216  0.00  0.00    +0.000 NA
ENDROOT
BRANCH   1   7
ATOM      6  N   UNL     1       1.944   7.215  18.439  0.00  0.00    +0.000 N 
ATOM      7  C   UNL     1       2.015   6.126  19.281  0.00  0.00    +0.000 C 
ATOM      8  O   UNL     1       2.073   6.231  20.514  0.00  0.00    +0.000 OA
ATOM      9  H   UNL     1       2.141   7.056  17.449  0.00  0.00    +0.000 HD
BRANCH   6  14
ATOM     10  C   UNL     1       1.013  10.103  20.613  0.00  0.00    +0.000 A 
ATOM     11  C   UNL     1       1.286  11.185  19.773  0.00  0.00    +0.000 A 
ATOM     12  C   UNL     1       1.701  10.969  18.465  0.00  0.00    +0.000 A 
ATOM     13  C   UNL     1       1.877   9.664  17.997  0.00  0.00    +0.000 A 
ATOM     14  C   UNL     1       1.642   8.557  18.826  0.00  0.00    +0.000 A 
ATOM     15  C   UNL     1       1.173   8.794  20.132  0.00  0.00    +0.000 A 
BRANCH  10  17
ATOM     16  C   UNL     1       0.278   9.514  22.831  0.00  0.00    +0.000 C 
ATOM     17  O   UNL     1       0.641  10.491  21.870  0.00  0.00    +0.000 OA
ENDBRANCH  10  17
ENDBRANCH   6  14
ENDBRANCH   1   7
BRANCH   5  18
ATOM     18  S   UNL     1       4.330   3.411  19.158  0.00  0.00    +0.000 S 
ATOM     19  O   UNL     1       4.058   3.764  20.533  0.00  0.00    +0.000 OA
ATOM     20  O   UNL     1       4.725   2.053  18.830  0.00  0.00    +0.000 OA
BRANCH  18  21
ATOM     21  C   UNL     1       5.573   4.501  18.499  0.00  0.00    +0.000 A 
ATOM     22  C   UNL     1       6.327   5.300  19.379  0.00  0.00    +0.000 A 
ATOM     23  C   UNL     1       7.333   6.122  18.877  0.00  0.00    +0.000 A 
ATOM     24  C   UNL     1       7.588   6.136  17.509  0.00  0.00    +0.000 A 
ATOM     25  C   UNL     1       6.857   5.308  16.642  0.00  0.00    +0.000 A 
ATOM     26  C   UNL     1       7.165   5.266  15.276  0.00  0.00    +0.000 A 
ATOM     27  C   UNL     1       6.486   4.398  14.434  0.00  0.00    +0.000 A 
ATOM     28  C   UNL     1       5.492   3.619  14.983  0.00  0.00    +0.000 A 
ATOM     29  N   UNL     1       5.150   3.657  16.287  0.00  0.00    +0.000 NA
ATOM     30  C   UNL     1       5.822   4.471  17.128  0.00  0.00    +0.000 A 
ENDBRANCH  18  21
ENDBRANCH   5  18
TORSDOF 5
ENDMDL
MODEL 7
REMARK VINA RESULT:      -7.3      2.934      8.192
REMARK  Name = 
REMARK  6 active torsions:
REMARK  status: ('A' for Active; 'I' for Inactive)
REMARK    1  A    between atoms: C_1  and  O_2
REMARK    2  A    between atoms: O_2  and  C_3
REMARK    3  A    between atoms: C_7  and  N_8
REMARK    4  A    between atoms: C_9  and  C_11
REMARK    5  A    between atoms: N_15  and  S_16
REMARK    6  A    between atoms: S_16  and  C_19
REMARK                            x       y       z     vdW  Elec       q    Type
REMARK                         _______ _______ _______ _____ _____    ______ ____
ROOT
ATOM      1  C   UNL     1       1.259   8.257  21.039  0.00  0.00    +0.000 C 
ATOM      2  C   UNL     1      -0.083   8.120  21.760  0.00  0.00    +0.000 C 
ATOM      3  C   UNL     1      -0.215   9.430  22.527  0.00  0.00    +0.000 C 
ATOM      4  C   UNL     1       0.748  10.404  21.850  0.00  0.00    +0.000 C 
ATOM      5  N   UNL     1       1.258   9.684  20.637  0.00  0.00    +0.000 NA
ENDROOT
BRANCH   1   7
ATOM      6  N   UNL     1       2.381   7.024  19.161  0.00  0.00    +0.000 N 
ATOM      7  C   UNL     1       1.641   6.972  20.323  0.00  0.00    +0.000 C 
ATOM      8  O   UNL     1       1.313   5.909  20.865  0.00  0.00    +0.000 OA
ATOM      9  H   UNL     1       2.401   7.914  18.657  0.00  0.00    +0.000 HD
BRANCH   6  14
ATOM     10  C   UNL     1       5.197   4.677  18.460  0.00  0.00    +0.000 A 
ATOM     11  C   UNL     1       4.556   3.689  17.709  0.00  0.00    +0.000 A 
ATOM     12  C   UNL     1       3.218   3.829  17.363  0.00  0.00    +0.000 A 
ATOM     13  C   UNL     1       2.500   4.947  17.795  0.00  0.00    +0.000 A 
ATOM     14  C   UNL     1       3.106   5.940  18.579  0.00  0.00    +0.000 A 
ATOM     15  C   UNL     1       4.476   5.807  18.876  0.00  0.00    +0.000 A 
BRANCH  10  17
ATOM     16  C   UNL     1       7.514   4.714  17.803  0.00  0.00    +0.000 C 
ATOM     17  O   UNL     1       6.501   4.372  18.733  0.00  0.00    +0.000 OA
ENDBRANCH  10  17
ENDBRANCH   6  14
ENDBRANCH   1   7
BRANCH   5  18
ATOM     18  S   UNL     1       0.516  10.167  19.193  0.00  0.00    +0.000 S 
ATOM     19  O   UNL     1       1.034   9.365  18.106  0.00  0.00    +0.000 OA
ATOM     20  O   UNL     1      -0.914  10.198  19.442  0.00  0.00    +0.000 OA
BRANCH  18  21
ATOM     21  C   UNL     1       1.061  11.850  19.000  0.00  0.00    +0.000 A 
ATOM     22  C   UNL     1       2.273  12.113  18.336  0.00  0.00    +0.000 A 
ATOM     23  C   UNL     1       2.685  13.428  18.140  0.00  0.00    +0.000 A 
ATOM     24  C   UNL     1       1.886  14.471  18.597  0.00  0.00    +0.000 A 
ATOM     25  C   UNL     1       0.659  14.203  19.226  0.00  0.00    +0.000 A 
ATOM     26  C   UNL     1      -0.180  15.255  19.617  0.00  0.00    +0.000 A 
ATOM     27  C   UNL     1      -1.420  14.986  20.177  0.00  0.00    +0.000 A 
ATOM     28  C   UNL     1      -1.768  13.666  20.359  0.00  0.00    +0.000 A 
ATOM     29  N   UNL     1      -0.972  12.631  20.021  0.00  0.00    +0.000 NA
ATOM     30  C   UNL     1       0.224  12.873  19.446  0.00  0.00    +0.000 A 
ENDBRANCH  18  21
ENDBRANCH   5  18
TORSDOF 5
ENDMDL
MODEL 8
REMARK VINA RESULT:      -7.3      2.801      8.010
REMARK  Name = 
REMARK  6 active torsions:
REMARK  status: ('A' for Active; 'I' for Inactive)
REMARK    1  A    between atoms: C_1  and  O_2
REMARK    2  A    between atoms: O_2  and  C_3
REMARK    3  A    between atoms: C_7  and  N_8
REMARK    4  A    between atoms: C_9  and  C_11
REMARK    5  A    between atoms: N_15  and  S_16
REMARK    6  A    between atoms: S_16  and  C_19
REMARK                            x       y       z     vdW  Elec       q    Type
REMARK                         _______ _______ _______ _____ _____    ______ ____
ROOT
ATOM      1  C   UNL     1       1.230   8.544  21.002  0.00  0.00    +0.000 C 
ATOM      2  C   UNL     1      -0.035   8.422  21.853  0.00  0.00    +0.000 C 
ATOM      3  C   UNL     1      -0.152   9.786  22.523  0.00  0.00    +0.000 C 
ATOM      4  C   UNL     1       0.705  10.732  21.684  0.00  0.00    +0.000 C 
ATOM      5  N   UNL     1       1.134   9.932  20.490  0.00  0.00    +0.000 NA
ENDROOT
BRANCH   1   7
ATOM      6  N   UNL     1       2.275   7.200  19.157  0.00  0.00    +0.000 N 
ATOM      7  C   UNL     1       1.599   7.218  20.358  0.00  0.00    +0.000 C 
ATOM      8  O   UNL     1       1.322   6.190  20.990  0.00  0.00    +0.000 OA
ATOM      9  H   UNL     1       2.251   8.051  18.591  0.00  0.00    +0.000 HD
BRANCH   6  14
ATOM     10  C   UNL     1       5.058   4.783  18.565  0.00  0.00    +0.000 A 
ATOM     11  C   UNL     1       4.413   3.791  17.823  0.00  0.00    +0.000 A 
ATOM     12  C   UNL     1       3.085   3.949  17.448  0.00  0.00    +0.000 A 
ATOM     13  C   UNL     1       2.381   5.089  17.841  0.00  0.00    +0.000 A 
ATOM     14  C   UNL     1       2.991   6.089  18.614  0.00  0.00    +0.000 A 
ATOM     15  C   UNL     1       4.352   5.937  18.941  0.00  0.00    +0.000 A 
BRANCH  10  17
ATOM     16  C   UNL     1       7.405   4.910  18.037  0.00  0.00    +0.000 C 
ATOM     17  O   UNL     1       6.350   4.460  18.870  0.00  0.00    +0.000 OA
ENDBRANCH  10  17
ENDBRANCH   6  14
ENDBRANCH   1   7
BRANCH   5  18
ATOM     18  S   UNL     1       0.245  10.267  19.087  0.00  0.00    +0.000 S 
ATOM     19  O   UNL     1       1.046   9.933  17.931  0.00  0.00    +0.000 OA
ATOM     20  O   UNL     1      -1.060   9.654  19.257  0.00  0.00    +0.000 OA
BRANCH  18  21
ATOM     21  C   UNL     1       0.019  12.031  19.162  0.00  0.00    +0.000 A 
ATOM     22  C   UNL     1      -1.192  12.552  19.656  0.00  0.00    +0.000 A 
ATOM     23  C   UNL     1      -1.361  13.931  19.762  0.00  0.00    +0.000 A 
ATOM     24  C   UNL     1      -0.323  14.778  19.386  0.00  0.00    +0.000 A 
ATOM     25  C   UNL     1       0.896  14.251  18.930  0.00  0.00    +0.000 A 
ATOM     26  C   UNL     1       1.966  15.102  18.625  0.00  0.00    +0.000 A 
ATOM     27  C   UNL     1       3.189  14.575  18.239  0.00  0.00    +0.000 A 
ATOM     28  C   UNL     1       3.293  13.205  18.139  0.00  0.00    +0.000 A 
ATOM     29  N   UNL     1       2.275  12.359  18.396  0.00  0.00    +0.000 NA
ATOM     30  C   UNL     1       1.087  12.852  18.804  0.00  0.00    +0.000 A 
ENDBRANCH  18  21
ENDBRANCH   5  18
TORSDOF 5
ENDMDL
MODEL 9
REMARK VINA RESULT:      -7.2      2.886      8.173
REMARK  Name = 
REMARK  6 active torsions:
REMARK  status: ('A' for Active; 'I' for Inactive)
REMARK    1  A    between atoms: C_1  and  O_2
REMARK    2  A    between atoms: O_2  and  C_3
REMARK    3  A    between atoms: C_7  and  N_8
REMARK    4  A    between atoms: C_9  and  C_11
REMARK    5  A    between atoms: N_15  and  S_16
REMARK    6  A    between atoms: S_16  and  C_19
REMARK                            x       y       z     vdW  Elec       q    Type
REMARK                         _______ _______ _______ _____ _____    ______ ____
ROOT
ATOM      1  C   UNL     1       1.211   8.658  20.915  0.00  0.00    +0.000 C 
ATOM      2  C   UNL     1      -0.050   8.389  21.739  0.00  0.00    +0.000 C 
ATOM      3  C   UNL     1      -0.272   9.693  22.496  0.00  0.00    +0.000 C 
ATOM      4  C   UNL     1       0.522  10.752  21.734  0.00  0.00    +0.000 C 
ATOM      5  N   UNL     1       1.018  10.068  20.495  0.00  0.00    +0.000 NA
ENDROOT
BRANCH   1   7
ATOM      6  N   UNL     1       2.217   7.508  18.924  0.00  0.00    +0.000 N 
ATOM      7  C   UNL     1       1.680   7.409  20.189  0.00  0.00    +0.000 C 
ATOM      8  O   UNL     1       1.613   6.340  20.811  0.00  0.00    +0.000 OA
ATOM      9  H   UNL     1       2.017   8.359  18.394  0.00  0.00    +0.000 HD
BRANCH   6  14
ATOM     10  C   UNL     1       3.199   4.212  17.472  0.00  0.00    +0.000 A 
ATOM     11  C   UNL     1       4.358   4.550  16.770  0.00  0.00    +0.000 A 
ATOM     12  C   UNL     1       4.865   5.842  16.835  0.00  0.00    +0.000 A 
ATOM     13  C   UNL     1       4.195   6.817  17.579  0.00  0.00    +0.000 A 
ATOM     14  C   UNL     1       3.010   6.516  18.269  0.00  0.00    +0.000 A 
ATOM     15  C   UNL     1       2.540   5.190  18.234  0.00  0.00    +0.000 A 
BRANCH  10  17
ATOM     16  C   UNL     1       3.418   1.886  18.058  0.00  0.00    +0.000 C 
ATOM     17  O   UNL     1       2.825   2.911  17.280  0.00  0.00    +0.000 OA
ENDBRANCH  10  17
ENDBRANCH   6  14
ENDBRANCH   1   7
BRANCH   5  18
ATOM     18  S   UNL     1       0.119  10.432  19.105  0.00  0.00    +0.000 S 
ATOM     19  O   UNL     1       0.901  10.093  17.937  0.00  0.00    +0.000 OA
ATOM     20  O   UNL     1      -1.195   9.841  19.285  0.00  0.00    +0.000 OA
BRANCH  18  21
ATOM     21  C   UNL     1      -0.073  12.199  19.199  0.00  0.00    +0.000 A 
ATOM     22  C   UNL     1      -1.268  12.738  19.710  0.00  0.00    +0.000 A 
ATOM     23  C   UNL     1      -1.410  14.118  19.830  0.00  0.00    +0.000 A 
ATOM     24  C   UNL     1      -0.361  14.949  19.450  0.00  0.00    +0.000 A 
ATOM     25  C   UNL     1       0.843  14.403  18.976  0.00  0.00    +0.000 A 
ATOM     26  C   UNL     1       1.925  15.238  18.666  0.00  0.00    +0.000 A 
ATOM     27  C   UNL     1       3.134  14.691  18.262  0.00  0.00    +0.000 A 
ATOM     28  C   UNL     1       3.211  13.321  18.149  0.00  0.00    +0.000 A 
ATOM     29  N   UNL     1       2.181  12.491  18.410  0.00  0.00    +0.000 NA
ATOM     30  C   UNL     1       1.007  13.003  18.836  0.00  0.00    +0.000 A 
ENDBRANCH  18  21
ENDBRANCH   5  18
TORSDOF 5
ENDMDL
