MODEL 1
REMARK VINA RESULT:      -7.0      0.000      0.000
REMARK  Name = 
REMARK  5 active torsions:
REMARK  status: ('A' for Active; 'I' for Inactive)
REMARK    1  A    between atoms: C_1  and  C_2
REMARK    2  A    between atoms: C_2  and  C_3
REMARK    3  A    between atoms: C_2  and  N_4
REMARK    4  A    between atoms: C_7  and  C_8
REMARK    5  A    between atoms: C_19  and  C_20
REMARK                            x       y       z     vdW  Elec       q    Type
REMARK                         _______ _______ _______ _____ _____    ______ ____
ROOT
ATOM      1  N   UNL     1       3.007   3.512  19.311  0.00  0.00    +0.000 N 
ATOM      2  N   UNL     1       3.151   2.198  19.027  0.00  0.00    +0.000 NA
ATOM      3  C   UNL     1       3.804   2.180  17.864  0.00  0.00    +0.000 A 
ATOM      4  C   UNL     1       4.125   3.468  17.399  0.00  0.00    +0.000 A 
ATOM      5  C   UNL     1       3.456   4.310  18.292  0.00  0.00    +0.000 A 
ENDROOT
BRANCH   4   6
ATOM      6  C   UNL     1       4.803   3.934  16.207  0.00  0.00    +0.000 C 
ATOM      7  O   UNL     1       4.138   4.116  15.181  0.00  0.00    +0.000 OA
ATOM      8  N   UNL     1       6.139   4.243  16.194  0.00  0.00    +0.000 N 
ATOM      9  C   UNL     1       6.791   4.957  15.081  0.00  0.00    +0.000 C 
ATOM     10  C   UNL     1       7.583   5.696  16.181  0.00  0.00    +0.000 C 
ATOM     11  C   UNL     1       6.921   7.026  16.561  0.00  0.00    +0.000 C 
ATOM     12  C   UNL     1       7.609   7.709  17.739  0.00  0.00    +0.000 C 
ATOM     13  C   UNL     1       8.019   6.772  18.868  0.00  0.00    +0.000 C 
ATOM     14  C   UNL     1       6.943   5.737  19.197  0.00  0.00    +0.000 C 
ATOM     15  C   UNL     1       7.246   4.399  18.546  0.00  0.00    +0.000 C 
ATOM     16  C   UNL     1       7.323   4.395  17.032  0.00  0.00    +0.000 C 
ENDBRANCH   4   6
BRANCH   5  17
ATOM     17  C   UNL     1       3.231   5.770  18.191  0.00  0.00    +0.000 C 
ATOM     18  F   UNL     1       4.027   6.379  17.275  0.00  0.00    +0.000 F 
ATOM     19  F   UNL     1       1.955   6.054  17.826  0.00  0.00    +0.000 F 
ATOM     20  F   UNL     1       3.481   6.404  19.361  0.00  0.00    +0.000 F 
ENDBRANCH   5  17
BRANCH   1  22
ATOM     21  C   UNL     1       0.931   4.285  20.392  0.00  0.00    +0.000 C 
ATOM     22  C   UNL     1       2.395   3.895  20.586  0.00  0.00    +0.000 C 
ATOM     23  C   UNL     1       2.568   2.824  21.669  0.00  0.00    +0.000 C 
ENDBRANCH   1  22
TORSDOF 3
ENDMDL
MODEL 2
REMARK VINA RESULT:      -6.9      1.817      3.035
REMARK  Name = 
REMARK  5 active torsions:
REMARK  status: ('A' for Active; 'I' for Inactive)
REMARK    1  A    between atoms: C_1  and  C_2
REMARK    2  A    between atoms: C_2  and  C_3
REMARK    3  A    between atoms: C_2  and  N_4
REMARK    4  A    between atoms: C_7  and  C_8
REMARK    5  A    between atoms: C_19  and  C_20
REMARK                            x       y       z     vdW  Elec       q    Type
REMARK                         _______ _______ _______ _____ _____    ______ ____
ROOT
ATOM      1  N   UNL     1       2.769   3.429  19.952  0.00  0.00    +0.000 N 
ATOM      2  N   UNL     1       3.558   2.349  19.759  0.00  0.00    +0.000 NA
ATOM      3  C   UNL     1       4.750   2.859  19.451  0.00  0.00    +0.000 A 
ATOM      4  C   UNL     1       4.764   4.265  19.476  0.00  0.00    +0.000 A 
ATOM      5  C   UNL     1       3.419   4.599  19.656  0.00  0.00    +0.000 A 
ENDROOT
BRANCH   4   6
ATOM      6  C   UNL     1       5.804   5.236  19.205  0.00  0.00    +0.000 C 
ATOM      7  O   UNL     1       6.715   5.375  20.030  0.00  0.00    +0.000 OA
ATOM      8  N   UNL     1       5.852   5.957  18.039  0.00  0.00    +0.000 N 
ATOM      9  C   UNL     1       7.024   6.752  17.629  0.00  0.00    +0.000 C 
ATOM     10  C   UNL     1       6.722   6.236  16.206  0.00  0.00    +0.000 C 
ATOM     11  C   UNL     1       7.537   4.980  15.873  0.00  0.00    +0.000 C 
ATOM     12  C   UNL     1       7.157   4.373  14.526  0.00  0.00    +0.000 C 
ATOM     13  C   UNL     1       5.661   4.345  14.238  0.00  0.00    +0.000 C 
ATOM     14  C   UNL     1       4.835   3.917  15.451  0.00  0.00    +0.000 C 
ATOM     15  C   UNL     1       4.245   5.117  16.170  0.00  0.00    +0.000 C 
ATOM     16  C   UNL     1       5.238   6.118  16.726  0.00  0.00    +0.000 C 
ENDBRANCH   4   6
BRANCH   5  17
ATOM     17  C   UNL     1       2.773   5.927  19.541  0.00  0.00    +0.000 C 
ATOM     18  F   UNL     1       1.823   6.150  20.485  0.00  0.00    +0.000 F 
ATOM     19  F   UNL     1       3.675   6.933  19.671  0.00  0.00    +0.000 F 
ATOM     20  F   UNL     1       2.143   6.083  18.353  0.00  0.00    +0.000 F 
ENDBRANCH   5  17
BRANCH   1  22
ATOM     21  C   UNL     1       0.573   2.499  19.326  0.00  0.00    +0.000 C 
ATOM     22  C   UNL     1       1.388   3.225  20.396  0.00  0.00    +0.000 C 
ATOM     23  C   UNL     1       1.304   2.525  21.758  0.00  0.00    +0.000 C 
ENDBRANCH   1  22
TORSDOF 3
ENDMDL
MODEL 3
REMARK VINA RESULT:      -6.5      3.809      5.815
REMARK  Name = 
REMARK  5 active torsions:
REMARK  status: ('A' for Active; 'I' for Inactive)
REMARK    1  A    between atoms: C_1  and  C_2
REMARK    2  A    between atoms: C_2  and  C_3
REMARK    3  A    between atoms: C_2  and  N_4
REMARK    4  A    between atoms: C_7  and  C_8
REMARK    5  A    between atoms: C_19  and  C_20
REMARK                            x       y       z     vdW  Elec       q    Type
REMARK                         _______ _______ _______ _____ _____    ______ ____
ROOT
ATOM      1  N   UNL     1       0.921   9.232  20.587  0.00  0.00    +0.000 N 
ATOM      2  N   UNL     1       1.159   8.318  21.554  0.00  0.00    +0.000 NA
ATOM      3  C   UNL     1       1.853   7.359  20.939  0.00  0.00    +0.000 A 
ATOM      4  C   UNL     1       2.108   7.651  19.588  0.00  0.00    +0.000 A 
ATOM      5  C   UNL     1       1.354   8.806  19.359  0.00  0.00    +0.000 A 
ENDROOT
BRANCH   4   6
ATOM      6  C   UNL     1       2.797   6.920  18.544  0.00  0.00    +0.000 C 
ATOM      7  O   UNL     1       3.706   7.487  17.926  0.00  0.00    +0.000 OA
ATOM      8  N   UNL     1       2.523   5.607  18.262  0.00  0.00    +0.000 N 
ATOM      9  C   UNL     1       3.375   4.773  17.394  0.00  0.00    +0.000 C 
ATOM     10  C   UNL     1       3.095   3.645  18.410  0.00  0.00    +0.000 C 
ATOM     11  C   UNL     1       4.197   3.552  19.473  0.00  0.00    +0.000 C 
ATOM     12  C   UNL     1       3.876   2.537  20.565  0.00  0.00    +0.000 C 
ATOM     13  C   UNL     1       2.429   2.550  21.043  0.00  0.00    +0.000 C 
ATOM     14  C   UNL     1       1.882   3.966  21.227  0.00  0.00    +0.000 C 
ATOM     15  C   UNL     1       1.047   4.396  20.034  0.00  0.00    +0.000 C 
ATOM     16  C   UNL     1       1.764   4.440  18.699  0.00  0.00    +0.000 C 
ENDBRANCH   4   6
BRANCH   5  17
ATOM     17  C   UNL     1       1.040   9.464  18.069  0.00  0.00    +0.000 C 
ATOM     18  F   UNL     1      -0.111  10.183  18.095  0.00  0.00    +0.000 F 
ATOM     19  F   UNL     1       2.016  10.332  17.702  0.00  0.00    +0.000 F 
ATOM     20  F   UNL     1       0.881   8.567  17.068  0.00  0.00    +0.000 F 
ENDBRANCH   5  17
BRANCH   1  22
ATOM     21  C   UNL     1      -0.365  10.386  22.346  0.00  0.00    +0.000 C 
ATOM     22  C   UNL     1       0.241  10.479  20.947  0.00  0.00    +0.000 C 
ATOM     23  C   UNL     1       1.143  11.710  20.790  0.00  0.00    +0.000 C 
ENDBRANCH   1  22
TORSDOF 3
ENDMDL
MODEL 4
REMARK VINA RESULT:      -6.4      3.630      5.173
REMARK  Name = 
REMARK  5 active torsions:
REMARK  status: ('A' for Active; 'I' for Inactive)
REMARK    1  A    between atoms: C_1  and  C_2
REMARK    2  A    between atoms: C_2  and  C_3
REMARK    3  A    between atoms: C_2  and  N_4
REMARK    4  A    between atoms: C_7  and  C_8
REMARK    5  A    between atoms: C_19  and  C_20
REMARK                            x       y       z     vdW  Elec       q    Type
REMARK                         _______ _______ _______ _____ _____    ______ ____
ROOT
ATOM      1  N   UNL     1       1.492   9.317  18.830  0.00  0.00    +0.000 N 
ATOM      2  N   UNL     1       2.117   9.237  17.634  0.00  0.00    +0.000 NA
ATOM      3  C   UNL     1       2.616   8.001  17.604  0.00  0.00    +0.000 A 
ATOM      4  C   UNL     1       2.293   7.254  18.750  0.00  0.00    +0.000 A 
ATOM      5  C   UNL     1       1.690   8.195  19.591  0.00  0.00    +0.000 A 
ENDROOT
BRANCH   4   6
ATOM      6  C   UNL     1       2.616   5.902  19.158  0.00  0.00    +0.000 C 
ATOM      7  O   UNL     1       1.706   5.175  19.573  0.00  0.00    +0.000 OA
ATOM      8  N   UNL     1       3.878   5.380  19.039  0.00  0.00    +0.000 N 
ATOM      9  C   UNL     1       4.177   3.945  19.201  0.00  0.00    +0.000 C 
ATOM     10  C   UNL     1       5.154   4.141  18.023  0.00  0.00    +0.000 C 
ATOM     11  C   UNL     1       4.503   3.788  16.680  0.00  0.00    +0.000 C 
ATOM     12  C   UNL     1       5.404   4.103  15.490  0.00  0.00    +0.000 C 
ATOM     13  C   UNL     1       6.153   5.426  15.589  0.00  0.00    +0.000 C 
ATOM     14  C   UNL     1       5.278   6.562  16.117  0.00  0.00    +0.000 C 
ATOM     15  C   UNL     1       5.515   6.802  17.597  0.00  0.00    +0.000 C 
ATOM     16  C   UNL     1       5.217   5.636  18.519  0.00  0.00    +0.000 C 
ENDBRANCH   4   6
BRANCH   5  17
ATOM     17  C   UNL     1       1.338   8.063  21.023  0.00  0.00    +0.000 C 
ATOM     18  F   UNL     1       1.784   6.911  21.586  0.00  0.00    +0.000 F 
ATOM     19  F   UNL     1       1.868   9.071  21.761  0.00  0.00    +0.000 F 
ATOM     20  F   UNL     1      -0.001   8.062  21.218  0.00  0.00    +0.000 F 
ENDBRANCH   5  17
BRANCH   1  22
ATOM     21  C   UNL     1       1.519  11.780  18.715  0.00  0.00    +0.000 C 
ATOM     22  C   UNL     1       0.749  10.537  19.157  0.00  0.00    +0.000 C 
ATOM     23  C   UNL     1      -0.683  10.521  18.608  0.00  0.00    +0.000 C 
ENDBRANCH   1  22
TORSDOF 3
ENDMDL
MODEL 5
REMARK VINA RESULT:      -6.2      1.845      3.024
REMARK  Name = 
REMARK  5 active torsions:
REMARK  status: ('A' for Active; 'I' for Inactive)
REMARK    1  A    between atoms: C_1  and  C_2
REMARK    2  A    between atoms: C_2  and  C_3
REMARK    3  A    between atoms: C_2  and  N_4
REMARK    4  A    between atoms: C_7  and  C_8
REMARK    5  A    between atoms: C_19  and  C_20
REMARK                            x       y       z     vdW  Elec       q    Type
REMARK                         _______ _______ _______ _____ _____    ______ ____
ROOT
ATOM      1  N   UNL     1       3.001   2.858  19.907  0.00  0.00    +0.000 N 
ATOM      2  N   UNL     1       3.906   1.900  19.605  0.00  0.00    +0.000 NA
ATOM      3  C   UNL     1       5.011   2.576  19.293  0.00  0.00    +0.000 A 
ATOM      4  C   UNL     1       4.856   3.967  19.422  0.00  0.00    +0.000 A 
ATOM      5  C   UNL     1       3.489   4.118  19.676  0.00  0.00    +0.000 A 
ENDROOT
BRANCH   4   6
ATOM      6  C   UNL     1       5.757   5.077  19.187  0.00  0.00    +0.000 C 
ATOM      7  O   UNL     1       6.643   5.307  20.018  0.00  0.00    +0.000 OA
ATOM      8  N   UNL     1       5.705   5.837  18.047  0.00  0.00    +0.000 N 
ATOM      9  C   UNL     1       6.760   6.795  17.667  0.00  0.00    +0.000 C 
ATOM     10  C   UNL     1       6.525   6.293  16.226  0.00  0.00    +0.000 C 
ATOM     11  C   UNL     1       7.499   5.169  15.851  0.00  0.00    +0.000 C 
ATOM     12  C   UNL     1       7.199   4.563  14.483  0.00  0.00    +0.000 C 
ATOM     13  C   UNL     1       5.719   4.347  14.192  0.00  0.00    +0.000 C 
ATOM     14  C   UNL     1       4.961   3.771  15.388  0.00  0.00    +0.000 C 
ATOM     15  C   UNL     1       4.218   4.856  16.147  0.00  0.00    +0.000 C 
ATOM     16  C   UNL     1       5.072   5.960  16.739  0.00  0.00    +0.000 C 
ENDBRANCH   4   6
BRANCH   5  17
ATOM     17  C   UNL     1       2.682   5.359  19.684  0.00  0.00    +0.000 C 
ATOM     18  F   UNL     1       1.859   5.476  18.611  0.00  0.00    +0.000 F 
ATOM     19  F   UNL     1       1.883   5.427  20.779  0.00  0.00    +0.000 F 
ATOM     20  F   UNL     1       3.458   6.469  19.664  0.00  0.00    +0.000 F 
ENDBRANCH   5  17
BRANCH   1  22
ATOM     21  C   UNL     1       1.461   2.890  21.832  0.00  0.00    +0.000 C 
ATOM     22  C   UNL     1       1.676   2.453  20.384  0.00  0.00    +0.000 C 
ATOM     23  C   UNL     1       0.546   2.931  19.464  0.00  0.00    +0.000 C 
ENDBRANCH   1  22
TORSDOF 3
ENDMDL
MODEL 6
REMARK VINA RESULT:      -6.0      2.631      3.766
REMARK  Name = 
REMARK  5 active torsions:
REMARK  status: ('A' for Active; 'I' for Inactive)
REMARK    1  A    between atoms: C_1  and  C_2
REMARK    2  A    between atoms: C_2  and  C_3
REMARK    3  A    between atoms: C_2  and  N_4
REMARK    4  A    between atoms: C_7  and  C_8
REMARK    5  A    between atoms: C_19  and  C_20
REMARK                            x       y       z     vdW  Elec       q    Type
REMARK                         _______ _______ _______ _____ _____    ______ ____
ROOT
ATOM      1  N   UNL     1       1.743   7.247  20.124  0.00  0.00    +0.000 N 
ATOM      2  N   UNL     1       2.135   8.062  19.120  0.00  0.00    +0.000 NA
ATOM      3  C   UNL     1       2.489   7.233  18.139  0.00  0.00    +0.000 A 
ATOM      4  C   UNL     1       2.298   5.880  18.472  0.00  0.00    +0.000 A 
ATOM      5  C   UNL     1       1.955   5.926  19.827  0.00  0.00    +0.000 A 
ENDROOT
BRANCH   4   6
ATOM      6  C   UNL     1       2.546   4.651  17.747  0.00  0.00    +0.000 C 
ATOM      7  O   UNL     1       1.620   4.148  17.100  0.00  0.00    +0.000 OA
ATOM      8  N   UNL     1       3.784   4.064  17.697  0.00  0.00    +0.000 N 
ATOM      9  C   UNL     1       4.122   2.970  16.767  0.00  0.00    +0.000 C 
ATOM     10  C   UNL     1       5.482   3.684  16.616  0.00  0.00    +0.000 C 
ATOM     11  C   UNL     1       5.495   4.629  15.408  0.00  0.00    +0.000 C 
ATOM     12  C   UNL     1       6.780   5.447  15.316  0.00  0.00    +0.000 C 
ATOM     13  C   UNL     1       7.288   5.988  16.646  0.00  0.00    +0.000 C 
ATOM     14  C   UNL     1       6.167   6.551  17.521  0.00  0.00    +0.000 C 
ATOM     15  C   UNL     1       5.733   5.550  18.577  0.00  0.00    +0.000 C 
ATOM     16  C   UNL     1       5.186   4.233  18.063  0.00  0.00    +0.000 C 
ENDBRANCH   4   6
BRANCH   5  17
ATOM     17  C   UNL     1       1.852   4.808  20.791  0.00  0.00    +0.000 C 
ATOM     18  F   UNL     1       2.568   3.713  20.430  0.00  0.00    +0.000 F 
ATOM     19  F   UNL     1       2.306   5.165  22.020  0.00  0.00    +0.000 F 
ATOM     20  F   UNL     1       0.577   4.373  20.929  0.00  0.00    +0.000 F 
ENDBRANCH   5  17
BRANCH   1  22
ATOM     21  C   UNL     1       1.853   9.195  21.631  0.00  0.00    +0.000 C 
ATOM     22  C   UNL     1       1.201   7.843  21.348  0.00  0.00    +0.000 C 
ATOM     23  C   UNL     1      -0.330   7.934  21.332  0.00  0.00    +0.000 C 
ENDBRANCH   1  22
TORSDOF 3
ENDMDL
MODEL 7
REMARK VINA RESULT:      -6.0      3.353      5.248
REMARK  Name = 
REMARK  5 active torsions:
REMARK  status: ('A' for Active; 'I' for Inactive)
REMARK    1  A    between atoms: C_1  and  C_2
REMARK    2  A    between atoms: C_2  and  C_3
REMARK    3  A    between atoms: C_2  and  N_4
REMARK    4  A    between atoms: C_7  and  C_8
REMARK    5  A    between atoms: C_19  and  C_20
REMARK                            x       y       z     vdW  Elec       q    Type
REMARK                         _______ _______ _______ _____ _____    ______ ____
ROOT
ATOM      1  N   UNL     1       1.141   8.423  20.339  0.00  0.00    +0.000 N 
ATOM      2  N   UNL     1       1.248   7.368  21.177  0.00  0.00    +0.000 NA
ATOM      3  C   UNL     1       2.101   6.545  20.567  0.00  0.00    +0.000 A 
ATOM      4  C   UNL     1       2.588   7.064  19.354  0.00  0.00    +0.000 A 
ATOM      5  C   UNL     1       1.823   8.220  19.167  0.00  0.00    +0.000 A 
ENDROOT
BRANCH   4   6
ATOM      6  C   UNL     1       3.504   6.537  18.364  0.00  0.00    +0.000 C 
ATOM      7  O   UNL     1       4.602   7.087  18.221  0.00  0.00    +0.000 OA
ATOM      8  N   UNL     1       3.225   5.414  17.628  0.00  0.00    +0.000 N 
ATOM      9  C   UNL     1       4.233   4.714  16.810  0.00  0.00    +0.000 C 
ATOM     10  C   UNL     1       3.562   3.419  17.314  0.00  0.00    +0.000 C 
ATOM     11  C   UNL     1       4.271   2.857  18.552  0.00  0.00    +0.000 C 
ATOM     12  C   UNL     1       3.547   1.654  19.149  0.00  0.00    +0.000 C 
ATOM     13  C   UNL     1       2.030   1.782  19.197  0.00  0.00    +0.000 C 
ATOM     14  C   UNL     1       1.569   3.166  19.653  0.00  0.00    +0.000 C 
ATOM     15  C   UNL     1       1.181   4.037  18.471  0.00  0.00    +0.000 C 
ATOM     16  C   UNL     1       2.276   4.319  17.462  0.00  0.00    +0.000 C 
ENDBRANCH   4   6
BRANCH   5  17
ATOM     17  C   UNL     1       1.718   9.072  17.961  0.00  0.00    +0.000 C 
ATOM     18  F   UNL     1       2.288   8.524  16.858  0.00  0.00    +0.000 F 
ATOM     19  F   UNL     1       0.423   9.314  17.633  0.00  0.00    +0.000 F 
ATOM     20  F   UNL     1       2.335  10.266  18.129  0.00  0.00    +0.000 F 
ENDBRANCH   5  17
BRANCH   1  22
ATOM     21  C   UNL     1      -0.481   9.247  22.002  0.00  0.00    +0.000 C 
ATOM     22  C   UNL     1       0.331   9.572  20.750  0.00  0.00    +0.000 C 
ATOM     23  C   UNL     1       1.163  10.850  20.918  0.00  0.00    +0.000 C 
ENDBRANCH   1  22
TORSDOF 3
ENDMDL
MODEL 8
REMARK VINA RESULT:      -5.8      3.682      5.635
REMARK  Name = 
REMARK  5 active torsions:
REMARK  status: ('A' for Active; 'I' for Inactive)
REMARK    1  A    between atoms: C_1  and  C_2
REMARK    2  A    between atoms: C_2  and  C_3
REMARK    3  A    between atoms: C_2  and  N_4
REMARK    4  A    between atoms: C_7  and  C_8
REMARK    5  A    between atoms: C_19  and  C_20
REMARK                            x       y       z     vdW  Elec       q    Type
REMARK                         _______ _______ _______ _____ _____    ______ ____
ROOT
ATOM      1  N   UNL     1       1.020   9.107  20.389  0.00  0.00    +0.000 N 
ATOM      2  N   UNL     1       1.070   8.154  21.346  0.00  0.00    +0.000 NA
ATOM      3  C   UNL     1       1.765   7.162  20.789  0.00  0.00    +0.000 A 
ATOM      4  C   UNL     1       2.206   7.467  19.489  0.00  0.00    +0.000 A 
ATOM      5  C   UNL     1       1.571   8.681  19.209  0.00  0.00    +0.000 A 
ENDROOT
BRANCH   4   6
ATOM      6  C   UNL     1       2.966   6.713  18.514  0.00  0.00    +0.000 C 
ATOM      7  O   UNL     1       3.945   7.249  17.983  0.00  0.00    +0.000 OA
ATOM      8  N   UNL     1       2.679   5.408  18.208  0.00  0.00    +0.000 N 
ATOM      9  C   UNL     1       3.582   4.545  17.422  0.00  0.00    +0.000 C 
ATOM     10  C   UNL     1       3.174   3.430  18.408  0.00  0.00    +0.000 C 
ATOM     11  C   UNL     1       4.170   3.306  19.568  0.00  0.00    +0.000 C 
ATOM     12  C   UNL     1       3.717   2.304  20.626  0.00  0.00    +0.000 C 
ATOM     13  C   UNL     1       2.234   2.363  20.967  0.00  0.00    +0.000 C 
ATOM     14  C   UNL     1       1.716   3.795  21.100  0.00  0.00    +0.000 C 
ATOM     15  C   UNL     1       1.009   4.247  19.835  0.00  0.00    +0.000 C 
ATOM     16  C   UNL     1       1.848   4.266  18.572  0.00  0.00    +0.000 C 
ENDBRANCH   4   6
BRANCH   5  17
ATOM     17  C   UNL     1       1.467   9.391  17.914  0.00  0.00    +0.000 C 
ATOM     18  F   UNL     1       2.228   8.841  16.932  0.00  0.00    +0.000 F 
ATOM     19  F   UNL     1       0.193   9.390  17.445  0.00  0.00    +0.000 F 
ATOM     20  F   UNL     1       1.876  10.678  18.006  0.00  0.00    +0.000 F 
ENDBRANCH   5  17
BRANCH   1  22
ATOM     21  C   UNL     1      -0.917  10.563  19.931  0.00  0.00    +0.000 C 
ATOM     22  C   UNL     1       0.390  10.392  20.704  0.00  0.00    +0.000 C 
ATOM     23  C   UNL     1       0.200  10.602  22.211  0.00  0.00    +0.000 C 
ENDBRANCH   1  22
TORSDOF 3
ENDMDL
MODEL 9
REMARK VINA RESULT:      -5.7      1.905      2.586
REMARK  Name = 
REMARK  5 active torsions:
REMARK  status: ('A' for Active; 'I' for Inactive)
REMARK    1  A    between atoms: C_1  and  C_2
REMARK    2  A    between atoms: C_2  and  C_3
REMARK    3  A    between atoms: C_2  and  N_4
REMARK    4  A    between atoms: C_7  and  C_8
REMARK    5  A    between atoms: C_19  and  C_20
REMARK                            x       y       z     vdW  Elec       q    Type
REMARK                         _______ _______ _______ _____ _____    ______ ____
ROOT
ATOM      1  N   UNL     1       2.301   3.965  19.901  0.00  0.00    +0.000 N 
ATOM      2  N   UNL     1       2.449   5.019  20.734  0.00  0.00    +0.000 NA
ATOM      3  C   UNL     1       2.946   5.985  19.962  0.00  0.00    +0.000 A 
ATOM      4  C   UNL     1       3.090   5.591  18.620  0.00  0.00    +0.000 A 
ATOM      5  C   UNL     1       2.804   4.223  18.652  0.00  0.00    +0.000 A 
ENDROOT
BRANCH   4   6
ATOM      6  C   UNL     1       3.587   6.280  17.447  0.00  0.00    +0.000 C 
ATOM      7  O   UNL     1       2.893   7.172  16.945  0.00  0.00    +0.000 OA
ATOM      8  N   UNL     1       4.825   6.027  16.915  0.00  0.00    +0.000 N 
ATOM      9  C   UNL     1       5.455   6.884  15.893  0.00  0.00    +0.000 C 
ATOM     10  C   UNL     1       6.766   6.636  16.669  0.00  0.00    +0.000 C 
ATOM     11  C   UNL     1       7.044   7.751  17.684  0.00  0.00    +0.000 C 
ATOM     12  C   UNL     1       8.260   7.461  18.558  0.00  0.00    +0.000 C 
ATOM     13  C   UNL     1       8.370   6.020  19.040  0.00  0.00    +0.000 C 
ATOM     14  C   UNL     1       7.030   5.449  19.503  0.00  0.00    +0.000 C 
ATOM     15  C   UNL     1       6.390   4.594  18.425  0.00  0.00    +0.000 C 
ATOM     16  C   UNL     1       6.070   5.294  17.119  0.00  0.00    +0.000 C 
ENDBRANCH   4   6
BRANCH   5  17
ATOM     17  C   UNL     1       3.004   3.211  17.589  0.00  0.00    +0.000 C 
ATOM     18  F   UNL     1       3.197   3.751  16.358  0.00  0.00    +0.000 F 
ATOM     19  F   UNL     1       4.094   2.439  17.835  0.00  0.00    +0.000 F 
ATOM     20  F   UNL     1       1.934   2.393  17.459  0.00  0.00    +0.000 F 
ENDBRANCH   5  17
BRANCH   1  22
ATOM     21  C   UNL     1       1.821   2.658  21.936  0.00  0.00    +0.000 C 
ATOM     22  C   UNL     1       1.687   2.739  20.416  0.00  0.00    +0.000 C 
ATOM     23  C   UNL     1       0.234   2.568  19.956  0.00  0.00    +0.000 C 
ENDBRANCH   1  22
TORSDOF 3
ENDMDL
