MODEL 1
REMARK VINA RESULT:      -8.6      0.000      0.000
REMARK  Name = 
REMARK  6 active torsions:
REMARK  status: ('A' for Active; 'I' for Inactive)
REMARK    1  A    between atoms: C_1  and  C_2
REMARK    2  A    between atoms: C_5  and  C_6
REMARK    3  A    between atoms: C_11  and  C_12
REMARK    4  A    between atoms: C_12  and  C_14
REMARK    5  A    between atoms: C_18  and  C_19
REMARK    6  A    between atoms: C_21  and  O_22
REMARK                            x       y       z     vdW  Elec       q    Type
REMARK                         _______ _______ _______ _____ _____    ______ ____
ROOT
ATOM      1  C   UNL     1       8.402   9.474  18.029  0.00  0.00    +0.000 A 
ATOM      2  C   UNL     1       8.867   8.424  18.860  0.00  0.00    +0.000 A 
ATOM      3  C   UNL     1       8.066   7.344  18.585  0.00  0.00    +0.000 A 
ATOM      4  N   UNL     1       8.089   6.057  19.042  0.00  0.00    +0.000 NA
ATOM      5  C   UNL     1       7.159   5.281  18.569  0.00  0.00    +0.000 A 
ATOM      6  C   UNL     1       6.073   5.664  17.622  0.00  0.00    +0.000 A 
ATOM      7  C   UNL     1       6.147   6.930  17.173  0.00  0.00    +0.000 A 
ATOM      8  N   UNL     1       7.134   7.787  17.645  0.00  0.00    +0.000 N 
ATOM      9  N   UNL     1       7.332   9.085  17.319  0.00  0.00    +0.000 NA
ENDROOT
BRANCH   1  14
ATOM     10  C   UNL     1      10.648  14.787  17.612  0.00  0.00    +0.000 C 
ATOM     11  C   UNL     1      10.062  13.410  17.693  0.00  0.00    +0.000 A 
ATOM     12  C   UNL     1       8.682  13.212  17.585  0.00  0.00    +0.000 A 
ATOM     13  C   UNL     1       8.143  11.924  17.686  0.00  0.00    +0.000 A 
ATOM     14  C   UNL     1       8.974  10.816  17.898  0.00  0.00    +0.000 A 
ATOM     15  C   UNL     1      10.354  11.018  18.000  0.00  0.00    +0.000 A 
ATOM     16  C   UNL     1      10.894  12.305  17.895  0.00  0.00    +0.000 A 
ENDBRANCH   1  14
BRANCH   6  17
ATOM     17  C   UNL     1       4.985   4.777  17.137  0.00  0.00    +0.000 C 
ATOM     18  O   UNL     1       4.939   4.436  15.954  0.00  0.00    +0.000 OA
BRANCH  17  19
ATOM     19  C   UNL     1       3.954   4.255  18.071  0.00  0.00    +0.000 A 
ATOM     20  C   UNL     1       3.281   5.192  18.867  0.00  0.00    +0.000 A 
ATOM     21  C   UNL     1       2.318   4.783  19.796  0.00  0.00    +0.000 A 
ATOM     22 CL   UNL     1       1.548   6.012  20.734  0.00  0.00    +0.000 Cl
ATOM     23  C   UNL     1       2.009   3.424  19.948  0.00  0.00    +0.000 A 
ATOM     24  C   UNL     1       0.995   2.897  20.927  0.00  0.00    +0.000 C 
ATOM     25  C   UNL     1       2.693   2.487  19.154  0.00  0.00    +0.000 A 
ATOM     26  C   UNL     1       3.668   2.897  18.243  0.00  0.00    +0.000 A 
BRANCH  26  27
ATOM     27  O   UNL     1       4.358   1.948  17.544  0.00  0.00    +0.000 OA
ATOM     28  H   UNL     1       3.957   1.820  16.666  0.00  0.00    +0.000 HD
ENDBRANCH  26  27
ENDBRANCH  17  19
ENDBRANCH   6  17
TORSDOF 4
ENDMDL
MODEL 2
REMARK VINA RESULT:      -8.2      6.775      9.079
REMARK  Name = 
REMARK  6 active torsions:
REMARK  status: ('A' for Active; 'I' for Inactive)
REMARK    1  A    between atoms: C_1  and  C_2
REMARK    2  A    between atoms: C_5  and  C_6
REMARK    3  A    between atoms: C_11  and  C_12
REMARK    4  A    between atoms: C_12  and  C_14
REMARK    5  A    between atoms: C_18  and  C_19
REMARK    6  A    between atoms: C_21  and  O_22
REMARK                            x       y       z     vdW  Elec       q    Type
REMARK                         _______ _______ _______ _____ _____    ______ ____
ROOT
ATOM      1  C   UNL     1       2.943   7.151  18.268  0.00  0.00    +0.000 A 
ATOM      2  C   UNL     1       2.537   6.934  19.608  0.00  0.00    +0.000 A 
ATOM      3  C   UNL     1       1.703   7.977  19.922  0.00  0.00    +0.000 A 
ATOM      4  N   UNL     1       0.980   8.256  21.047  0.00  0.00    +0.000 NA
ATOM      5  C   UNL     1       0.287   9.356  21.006  0.00  0.00    +0.000 A 
ATOM      6  C   UNL     1       0.237  10.338  19.885  0.00  0.00    +0.000 A 
ATOM      7  C   UNL     1       0.928   9.970  18.792  0.00  0.00    +0.000 A 
ATOM      8  N   UNL     1       1.671   8.795  18.791  0.00  0.00    +0.000 N 
ATOM      9  N   UNL     1       2.435   8.297  17.792  0.00  0.00    +0.000 NA
ENDROOT
BRANCH   1  14
ATOM     10  C   UNL     1       6.185   3.695  14.951  0.00  0.00    +0.000 C 
ATOM     11  C   UNL     1       5.360   4.584  15.832  0.00  0.00    +0.000 A 
ATOM     12  C   UNL     1       4.412   4.044  16.706  0.00  0.00    +0.000 A 
ATOM     13  C   UNL     1       3.631   4.883  17.508  0.00  0.00    +0.000 A 
ATOM     14  C   UNL     1       3.783   6.275  17.446  0.00  0.00    +0.000 A 
ATOM     15  C   UNL     1       4.735   6.811  16.574  0.00  0.00    +0.000 A 
ATOM     16  C   UNL     1       5.521   5.971  15.775  0.00  0.00    +0.000 A 
ENDBRANCH   1  14
BRANCH   6  17
ATOM     17  C   UNL     1      -0.517  11.618  19.881  0.00  0.00    +0.000 C 
ATOM     18  O   UNL     1       0.012  12.654  20.289  0.00  0.00    +0.000 OA
BRANCH  17  19
ATOM     19  C   UNL     1      -1.903  11.684  19.352  0.00  0.00    +0.000 A 
ATOM     20  C   UNL     1      -2.133  11.114  18.093  0.00  0.00    +0.000 A 
ATOM     21  C   UNL     1      -3.403  11.160  17.506  0.00  0.00    +0.000 A 
ATOM     22 CL   UNL     1      -3.586  10.434  15.950  0.00  0.00    +0.000 Cl
ATOM     23  C   UNL     1      -4.471  11.781  18.170  0.00  0.00    +0.000 A 
ATOM     24  C   UNL     1      -5.864  11.883  17.611  0.00  0.00    +0.000 C 
ATOM     25  C   UNL     1      -4.233  12.359  19.429  0.00  0.00    +0.000 A 
ATOM     26  C   UNL     1      -2.960  12.330  20.002  0.00  0.00    +0.000 A 
BRANCH  26  27
ATOM     27  O   UNL     1      -2.757  12.967  21.193  0.00  0.00    +0.000 OA
ATOM     28  H   UNL     1      -3.217  13.826  21.196  0.00  0.00    +0.000 HD
ENDBRANCH  26  27
ENDBRANCH  17  19
ENDBRANCH   6  17
TORSDOF 4
ENDMDL
MODEL 3
REMARK VINA RESULT:      -8.2      6.055      8.019
REMARK  Name = 
REMARK  6 active torsions:
REMARK  status: ('A' for Active; 'I' for Inactive)
REMARK    1  A    between atoms: C_1  and  C_2
REMARK    2  A    between atoms: C_5  and  C_6
REMARK    3  A    between atoms: C_11  and  C_12
REMARK    4  A    between atoms: C_12  and  C_14
REMARK    5  A    between atoms: C_18  and  C_19
REMARK    6  A    between atoms: C_21  and  O_22
REMARK                            x       y       z     vdW  Elec       q    Type
REMARK                         _______ _______ _______ _____ _____    ______ ____
ROOT
ATOM      1  C   UNL     1       0.303  10.725  20.984  0.00  0.00    +0.000 A 
ATOM      2  C   UNL     1       0.610  10.858  19.606  0.00  0.00    +0.000 A 
ATOM      3  C   UNL     1       1.195   9.673  19.235  0.00  0.00    +0.000 A 
ATOM      4  N   UNL     1       1.638   9.219  18.025  0.00  0.00    +0.000 NA
ATOM      5  C   UNL     1       2.156   8.026  18.034  0.00  0.00    +0.000 A 
ATOM      6  C   UNL     1       2.341   7.142  19.220  0.00  0.00    +0.000 A 
ATOM      7  C   UNL     1       1.832   7.632  20.364  0.00  0.00    +0.000 A 
ATOM      8  N   UNL     1       1.258   8.898  20.394  0.00  0.00    +0.000 N 
ATOM      9  N   UNL     1       0.728   9.544  21.458  0.00  0.00    +0.000 NA
ENDROOT
BRANCH   1  14
ATOM     10  C   UNL     1      -2.527  14.569  24.249  0.00  0.00    +0.000 C 
ATOM     11  C   UNL     1      -1.773  13.574  23.421  0.00  0.00    +0.000 A 
ATOM     12  C   UNL     1      -0.717  13.981  22.599  0.00  0.00    +0.000 A 
ATOM     13  C   UNL     1      -0.034  13.047  21.812  0.00  0.00    +0.000 A 
ATOM     14  C   UNL     1      -0.397  11.694  21.831  0.00  0.00    +0.000 A 
ATOM     15  C   UNL     1      -1.450  11.290  22.657  0.00  0.00    +0.000 A 
ATOM     16  C   UNL     1      -2.131  12.223  23.449  0.00  0.00    +0.000 A 
ENDBRANCH   1  14
BRANCH   6  17
ATOM     17  C   UNL     1       2.988   5.805  19.219  0.00  0.00    +0.000 C 
ATOM     18  O   UNL     1       2.677   4.961  20.061  0.00  0.00    +0.000 OA
BRANCH  17  19
ATOM     19  C   UNL     1       3.992   5.445  18.185  0.00  0.00    +0.000 A 
ATOM     20  C   UNL     1       5.151   6.231  18.121  0.00  0.00    +0.000 A 
ATOM     21  C   UNL     1       6.133   5.982  17.156  0.00  0.00    +0.000 A 
ATOM     22 CL   UNL     1       7.522   7.008  17.154  0.00  0.00    +0.000 Cl
ATOM     23  C   UNL     1       5.975   4.938  16.233  0.00  0.00    +0.000 A 
ATOM     24  C   UNL     1       6.976   4.605  15.160  0.00  0.00    +0.000 C 
ATOM     25  C   UNL     1       4.807   4.158  16.296  0.00  0.00    +0.000 A 
ATOM     26  C   UNL     1       3.819   4.423  17.247  0.00  0.00    +0.000 A 
BRANCH  26  27
ATOM     27  O   UNL     1       2.669   3.687  17.225  0.00  0.00    +0.000 OA
ATOM     28  H   UNL     1       2.785   2.869  17.741  0.00  0.00    +0.000 HD
ENDBRANCH  26  27
ENDBRANCH  17  19
ENDBRANCH   6  17
TORSDOF 4
ENDMDL
MODEL 4
REMARK VINA RESULT:      -8.2      7.079      9.321
REMARK  Name = 
REMARK  6 active torsions:
REMARK  status: ('A' for Active; 'I' for Inactive)
REMARK    1  A    between atoms: C_1  and  C_2
REMARK    2  A    between atoms: C_5  and  C_6
REMARK    3  A    between atoms: C_11  and  C_12
REMARK    4  A    between atoms: C_12  and  C_14
REMARK    5  A    between atoms: C_18  and  C_19
REMARK    6  A    between atoms: C_21  and  O_22
REMARK                            x       y       z     vdW  Elec       q    Type
REMARK                         _______ _______ _______ _____ _____    ______ ____
ROOT
ATOM      1  C   UNL     1       2.539   7.560  18.411  0.00  0.00    +0.000 A 
ATOM      2  C   UNL     1       2.146   7.590  19.773  0.00  0.00    +0.000 A 
ATOM      3  C   UNL     1       1.270   8.640  19.889  0.00  0.00    +0.000 A 
ATOM      4  N   UNL     1       0.540   9.101  20.947  0.00  0.00    +0.000 NA
ATOM      5  C   UNL     1      -0.197  10.144  20.704  0.00  0.00    +0.000 A 
ATOM      6  C   UNL     1      -0.291  10.889  19.416  0.00  0.00    +0.000 A 
ATOM      7  C   UNL     1       0.412  10.346  18.406  0.00  0.00    +0.000 A 
ATOM      8  N   UNL     1       1.202   9.223  18.623  0.00  0.00    +0.000 N 
ATOM      9  N   UNL     1       1.984   8.574  17.730  0.00  0.00    +0.000 NA
ENDROOT
BRANCH   1  14
ATOM     10  C   UNL     1       5.925   3.685  15.772  0.00  0.00    +0.000 C 
ATOM     11  C   UNL     1       5.058   4.682  16.479  0.00  0.00    +0.000 A 
ATOM     12  C   UNL     1       3.926   4.269  17.189  0.00  0.00    +0.000 A 
ATOM     13  C   UNL     1       3.110   5.210  17.827  0.00  0.00    +0.000 A 
ATOM     14  C   UNL     1       3.412   6.577  17.764  0.00  0.00    +0.000 A 
ATOM     15  C   UNL     1       4.547   6.985  17.057  0.00  0.00    +0.000 A 
ATOM     16  C   UNL     1       5.367   6.044  16.423  0.00  0.00    +0.000 A 
ENDBRANCH   1  14
BRANCH   6  17
ATOM     17  C   UNL     1      -1.096  12.114  19.174  0.00  0.00    +0.000 C 
ATOM     18  O   UNL     1      -0.570  13.227  19.235  0.00  0.00    +0.000 OA
BRANCH  17  19
ATOM     19  C   UNL     1      -2.535  12.022  18.819  0.00  0.00    +0.000 A 
ATOM     20  C   UNL     1      -3.460  12.224  19.853  0.00  0.00    +0.000 A 
ATOM     21  C   UNL     1      -4.835  12.124  19.613  0.00  0.00    +0.000 A 
ATOM     22 CL   UNL     1      -5.895  12.384  20.951  0.00  0.00    +0.000 Cl
ATOM     23  C   UNL     1      -5.313  11.819  18.330  0.00  0.00    +0.000 A 
ATOM     24  C   UNL     1      -6.772  11.684  17.986  0.00  0.00    +0.000 C 
ATOM     25  C   UNL     1      -4.381  11.609  17.300  0.00  0.00    +0.000 A 
ATOM     26  C   UNL     1      -3.009  11.689  17.547  0.00  0.00    +0.000 A 
BRANCH  26  27
ATOM     27  O   UNL     1      -2.139  11.407  16.533  0.00  0.00    +0.000 OA
ATOM     28  H   UNL     1      -1.450  10.792  16.844  0.00  0.00    +0.000 HD
ENDBRANCH  26  27
ENDBRANCH  17  19
ENDBRANCH   6  17
TORSDOF 4
ENDMDL
MODEL 5
REMARK VINA RESULT:      -8.1      7.489      9.847
REMARK  Name = 
REMARK  6 active torsions:
REMARK  status: ('A' for Active; 'I' for Inactive)
REMARK    1  A    between atoms: C_1  and  C_2
REMARK    2  A    between atoms: C_5  and  C_6
REMARK    3  A    between atoms: C_11  and  C_12
REMARK    4  A    between atoms: C_12  and  C_14
REMARK    5  A    between atoms: C_18  and  C_19
REMARK    6  A    between atoms: C_21  and  O_22
REMARK                            x       y       z     vdW  Elec       q    Type
REMARK                         _______ _______ _______ _____ _____    ______ ____
ROOT
ATOM      1  C   UNL     1       2.315   7.825  18.490  0.00  0.00    +0.000 A 
ATOM      2  C   UNL     1       1.689   8.918  17.841  0.00  0.00    +0.000 A 
ATOM      3  C   UNL     1       1.080   9.646  18.833  0.00  0.00    +0.000 A 
ATOM      4  N   UNL     1       0.384  10.821  18.801  0.00  0.00    +0.000 NA
ATOM      5  C   UNL     1      -0.071  11.231  19.948  0.00  0.00    +0.000 A 
ATOM      6  C   UNL     1       0.061  10.536  21.260  0.00  0.00    +0.000 A 
ATOM      7  C   UNL     1       0.805   9.416  21.224  0.00  0.00    +0.000 A 
ATOM      8  N   UNL     1       1.320   8.951  20.020  0.00  0.00    +0.000 N 
ATOM      9  N   UNL     1       2.060   7.839  19.807  0.00  0.00    +0.000 NA
ENDROOT
BRANCH   1  14
ATOM     10  C   UNL     1       5.578   3.767  15.973  0.00  0.00    +0.000 C 
ATOM     11  C   UNL     1       4.743   4.812  16.649  0.00  0.00    +0.000 A 
ATOM     12  C   UNL     1       3.599   4.456  17.371  0.00  0.00    +0.000 A 
ATOM     13  C   UNL     1       2.813   5.441  17.980  0.00  0.00    +0.000 A 
ATOM     14  C   UNL     1       3.156   6.795  17.874  0.00  0.00    +0.000 A 
ATOM     15  C   UNL     1       4.303   7.147  17.155  0.00  0.00    +0.000 A 
ATOM     16  C   UNL     1       5.093   6.161  16.550  0.00  0.00    +0.000 A 
ENDBRANCH   1  14
BRANCH   6  17
ATOM     17  C   UNL     1      -0.515  10.992  22.551  0.00  0.00    +0.000 C 
ATOM     18  O   UNL     1      -0.314  10.352  23.584  0.00  0.00    +0.000 OA
BRANCH  17  19
ATOM     19  C   UNL     1      -1.313  12.243  22.630  0.00  0.00    +0.000 A 
ATOM     20  C   UNL     1      -2.704  12.107  22.723  0.00  0.00    +0.000 A 
ATOM     21  C   UNL     1      -3.533  13.234  22.769  0.00  0.00    +0.000 A 
ATOM     22 CL   UNL     1      -5.235  12.964  22.877  0.00  0.00    +0.000 Cl
ATOM     23  C   UNL     1      -2.983  14.523  22.722  0.00  0.00    +0.000 A 
ATOM     24  C   UNL     1      -3.799  15.788  22.759  0.00  0.00    +0.000 C 
ATOM     25  C   UNL     1      -1.587  14.654  22.621  0.00  0.00    +0.000 A 
ATOM     26  C   UNL     1      -0.765  13.528  22.553  0.00  0.00    +0.000 A 
BRANCH  26  27
ATOM     27  O   UNL     1       0.578  13.701  22.382  0.00  0.00    +0.000 OA
ATOM     28  H   UNL     1       0.745  14.413  21.739  0.00  0.00    +0.000 HD
ENDBRANCH  26  27
ENDBRANCH  17  19
ENDBRANCH   6  17
TORSDOF 4
ENDMDL
MODEL 6
REMARK VINA RESULT:      -8.1      7.295      9.704
REMARK  Name = 
REMARK  6 active torsions:
REMARK  status: ('A' for Active; 'I' for Inactive)
REMARK    1  A    between atoms: C_1  and  C_2
REMARK    2  A    between atoms: C_5  and  C_6
REMARK    3  A    between atoms: C_11  and  C_12
REMARK    4  A    between atoms: C_12  and  C_14
REMARK    5  A    between atoms: C_18  and  C_19
REMARK    6  A    between atoms: C_21  and  O_22
REMARK                            x       y       z     vdW  Elec       q    Type
REMARK                         _______ _______ _______ _____ _____    ______ ____
ROOT
ATOM      1  C   UNL     1       2.374   7.632  18.422  0.00  0.00    +0.000 A 
ATOM      2  C   UNL     1       1.625   8.663  17.801  0.00  0.00    +0.000 A 
ATOM      3  C   UNL     1       1.045   9.372  18.822  0.00  0.00    +0.000 A 
ATOM      4  N   UNL     1       0.267  10.496  18.820  0.00  0.00    +0.000 NA
ATOM      5  C   UNL     1      -0.125  10.904  19.991  0.00  0.00    +0.000 A 
ATOM      6  C   UNL     1       0.156  10.255  21.303  0.00  0.00    +0.000 A 
ATOM      7  C   UNL     1       0.971   9.187  21.232  0.00  0.00    +0.000 A 
ATOM      8  N   UNL     1       1.424   8.727  20.001  0.00  0.00    +0.000 N 
ATOM      9  N   UNL     1       2.221   7.662  19.754  0.00  0.00    +0.000 NA
ENDROOT
BRANCH   1  14
ATOM     10  C   UNL     1       5.831   3.736  15.908  0.00  0.00    +0.000 C 
ATOM     11  C   UNL     1       4.926   4.752  16.535  0.00  0.00    +0.000 A 
ATOM     12  C   UNL     1       5.216   6.117  16.453  0.00  0.00    +0.000 A 
ATOM     13  C   UNL     1       4.376   7.056  17.062  0.00  0.00    +0.000 A 
ATOM     14  C   UNL     1       3.235   6.646  17.763  0.00  0.00    +0.000 A 
ATOM     15  C   UNL     1       2.945   5.280  17.839  0.00  0.00    +0.000 A 
ATOM     16  C   UNL     1       3.782   4.340  17.225  0.00  0.00    +0.000 A 
ENDBRANCH   1  14
BRANCH   6  17
ATOM     17  C   UNL     1      -0.350  10.704  22.625  0.00  0.00    +0.000 C 
ATOM     18  O   UNL     1      -0.113  10.046  23.640  0.00  0.00    +0.000 OA
BRANCH  17  19
ATOM     19  C   UNL     1      -1.119  11.968  22.757  0.00  0.00    +0.000 A 
ATOM     20  C   UNL     1      -2.464  11.860  23.135  0.00  0.00    +0.000 A 
ATOM     21  C   UNL     1      -3.269  12.999  23.252  0.00  0.00    +0.000 A 
ATOM     22 CL   UNL     1      -4.915  12.762  23.718  0.00  0.00    +0.000 Cl
ATOM     23  C   UNL     1      -2.743  14.272  22.992  0.00  0.00    +0.000 A 
ATOM     24  C   UNL     1      -3.538  15.546  23.085  0.00  0.00    +0.000 C 
ATOM     25  C   UNL     1      -1.395  14.374  22.605  0.00  0.00    +0.000 A 
ATOM     26  C   UNL     1      -0.600  13.234  22.469  0.00  0.00    +0.000 A 
BRANCH  26  27
ATOM     27  O   UNL     1       0.682  13.374  22.021  0.00  0.00    +0.000 OA
ATOM     28  H   UNL     1       0.760  14.175  21.471  0.00  0.00    +0.000 HD
ENDBRANCH  26  27
ENDBRANCH  17  19
ENDBRANCH   6  17
TORSDOF 4
ENDMDL
MODEL 7
REMARK VINA RESULT:      -8.0      6.092      8.290
REMARK  Name = 
REMARK  6 active torsions:
REMARK  status: ('A' for Active; 'I' for Inactive)
REMARK    1  A    between atoms: C_1  and  C_2
REMARK    2  A    between atoms: C_5  and  C_6
REMARK    3  A    between atoms: C_11  and  C_12
REMARK    4  A    between atoms: C_12  and  C_14
REMARK    5  A    between atoms: C_18  and  C_19
REMARK    6  A    between atoms: C_21  and  O_22
REMARK                            x       y       z     vdW  Elec       q    Type
REMARK                         _______ _______ _______ _____ _____    ______ ____
ROOT
ATOM      1  C   UNL     1      -0.153  10.641  20.652  0.00  0.00    +0.000 A 
ATOM      2  C   UNL     1       0.328  10.806  19.329  0.00  0.00    +0.000 A 
ATOM      3  C   UNL     1       1.047   9.672  19.045  0.00  0.00    +0.000 A 
ATOM      4  N   UNL     1       1.684   9.262  17.909  0.00  0.00    +0.000 NA
ATOM      5  C   UNL     1       2.285   8.112  17.992  0.00  0.00    +0.000 A 
ATOM      6  C   UNL     1       2.374   7.236  19.195  0.00  0.00    +0.000 A 
ATOM      7  C   UNL     1       1.678   7.678  20.257  0.00  0.00    +0.000 A 
ATOM      8  N   UNL     1       1.010   8.896  20.204  0.00  0.00    +0.000 N 
ATOM      9  N   UNL     1       0.292   9.492  21.184  0.00  0.00    +0.000 NA
ENDROOT
BRANCH   1  14
ATOM     10  C   UNL     1      -3.549  14.274  23.604  0.00  0.00    +0.000 C 
ATOM     11  C   UNL     1      -2.689  13.315  22.838  0.00  0.00    +0.000 A 
ATOM     12  C   UNL     1      -2.145  12.187  23.461  0.00  0.00    +0.000 A 
ATOM     13  C   UNL     1      -1.325  11.310  22.742  0.00  0.00    +0.000 A 
ATOM     14  C   UNL     1      -1.034  11.547  21.393  0.00  0.00    +0.000 A 
ATOM     15  C   UNL     1      -1.584  12.673  20.772  0.00  0.00    +0.000 A 
ATOM     16  C   UNL     1      -2.409  13.549  21.489  0.00  0.00    +0.000 A 
ENDBRANCH   1  14
BRANCH   6  17
ATOM     17  C   UNL     1       3.116   5.952  19.286  0.00  0.00    +0.000 C 
ATOM     18  O   UNL     1       2.910   5.179  20.223  0.00  0.00    +0.000 OA
BRANCH  17  19
ATOM     19  C   UNL     1       4.089   5.558  18.236  0.00  0.00    +0.000 A 
ATOM     20  C   UNL     1       5.274   6.302  18.154  0.00  0.00    +0.000 A 
ATOM     21  C   UNL     1       6.232   6.018  17.173  0.00  0.00    +0.000 A 
ATOM     22 CL   UNL     1       7.656   6.994  17.149  0.00  0.00    +0.000 Cl
ATOM     23  C   UNL     1       6.021   4.982  16.252  0.00  0.00    +0.000 A 
ATOM     24  C   UNL     1       6.992   4.615  15.162  0.00  0.00    +0.000 C 
ATOM     25  C   UNL     1       4.827   4.245  16.333  0.00  0.00    +0.000 A 
ATOM     26  C   UNL     1       3.865   4.544  17.300  0.00  0.00    +0.000 A 
BRANCH  26  27
ATOM     27  O   UNL     1       2.689   3.850  17.296  0.00  0.00    +0.000 OA
ATOM     28  H   UNL     1       2.842   2.929  17.576  0.00  0.00    +0.000 HD
ENDBRANCH  26  27
ENDBRANCH  17  19
ENDBRANCH   6  17
TORSDOF 4
ENDMDL
MODEL 8
REMARK VINA RESULT:      -8.0      1.557      1.911
REMARK  Name = 
REMARK  6 active torsions:
REMARK  status: ('A' for Active; 'I' for Inactive)
REMARK    1  A    between atoms: C_1  and  C_2
REMARK    2  A    between atoms: C_5  and  C_6
REMARK    3  A    between atoms: C_11  and  C_12
REMARK    4  A    between atoms: C_12  and  C_14
REMARK    5  A    between atoms: C_18  and  C_19
REMARK    6  A    between atoms: C_21  and  O_22
REMARK                            x       y       z     vdW  Elec       q    Type
REMARK                         _______ _______ _______ _____ _____    ______ ____
ROOT
ATOM      1  C   UNL     1       8.725   9.903  18.201  0.00  0.00    +0.000 A 
ATOM      2  C   UNL     1       9.037   8.785  19.014  0.00  0.00    +0.000 A 
ATOM      3  C   UNL     1       8.222   7.768  18.583  0.00  0.00    +0.000 A 
ATOM      4  N   UNL     1       8.126   6.459  18.961  0.00  0.00    +0.000 NA
ATOM      5  C   UNL     1       7.221   5.763  18.337  0.00  0.00    +0.000 A 
ATOM      6  C   UNL     1       6.275   6.259  17.298  0.00  0.00    +0.000 A 
ATOM      7  C   UNL     1       6.464   7.541  16.938  0.00  0.00    +0.000 A 
ATOM      8  N   UNL     1       7.430   8.314  17.572  0.00  0.00    +0.000 N 
ATOM      9  N   UNL     1       7.729   9.615  17.350  0.00  0.00    +0.000 NA
ENDROOT
BRANCH   1  14
ATOM     10  C   UNL     1      11.245  15.106  18.362  0.00  0.00    +0.000 C 
ATOM     11  C   UNL     1      10.597  13.757  18.294  0.00  0.00    +0.000 A 
ATOM     12  C   UNL     1       9.314  13.606  17.760  0.00  0.00    +0.000 A 
ATOM     13  C   UNL     1       8.708  12.345  17.722  0.00  0.00    +0.000 A 
ATOM     14  C   UNL     1       9.374  11.217  18.218  0.00  0.00    +0.000 A 
ATOM     15  C   UNL     1      10.660  11.371  18.747  0.00  0.00    +0.000 A 
ATOM     16  C   UNL     1      11.268  12.632  18.781  0.00  0.00    +0.000 A 
ENDBRANCH   1  14
BRANCH   6  17
ATOM     17  C   UNL     1       5.209   5.462  16.637  0.00  0.00    +0.000 C 
ATOM     18  O   UNL     1       5.240   5.266  15.421  0.00  0.00    +0.000 OA
BRANCH  17  19
ATOM     19  C   UNL     1       4.108   4.857  17.430  0.00  0.00    +0.000 A 
ATOM     20  C   UNL     1       4.156   3.472  17.634  0.00  0.00    +0.000 A 
ATOM     21  C   UNL     1       3.143   2.816  18.343  0.00  0.00    +0.000 A 
ATOM     22 CL   UNL     1       3.288   1.106  18.537  0.00  0.00    +0.000 Cl
ATOM     23  C   UNL     1       2.058   3.536  18.862  0.00  0.00    +0.000 A 
ATOM     24  C   UNL     1       0.922   2.912  19.628  0.00  0.00    +0.000 C 
ATOM     25  C   UNL     1       2.010   4.925  18.647  0.00  0.00    +0.000 A 
ATOM     26  C   UNL     1       3.012   5.573  17.922  0.00  0.00    +0.000 A 
BRANCH  26  27
ATOM     27  O   UNL     1       2.888   6.910  17.676  0.00  0.00    +0.000 OA
ATOM     28  H   UNL     1       3.667   7.387  18.014  0.00  0.00    +0.000 HD
ENDBRANCH  26  27
ENDBRANCH  17  19
ENDBRANCH   6  17
TORSDOF 4
ENDMDL
MODEL 9
REMARK VINA RESULT:      -7.9      7.411      9.731
REMARK  Name = 
REMARK  6 active torsions:
REMARK  status: ('A' for Active; 'I' for Inactive)
REMARK    1  A    between atoms: C_1  and  C_2
REMARK    2  A    between atoms: C_5  and  C_6
REMARK    3  A    between atoms: C_11  and  C_12
REMARK    4  A    between atoms: C_12  and  C_14
REMARK    5  A    between atoms: C_18  and  C_19
REMARK    6  A    between atoms: C_21  and  O_22
REMARK                            x       y       z     vdW  Elec       q    Type
REMARK                         _______ _______ _______ _____ _____    ______ ____
ROOT
ATOM      1  C   UNL     1       2.239   7.619  19.081  0.00  0.00    +0.000 A 
ATOM      2  C   UNL     1       1.816   7.441  20.422  0.00  0.00    +0.000 A 
ATOM      3  C   UNL     1       1.063   8.547  20.728  0.00  0.00    +0.000 A 
ATOM      4  N   UNL     1       0.361   8.886  21.850  0.00  0.00    +0.000 NA
ATOM      5  C   UNL     1      -0.245  10.036  21.802  0.00  0.00    +0.000 A 
ATOM      6  C   UNL     1      -0.218  11.012  20.676  0.00  0.00    +0.000 A 
ATOM      7  C   UNL     1       0.444  10.587  19.586  0.00  0.00    +0.000 A 
ATOM      8  N   UNL     1       1.096   9.359  19.593  0.00  0.00    +0.000 N 
ATOM      9  N   UNL     1       1.822   8.798  18.598  0.00  0.00    +0.000 NA
ENDROOT
BRANCH   1  14
ATOM     10  C   UNL     1       5.351   3.888  15.942  0.00  0.00    +0.000 C 
ATOM     11  C   UNL     1       4.532   4.863  16.733  0.00  0.00    +0.000 A 
ATOM     12  C   UNL     1       4.833   6.228  16.717  0.00  0.00    +0.000 A 
ATOM     13  C   UNL     1       4.077   7.128  17.477  0.00  0.00    +0.000 A 
ATOM     14  C   UNL     1       3.011   6.677  18.266  0.00  0.00    +0.000 A 
ATOM     15  C   UNL     1       2.710   5.311  18.276  0.00  0.00    +0.000 A 
ATOM     16  C   UNL     1       3.463   4.411  17.512  0.00  0.00    +0.000 A 
ENDBRANCH   1  14
BRANCH   6  17
ATOM     17  C   UNL     1      -0.872  12.346  20.663  0.00  0.00    +0.000 C 
ATOM     18  O   UNL     1      -0.252  13.340  20.279  0.00  0.00    +0.000 OA
BRANCH  17  19
ATOM     19  C   UNL     1      -2.290  12.505  21.076  0.00  0.00    +0.000 A 
ATOM     20  C   UNL     1      -2.562  12.460  22.450  0.00  0.00    +0.000 A 
ATOM     21  C   UNL     1      -3.874  12.569  22.924  0.00  0.00    +0.000 A 
ATOM     22 CL   UNL     1      -4.109  12.496  24.633  0.00  0.00    +0.000 Cl
ATOM     23  C   UNL     1      -4.943  12.725  22.029  0.00  0.00    +0.000 A 
ATOM     24  C   UNL     1      -6.383  12.841  22.451  0.00  0.00    +0.000 C 
ATOM     25  C   UNL     1      -4.665  12.760  20.652  0.00  0.00    +0.000 A 
ATOM     26  C   UNL     1      -3.357  12.630  20.181  0.00  0.00    +0.000 A 
BRANCH  26  27
ATOM     27  O   UNL     1      -3.141  12.598  18.833  0.00  0.00    +0.000 OA
ATOM     28  H   UNL     1      -3.064  11.676  18.528  0.00  0.00    +0.000 HD
ENDBRANCH  26  27
ENDBRANCH  17  19
ENDBRANCH   6  17
TORSDOF 4
ENDMDL
