MODEL 1
REMARK VINA RESULT:      -7.7      0.000      0.000
REMARK  Name = 
REMARK  13 active torsions:
REMARK  status: ('A' for Active; 'I' for Inactive)
REMARK    1  A    between atoms: C_1  and  C_2
REMARK    2  A    between atoms: C_2  and  C_3
REMARK    3  A    between atoms: C_9  and  C_10
REMARK    4  A    between atoms: C_15  and  C_16
REMARK    5  A    between atoms: C_19  and  O_20
REMARK    6  A    between atoms: O_20  and  C_21
REMARK    7  A    between atoms: C_21  and  C_22
REMARK    8  A    between atoms: C_22  and  N_23
REMARK    9  A    between atoms: N_23  and  C_24
REMARK   10  A    between atoms: N_23  and  C_26
REMARK   11  A    between atoms: C_24  and  C_25
REMARK   12  A    between atoms: C_26  and  C_27
REMARK   13  A    between atoms: C_26  and  C_28
REMARK                            x       y       z     vdW  Elec       q    Type
REMARK                         _______ _______ _______ _____ _____    ______ ____
ROOT
ATOM      1  C   UNL     1       4.157   6.518  17.836  0.00  0.00    +0.000 A 
ATOM      2  C   UNL     1       3.811   5.764  18.975  0.00  0.00    +0.000 A 
ATOM      3  C   UNL     1       2.817   6.202  19.865  0.00  0.00    +0.000 A 
ATOM      4  C   UNL     1       2.177   7.409  19.576  0.00  0.00    +0.000 A 
ATOM      5  N   UNL     1       1.160   8.060  20.210  0.00  0.00    +0.000 NA
ATOM      6  C   UNL     1       0.955   9.127  19.456  0.00  0.00    +0.000 A 
ATOM      7  O   UNL     1       1.792   9.249  18.384  0.00  0.00    +0.000 OA
ATOM      8  C   UNL     1       2.569   8.136  18.469  0.00  0.00    +0.000 A 
ATOM      9  C   UNL     1       3.563   7.763  17.587  0.00  0.00    +0.000 A 
ENDROOT
BRANCH   1  16
ATOM     10  C   UNL     1       6.391   5.246  17.417  0.00  0.00    +0.000 C 
ATOM     11  C   UNL     1       7.242   4.574  16.348  0.00  0.00    +0.000 C 
ATOM     12  C   UNL     1       6.893   4.890  14.925  0.00  0.00    +0.000 C 
ATOM     13  O   UNL     1       7.595   4.493  13.991  0.00  0.00    +0.000 OA
ATOM     14  N   UNL     1       5.750   5.589  14.692  0.00  0.00    +0.000 N 
ATOM     15  N   UNL     1       4.899   6.098  15.604  0.00  0.00    +0.000 NA
ATOM     16  C   UNL     1       5.155   5.956  16.867  0.00  0.00    +0.000 C 
ATOM     17  H   UNL     1       5.498   5.731  13.718  0.00  0.00    +0.000 HD
BRANCH  10  19
ATOM     18  C   UNL     1       7.744   7.437  17.827  0.00  0.00    +0.000 C 
ATOM     19  C   UNL     1       7.224   6.123  18.385  0.00  0.00    +0.000 C 
ENDBRANCH  10  19
ENDBRANCH   1  16
BRANCH   6  20
ATOM     20  C   UNL     1      -0.052  10.154  19.642  0.00  0.00    +0.000 A 
ATOM     21  C   UNL     1      -0.085  10.787  20.884  0.00  0.00    +0.000 A 
ATOM     22  C   UNL     1      -1.015  11.776  21.147  0.00  0.00    +0.000 A 
ATOM     23  C   UNL     1      -1.896  12.202  20.150  0.00  0.00    +0.000 A 
ATOM     24  C   UNL     1      -1.909  11.548  18.919  0.00  0.00    +0.000 A 
ATOM     25  C   UNL     1      -0.984  10.526  18.661  0.00  0.00    +0.000 A 
BRANCH  23  26
ATOM     26  O   UNL     1      -2.733  13.287  20.308  0.00  0.00    +0.000 OA
BRANCH  26  27
ATOM     27  C   UNL     1      -3.535  13.155  21.496  0.00  0.00    +0.000 C 
BRANCH  27  28
ATOM     28  C   UNL     1      -4.954  12.678  21.185  0.00  0.00    +0.000 C 
BRANCH  28  29
ATOM     29  N   UNL     1      -5.738  12.294  22.391  0.00  0.00    +0.000 NA
BRANCH  29  30
ATOM     30  C   UNL     1      -7.198  12.258  22.106  0.00  0.00    +0.000 C 
ATOM     31  C   UNL     1      -7.772  13.658  21.819  0.00  0.00    +0.000 C 
ATOM     32  C   UNL     1      -7.553  11.383  20.893  0.00  0.00    +0.000 C 
ENDBRANCH  29  30
BRANCH  29  33
ATOM     33  C   UNL     1      -5.395  13.098  23.585  0.00  0.00    +0.000 C 
ATOM     34  C   UNL     1      -4.818  12.337  24.778  0.00  0.00    +0.000 C 
ENDBRANCH  29  33
ENDBRANCH  28  29
ENDBRANCH  27  28
ENDBRANCH  26  27
ENDBRANCH  23  26
ENDBRANCH   6  20
TORSDOF 9
ENDMDL
MODEL 2
REMARK VINA RESULT:      -7.6      3.147      3.903
REMARK  Name = 
REMARK  13 active torsions:
REMARK  status: ('A' for Active; 'I' for Inactive)
REMARK    1  A    between atoms: C_1  and  C_2
REMARK    2  A    between atoms: C_2  and  C_3
REMARK    3  A    between atoms: C_9  and  C_10
REMARK    4  A    between atoms: C_15  and  C_16
REMARK    5  A    between atoms: C_19  and  O_20
REMARK    6  A    between atoms: O_20  and  C_21
REMARK    7  A    between atoms: C_21  and  C_22
REMARK    8  A    between atoms: C_22  and  N_23
REMARK    9  A    between atoms: N_23  and  C_24
REMARK   10  A    between atoms: N_23  and  C_26
REMARK   11  A    between atoms: C_24  and  C_25
REMARK   12  A    between atoms: C_26  and  C_27
REMARK   13  A    between atoms: C_26  and  C_28
REMARK                            x       y       z     vdW  Elec       q    Type
REMARK                         _______ _______ _______ _____ _____    ______ ____
ROOT
ATOM      1  C   UNL     1       2.462   6.605  19.347  0.00  0.00    +0.000 A 
ATOM      2  C   UNL     1       2.577   7.326  18.142  0.00  0.00    +0.000 A 
ATOM      3  C   UNL     1       2.086   8.636  18.026  0.00  0.00    +0.000 A 
ATOM      4  C   UNL     1       1.486   9.204  19.153  0.00  0.00    +0.000 A 
ATOM      5  N   UNL     1       0.967  10.447  19.363  0.00  0.00    +0.000 NA
ATOM      6  C   UNL     1       0.580  10.414  20.628  0.00  0.00    +0.000 A 
ATOM      7  O   UNL     1       0.773   9.220  21.262  0.00  0.00    +0.000 OA
ATOM      8  C   UNL     1       1.361   8.453  20.305  0.00  0.00    +0.000 A 
ATOM      9  C   UNL     1       1.797   7.151  20.454  0.00  0.00    +0.000 A 
ENDROOT
BRANCH   1  16
ATOM     10  C   UNL     1       2.207   4.015  19.262  0.00  0.00    +0.000 C 
ATOM     11  C   UNL     1       2.979   2.704  19.216  0.00  0.00    +0.000 C 
ATOM     12  C   UNL     1       4.430   2.774  19.583  0.00  0.00    +0.000 C 
ATOM     13  O   UNL     1       5.113   1.751  19.692  0.00  0.00    +0.000 OA
ATOM     14  N   UNL     1       4.985   4.005  19.744  0.00  0.00    +0.000 N 
ATOM     15  N   UNL     1       4.367   5.200  19.672  0.00  0.00    +0.000 NA
ATOM     16  C   UNL     1       3.091   5.247  19.446  0.00  0.00    +0.000 C 
ATOM     17  H   UNL     1       5.986   4.030  19.924  0.00  0.00    +0.000 HD
BRANCH  10  19
ATOM     18  C   UNL     1       1.181   3.127  21.489  0.00  0.00    +0.000 C 
ATOM     19  C   UNL     1       1.004   3.970  20.237  0.00  0.00    +0.000 C 
ENDBRANCH  10  19
ENDBRANCH   1  16
BRANCH   6  20
ATOM     20  C   UNL     1      -0.007  11.495  21.396  0.00  0.00    +0.000 A 
ATOM     21  C   UNL     1      -0.819  11.136  22.471  0.00  0.00    +0.000 A 
ATOM     22  C   UNL     1      -1.420  12.104  23.255  0.00  0.00    +0.000 A 
ATOM     23  C   UNL     1      -1.172  13.459  23.021  0.00  0.00    +0.000 A 
ATOM     24  C   UNL     1      -0.401  13.836  21.922  0.00  0.00    +0.000 A 
ATOM     25  C   UNL     1       0.186  12.856  21.110  0.00  0.00    +0.000 A 
BRANCH  23  26
ATOM     26  O   UNL     1      -1.616  14.455  23.864  0.00  0.00    +0.000 OA
BRANCH  26  27
ATOM     27  C   UNL     1      -2.771  15.119  23.320  0.00  0.00    +0.000 C 
BRANCH  27  28
ATOM     28  C   UNL     1      -4.009  14.938  24.198  0.00  0.00    +0.000 C 
BRANCH  28  29
ATOM     29  N   UNL     1      -5.178  14.360  23.479  0.00  0.00    +0.000 NA
BRANCH  29  30
ATOM     30  C   UNL     1      -6.422  15.132  23.746  0.00  0.00    +0.000 C 
ATOM     31  C   UNL     1      -6.946  15.848  22.486  0.00  0.00    +0.000 C 
ATOM     32  C   UNL     1      -7.575  14.257  24.261  0.00  0.00    +0.000 C 
ENDBRANCH  29  30
BRANCH  29  33
ATOM     33  C   UNL     1      -5.334  12.905  23.703  0.00  0.00    +0.000 C 
ATOM     34  C   UNL     1      -4.611  12.319  24.915  0.00  0.00    +0.000 C 
ENDBRANCH  29  33
ENDBRANCH  28  29
ENDBRANCH  27  28
ENDBRANCH  26  27
ENDBRANCH  23  26
ENDBRANCH   6  20
TORSDOF 9
ENDMDL
MODEL 3
REMARK VINA RESULT:      -7.5      1.438      1.753
REMARK  Name = 
REMARK  13 active torsions:
REMARK  status: ('A' for Active; 'I' for Inactive)
REMARK    1  A    between atoms: C_1  and  C_2
REMARK    2  A    between atoms: C_2  and  C_3
REMARK    3  A    between atoms: C_9  and  C_10
REMARK    4  A    between atoms: C_15  and  C_16
REMARK    5  A    between atoms: C_19  and  O_20
REMARK    6  A    between atoms: O_20  and  C_21
REMARK    7  A    between atoms: C_21  and  C_22
REMARK    8  A    between atoms: C_22  and  N_23
REMARK    9  A    between atoms: N_23  and  C_24
REMARK   10  A    between atoms: N_23  and  C_26
REMARK   11  A    between atoms: C_24  and  C_25
REMARK   12  A    between atoms: C_26  and  C_27
REMARK   13  A    between atoms: C_26  and  C_28
REMARK                            x       y       z     vdW  Elec       q    Type
REMARK                         _______ _______ _______ _____ _____    ______ ____
ROOT
ATOM      1  C   UNL     1       3.670   5.681  18.533  0.00  0.00    +0.000 A 
ATOM      2  C   UNL     1       3.207   4.751  19.485  0.00  0.00    +0.000 A 
ATOM      3  C   UNL     1       2.309   5.128  20.496  0.00  0.00    +0.000 A 
ATOM      4  C   UNL     1       1.883   6.458  20.521  0.00  0.00    +0.000 A 
ATOM      5  N   UNL     1       0.998   7.102  21.332  0.00  0.00    +0.000 NA
ATOM      6  C   UNL     1       0.974   8.335  20.852  0.00  0.00    +0.000 A 
ATOM      7  O   UNL     1       1.812   8.563  19.799  0.00  0.00    +0.000 OA
ATOM      8  C   UNL     1       2.387   7.348  19.592  0.00  0.00    +0.000 A 
ATOM      9  C   UNL     1       3.296   7.031  18.603  0.00  0.00    +0.000 A 
ENDROOT
BRANCH   1  16
ATOM     10  C   UNL     1       6.020   5.621  17.412  0.00  0.00    +0.000 C 
ATOM     11  C   UNL     1       6.850   4.944  16.330  0.00  0.00    +0.000 C 
ATOM     12  C   UNL     1       6.089   4.166  15.300  0.00  0.00    +0.000 C 
ATOM     13  O   UNL     1       6.657   3.682  14.316  0.00  0.00    +0.000 OA
ATOM     14  N   UNL     1       4.760   3.969  15.506  0.00  0.00    +0.000 N 
ATOM     15  N   UNL     1       4.007   4.445  16.516  0.00  0.00    +0.000 NA
ATOM     16  C   UNL     1       4.550   5.204  17.417  0.00  0.00    +0.000 C 
ATOM     17  H   UNL     1       4.280   3.380  14.830  0.00  0.00    +0.000 HD
BRANCH  10  19
ATOM     18  C   UNL     1       7.658   7.644  17.571  0.00  0.00    +0.000 C 
ATOM     19  C   UNL     1       6.224   7.156  17.454  0.00  0.00    +0.000 C 
ENDBRANCH  10  19
ENDBRANCH   1  16
BRANCH   6  20
ATOM     20  C   UNL     1       0.159   9.442  21.314  0.00  0.00    +0.000 A 
ATOM     21  C   UNL     1      -0.221   9.429  22.656  0.00  0.00    +0.000 A 
ATOM     22  C   UNL     1      -1.001  10.444  23.178  0.00  0.00    +0.000 A 
ATOM     23  C   UNL     1      -1.367  11.535  22.385  0.00  0.00    +0.000 A 
ATOM     24  C   UNL     1      -1.036  11.541  21.030  0.00  0.00    +0.000 A 
ATOM     25  C   UNL     1      -0.269  10.498  20.493  0.00  0.00    +0.000 A 
BRANCH  23  26
ATOM     26  O   UNL     1      -2.006  12.646  22.893  0.00  0.00    +0.000 OA
BRANCH  26  27
ATOM     27  C   UNL     1      -3.408  12.392  23.093  0.00  0.00    +0.000 C 
BRANCH  27  28
ATOM     28  C   UNL     1      -4.248  12.802  21.883  0.00  0.00    +0.000 C 
BRANCH  28  29
ATOM     29  N   UNL     1      -5.678  12.396  21.976  0.00  0.00    +0.000 NA
BRANCH  29  30
ATOM     30  C   UNL     1      -6.260  12.131  20.633  0.00  0.00    +0.000 C 
ATOM     31  C   UNL     1      -7.217  10.924  20.640  0.00  0.00    +0.000 C 
ATOM     32  C   UNL     1      -7.061  13.320  20.080  0.00  0.00    +0.000 C 
ENDBRANCH  29  30
BRANCH  29  33
ATOM     33  C   UNL     1      -6.491  13.324  22.794  0.00  0.00    +0.000 C 
ATOM     34  C   UNL     1      -7.395  12.691  23.850  0.00  0.00    +0.000 C 
ENDBRANCH  29  33
ENDBRANCH  28  29
ENDBRANCH  27  28
ENDBRANCH  26  27
ENDBRANCH  23  26
ENDBRANCH   6  20
TORSDOF 9
ENDMDL
MODEL 4
REMARK VINA RESULT:      -7.5      2.581     11.642
REMARK  Name = 
REMARK  13 active torsions:
REMARK  status: ('A' for Active; 'I' for Inactive)
REMARK    1  A    between atoms: C_1  and  C_2
REMARK    2  A    between atoms: C_2  and  C_3
REMARK    3  A    between atoms: C_9  and  C_10
REMARK    4  A    between atoms: C_15  and  C_16
REMARK    5  A    between atoms: C_19  and  O_20
REMARK    6  A    between atoms: O_20  and  C_21
REMARK    7  A    between atoms: C_21  and  C_22
REMARK    8  A    between atoms: C_22  and  N_23
REMARK    9  A    between atoms: N_23  and  C_24
REMARK   10  A    between atoms: N_23  and  C_26
REMARK   11  A    between atoms: C_24  and  C_25
REMARK   12  A    between atoms: C_26  and  C_27
REMARK   13  A    between atoms: C_26  and  C_28
REMARK                            x       y       z     vdW  Elec       q    Type
REMARK                         _______ _______ _______ _____ _____    ______ ____
ROOT
ATOM      1  C   UNL     1      -0.486  11.957  21.941  0.00  0.00    +0.000 A 
ATOM      2  C   UNL     1      -0.030  12.489  20.719  0.00  0.00    +0.000 A 
ATOM      3  C   UNL     1       0.662  11.695  19.791  0.00  0.00    +0.000 A 
ATOM      4  C   UNL     1       0.875  10.353  20.118  0.00  0.00    +0.000 A 
ATOM      5  N   UNL     1       1.460   9.340  19.419  0.00  0.00    +0.000 NA
ATOM      6  C   UNL     1       1.335   8.295  20.220  0.00  0.00    +0.000 A 
ATOM      7  O   UNL     1       0.739   8.553  21.420  0.00  0.00    +0.000 OA
ATOM      8  C   UNL     1       0.443   9.878  21.341  0.00  0.00    +0.000 A 
ATOM      9  C   UNL     1      -0.210  10.629  22.298  0.00  0.00    +0.000 A 
ENDROOT
BRANCH   1  16
ATOM     10  C   UNL     1      -2.801  12.539  22.982  0.00  0.00    +0.000 C 
ATOM     11  C   UNL     1      -3.494  13.369  24.055  0.00  0.00    +0.000 C 
ATOM     12  C   UNL     1      -2.691  14.483  24.655  0.00  0.00    +0.000 C 
ATOM     13  O   UNL     1      -3.200  15.286  25.443  0.00  0.00    +0.000 OA
ATOM     14  N   UNL     1      -1.370  14.553  24.341  0.00  0.00    +0.000 N 
ATOM     15  N   UNL     1      -0.684  13.764  23.491  0.00  0.00    +0.000 NA
ATOM     16  C   UNL     1      -1.305  12.822  22.851  0.00  0.00    +0.000 C 
ATOM     17  H   UNL     1      -0.831  15.274  24.814  0.00  0.00    +0.000 HD
BRANCH  10  19
ATOM     18  C   UNL     1      -4.542  13.696  21.423  0.00  0.00    +0.000 C 
ATOM     19  C   UNL     1      -3.552  12.561  21.627  0.00  0.00    +0.000 C 
ENDBRANCH  10  19
ENDBRANCH   1  16
BRANCH   6  20
ATOM     20  C   UNL     1       1.748   6.930  19.954  0.00  0.00    +0.000 A 
ATOM     21  C   UNL     1       2.090   6.619  18.639  0.00  0.00    +0.000 A 
ATOM     22  C   UNL     1       2.492   5.341  18.298  0.00  0.00    +0.000 A 
ATOM     23  C   UNL     1       2.625   4.355  19.279  0.00  0.00    +0.000 A 
ATOM     24  C   UNL     1       2.242   4.635  20.590  0.00  0.00    +0.000 A 
ATOM     25  C   UNL     1       1.807   5.924  20.931  0.00  0.00    +0.000 A 
BRANCH  23  26
ATOM     26  O   UNL     1       3.170   3.116  19.022  0.00  0.00    +0.000 OA
BRANCH  26  27
ATOM     27  C   UNL     1       4.144   3.187  17.965  0.00  0.00    +0.000 C 
BRANCH  27  28
ATOM     28  C   UNL     1       5.369   4.011  18.361  0.00  0.00    +0.000 C 
BRANCH  28  29
ATOM     29  N   UNL     1       5.996   4.743  17.226  0.00  0.00    +0.000 NA
BRANCH  29  30
ATOM     30  C   UNL     1       5.977   6.215  17.446  0.00  0.00    +0.000 C 
ATOM     31  C   UNL     1       7.386   6.834  17.377  0.00  0.00    +0.000 C 
ATOM     32  C   UNL     1       5.119   6.966  16.416  0.00  0.00    +0.000 C 
ENDBRANCH  29  30
BRANCH  29  33
ATOM     33  C   UNL     1       5.453   4.342  15.908  0.00  0.00    +0.000 C 
ATOM     34  C   UNL     1       6.472   4.089  14.798  0.00  0.00    +0.000 C 
ENDBRANCH  29  33
ENDBRANCH  28  29
ENDBRANCH  27  28
ENDBRANCH  26  27
ENDBRANCH  23  26
ENDBRANCH   6  20
TORSDOF 9
ENDMDL
MODEL 5
REMARK VINA RESULT:      -7.4      2.985      4.018
REMARK  Name = 
REMARK  13 active torsions:
REMARK  status: ('A' for Active; 'I' for Inactive)
REMARK    1  A    between atoms: C_1  and  C_2
REMARK    2  A    between atoms: C_2  and  C_3
REMARK    3  A    between atoms: C_9  and  C_10
REMARK    4  A    between atoms: C_15  and  C_16
REMARK    5  A    between atoms: C_19  and  O_20
REMARK    6  A    between atoms: O_20  and  C_21
REMARK    7  A    between atoms: C_21  and  C_22
REMARK    8  A    between atoms: C_22  and  N_23
REMARK    9  A    between atoms: N_23  and  C_24
REMARK   10  A    between atoms: N_23  and  C_26
REMARK   11  A    between atoms: C_24  and  C_25
REMARK   12  A    between atoms: C_26  and  C_27
REMARK   13  A    between atoms: C_26  and  C_28
REMARK                            x       y       z     vdW  Elec       q    Type
REMARK                         _______ _______ _______ _____ _____    ______ ____
ROOT
ATOM      1  C   UNL     1       2.324   7.011  19.300  0.00  0.00    +0.000 A 
ATOM      2  C   UNL     1       2.236   7.698  18.073  0.00  0.00    +0.000 A 
ATOM      3  C   UNL     1       1.665   8.979  17.994  0.00  0.00    +0.000 A 
ATOM      4  C   UNL     1       1.195   9.553  19.177  0.00  0.00    +0.000 A 
ATOM      5  N   UNL     1       0.646  10.775  19.426  0.00  0.00    +0.000 NA
ATOM      6  C   UNL     1       0.437  10.764  20.732  0.00  0.00    +0.000 A 
ATOM      7  O   UNL     1       0.777   9.602  21.363  0.00  0.00    +0.000 OA
ATOM      8  C   UNL     1       1.268   8.834  20.354  0.00  0.00    +0.000 A 
ATOM      9  C   UNL     1       1.788   7.560  20.474  0.00  0.00    +0.000 A 
ENDROOT
BRANCH   1  16
ATOM     10  C   UNL     1       2.205   4.412  19.207  0.00  0.00    +0.000 C 
ATOM     11  C   UNL     1       3.042   3.145  19.099  0.00  0.00    +0.000 C 
ATOM     12  C   UNL     1       4.508   3.293  19.373  0.00  0.00    +0.000 C 
ATOM     13  O   UNL     1       5.251   2.308  19.429  0.00  0.00    +0.000 OA
ATOM     14  N   UNL     1       5.005   4.551  19.510  0.00  0.00    +0.000 N 
ATOM     15  N   UNL     1       4.319   5.711  19.489  0.00  0.00    +0.000 NA
ATOM     16  C   UNL     1       3.031   5.690  19.346  0.00  0.00    +0.000 C 
ATOM     17  H   UNL     1       6.012   4.630  19.625  0.00  0.00    +0.000 HD
BRANCH  10  19
ATOM     18  C   UNL     1       1.077   3.045  21.120  0.00  0.00    +0.000 C 
ATOM     19  C   UNL     1       1.071   4.296  20.257  0.00  0.00    +0.000 C 
ENDBRANCH  10  19
ENDBRANCH   1  16
BRANCH   6  20
ATOM     20  C   UNL     1      -0.096  11.839  21.546  0.00  0.00    +0.000 A 
ATOM     21  C   UNL     1      -1.049  11.493  22.503  0.00  0.00    +0.000 A 
ATOM     22  C   UNL     1      -1.611  12.457  23.320  0.00  0.00    +0.000 A 
ATOM     23  C   UNL     1      -1.184  13.786  23.244  0.00  0.00    +0.000 A 
ATOM     24  C   UNL     1      -0.267  14.157  22.262  0.00  0.00    +0.000 A 
ATOM     25  C   UNL     1       0.282  13.185  21.414  0.00  0.00    +0.000 A 
BRANCH  23  26
ATOM     26  O   UNL     1      -1.593  14.752  24.137  0.00  0.00    +0.000 OA
BRANCH  26  27
ATOM     27  C   UNL     1      -3.022  14.729  24.308  0.00  0.00    +0.000 C 
BRANCH  27  28
ATOM     28  C   UNL     1      -3.751  15.472  23.188  0.00  0.00    +0.000 C 
BRANCH  28  29
ATOM     29  N   UNL     1      -5.062  14.870  22.820  0.00  0.00    +0.000 NA
BRANCH  29  30
ATOM     30  C   UNL     1      -5.050  13.391  22.979  0.00  0.00    +0.000 C 
ATOM     31  C   UNL     1      -6.300  12.872  23.713  0.00  0.00    +0.000 C 
ATOM     32  C   UNL     1      -4.989  12.643  21.638  0.00  0.00    +0.000 C 
ENDBRANCH  29  30
BRANCH  29  33
ATOM     33  C   UNL     1      -5.551  15.312  21.494  0.00  0.00    +0.000 C 
ATOM     34  C   UNL     1      -6.911  16.007  21.464  0.00  0.00    +0.000 C 
ENDBRANCH  29  33
ENDBRANCH  28  29
ENDBRANCH  27  28
ENDBRANCH  26  27
ENDBRANCH  23  26
ENDBRANCH   6  20
TORSDOF 9
ENDMDL
MODEL 6
REMARK VINA RESULT:      -7.4      1.653      2.432
REMARK  Name = 
REMARK  13 active torsions:
REMARK  status: ('A' for Active; 'I' for Inactive)
REMARK    1  A    between atoms: C_1  and  C_2
REMARK    2  A    between atoms: C_2  and  C_3
REMARK    3  A    between atoms: C_9  and  C_10
REMARK    4  A    between atoms: C_15  and  C_16
REMARK    5  A    between atoms: C_19  and  O_20
REMARK    6  A    between atoms: O_20  and  C_21
REMARK    7  A    between atoms: C_21  and  C_22
REMARK    8  A    between atoms: C_22  and  N_23
REMARK    9  A    between atoms: N_23  and  C_24
REMARK   10  A    between atoms: N_23  and  C_26
REMARK   11  A    between atoms: C_24  and  C_25
REMARK   12  A    between atoms: C_26  and  C_27
REMARK   13  A    between atoms: C_26  and  C_28
REMARK                            x       y       z     vdW  Elec       q    Type
REMARK                         _______ _______ _______ _____ _____    ______ ____
ROOT
ATOM      1  C   UNL     1       4.119   5.897  18.044  0.00  0.00    +0.000 A 
ATOM      2  C   UNL     1       3.597   4.818  18.785  0.00  0.00    +0.000 A 
ATOM      3  C   UNL     1       2.632   5.019  19.784  0.00  0.00    +0.000 A 
ATOM      4  C   UNL     1       2.200   6.328  20.014  0.00  0.00    +0.000 A 
ATOM      5  N   UNL     1       1.260   6.827  20.864  0.00  0.00    +0.000 NA
ATOM      6  C   UNL     1       1.263   8.124  20.608  0.00  0.00    +0.000 A 
ATOM      7  O   UNL     1       2.169   8.527  19.669  0.00  0.00    +0.000 OA
ATOM      8  C   UNL     1       2.761   7.362  19.291  0.00  0.00    +0.000 A 
ATOM      9  C   UNL     1       3.736   7.217  18.324  0.00  0.00    +0.000 A 
ENDROOT
BRANCH   1  16
ATOM     10  C   UNL     1       6.232   4.650  17.170  0.00  0.00    +0.000 C 
ATOM     11  C   UNL     1       7.032   4.314  15.920  0.00  0.00    +0.000 C 
ATOM     12  C   UNL     1       6.733   5.131  14.700  0.00  0.00    +0.000 C 
ATOM     13  O   UNL     1       7.409   5.018  13.672  0.00  0.00    +0.000 OA
ATOM     14  N   UNL     1       5.662   5.968  14.743  0.00  0.00    +0.000 N 
ATOM     15  N   UNL     1       4.849   6.207  15.790  0.00  0.00    +0.000 NA
ATOM     16  C   UNL     1       5.074   5.616  16.922  0.00  0.00    +0.000 C 
ATOM     17  H   UNL     1       5.438   6.460  13.882  0.00  0.00    +0.000 HD
BRANCH  10  19
ATOM     18  C   UNL     1       7.675   6.478  18.343  0.00  0.00    +0.000 C 
ATOM     19  C   UNL     1       7.129   5.060  18.366  0.00  0.00    +0.000 C 
ENDBRANCH  10  19
ENDBRANCH   1  16
BRANCH   6  20
ATOM     20  C   UNL     1       0.415   9.140  21.201  0.00  0.00    +0.000 A 
ATOM     21  C   UNL     1       0.141   9.016  22.563  0.00  0.00    +0.000 A 
ATOM     22  C   UNL     1      -0.662   9.939  23.207  0.00  0.00    +0.000 A 
ATOM     23  C   UNL     1      -1.159  11.048  22.519  0.00  0.00    +0.000 A 
ATOM     24  C   UNL     1      -0.934  11.163  21.147  0.00  0.00    +0.000 A 
ATOM     25  C   UNL     1      -0.144  10.212  20.487  0.00  0.00    +0.000 A 
BRANCH  23  26
ATOM     26  O   UNL     1      -1.829  12.077  23.146  0.00  0.00    +0.000 OA
BRANCH  26  27
ATOM     27  C   UNL     1      -2.497  12.920  22.190  0.00  0.00    +0.000 C 
BRANCH  27  28
ATOM     28  C   UNL     1      -2.702  14.341  22.717  0.00  0.00    +0.000 C 
BRANCH  28  29
ATOM     29  N   UNL     1      -4.117  14.662  23.050  0.00  0.00    +0.000 NA
BRANCH  29  30
ATOM     30  C   UNL     1      -4.250  15.173  24.441  0.00  0.00    +0.000 C 
ATOM     31  C   UNL     1      -2.946  15.018  25.247  0.00  0.00    +0.000 C 
ATOM     32  C   UNL     1      -4.625  16.662  24.501  0.00  0.00    +0.000 C 
ENDBRANCH  29  30
BRANCH  29  33
ATOM     33  C   UNL     1      -5.049  13.553  22.743  0.00  0.00    +0.000 C 
ATOM     34  C   UNL     1      -5.850  12.989  23.916  0.00  0.00    +0.000 C 
ENDBRANCH  29  33
ENDBRANCH  28  29
ENDBRANCH  27  28
ENDBRANCH  26  27
ENDBRANCH  23  26
ENDBRANCH   6  20
TORSDOF 9
ENDMDL
MODEL 7
REMARK VINA RESULT:      -7.3      2.956      3.935
REMARK  Name = 
REMARK  13 active torsions:
REMARK  status: ('A' for Active; 'I' for Inactive)
REMARK    1  A    between atoms: C_1  and  C_2
REMARK    2  A    between atoms: C_2  and  C_3
REMARK    3  A    between atoms: C_9  and  C_10
REMARK    4  A    between atoms: C_15  and  C_16
REMARK    5  A    between atoms: C_19  and  O_20
REMARK    6  A    between atoms: O_20  and  C_21
REMARK    7  A    between atoms: C_21  and  C_22
REMARK    8  A    between atoms: C_22  and  N_23
REMARK    9  A    between atoms: N_23  and  C_24
REMARK   10  A    between atoms: N_23  and  C_26
REMARK   11  A    between atoms: C_24  and  C_25
REMARK   12  A    between atoms: C_26  and  C_27
REMARK   13  A    between atoms: C_26  and  C_28
REMARK                            x       y       z     vdW  Elec       q    Type
REMARK                         _______ _______ _______ _____ _____    ______ ____
ROOT
ATOM      1  C   UNL     1       2.498   5.850  18.993  0.00  0.00    +0.000 A 
ATOM      2  C   UNL     1       2.884   6.663  17.909  0.00  0.00    +0.000 A 
ATOM      3  C   UNL     1       2.567   8.030  17.873  0.00  0.00    +0.000 A 
ATOM      4  C   UNL     1       1.861   8.559  18.956  0.00  0.00    +0.000 A 
ATOM      5  N   UNL     1       1.457   9.832  19.229  0.00  0.00    +0.000 NA
ATOM      6  C   UNL     1       0.871   9.727  20.411  0.00  0.00    +0.000 A 
ATOM      7  O   UNL     1       0.826   8.463  20.925  0.00  0.00    +0.000 OA
ATOM      8  C   UNL     1       1.470   7.723  19.983  0.00  0.00    +0.000 A 
ATOM      9  C   UNL     1       1.729   6.368  20.045  0.00  0.00    +0.000 A 
ENDROOT
BRANCH   1  16
ATOM     10  C   UNL     1       1.892   3.323  19.167  0.00  0.00    +0.000 C 
ATOM     11  C   UNL     1       2.447   1.913  19.021  0.00  0.00    +0.000 C 
ATOM     12  C   UNL     1       3.940   1.785  18.997  0.00  0.00    +0.000 C 
ATOM     13  O   UNL     1       4.487   0.678  19.003  0.00  0.00    +0.000 OA
ATOM     14  N   UNL     1       4.673   2.927  18.920  0.00  0.00    +0.000 N 
ATOM     15  N   UNL     1       4.220   4.196  18.921  0.00  0.00    +0.000 NA
ATOM     16  C   UNL     1       2.947   4.420  19.026  0.00  0.00    +0.000 C 
ATOM     17  H   UNL     1       5.680   2.813  18.835  0.00  0.00    +0.000 HD
BRANCH  10  19
ATOM     18  C   UNL     1       1.470   2.800  21.686  0.00  0.00    +0.000 C 
ATOM     19  C   UNL     1       0.995   3.490  20.419  0.00  0.00    +0.000 C 
ENDBRANCH  10  19
ENDBRANCH   1  16
BRANCH   6  20
ATOM     20  C   UNL     1       0.293  10.796  21.203  0.00  0.00    +0.000 A 
ATOM     21  C   UNL     1       0.649  12.099  20.858  0.00  0.00    +0.000 A 
ATOM     22  C   UNL     1       0.145  13.177  21.563  0.00  0.00    +0.000 A 
ATOM     23  C   UNL     1      -0.779  12.981  22.593  0.00  0.00    +0.000 A 
ATOM     24  C   UNL     1      -1.109  11.683  22.981  0.00  0.00    +0.000 A 
ATOM     25  C   UNL     1      -0.577  10.588  22.285  0.00  0.00    +0.000 A 
BRANCH  23  26
ATOM     26  O   UNL     1      -1.429  14.022  23.220  0.00  0.00    +0.000 OA
BRANCH  26  27
ATOM     27  C   UNL     1      -2.338  14.682  22.320  0.00  0.00    +0.000 C 
BRANCH  27  28
ATOM     28  C   UNL     1      -3.672  15.016  22.989  0.00  0.00    +0.000 C 
BRANCH  28  29
ATOM     29  N   UNL     1      -4.736  14.003  22.749  0.00  0.00    +0.000 NA
BRANCH  29  30
ATOM     30  C   UNL     1      -5.268  13.455  24.025  0.00  0.00    +0.000 C 
ATOM     31  C   UNL     1      -6.677  12.852  23.861  0.00  0.00    +0.000 C 
ATOM     32  C   UNL     1      -4.386  12.345  24.617  0.00  0.00    +0.000 C 
ENDBRANCH  29  30
BRANCH  29  33
ATOM     33  C   UNL     1      -4.331  12.954  21.786  0.00  0.00    +0.000 C 
ATOM     34  C   UNL     1      -5.222  12.772  20.558  0.00  0.00    +0.000 C 
ENDBRANCH  29  33
ENDBRANCH  28  29
ENDBRANCH  27  28
ENDBRANCH  26  27
ENDBRANCH  23  26
ENDBRANCH   6  20
TORSDOF 9
ENDMDL
MODEL 8
REMARK VINA RESULT:      -7.3      3.036      3.966
REMARK  Name = 
REMARK  13 active torsions:
REMARK  status: ('A' for Active; 'I' for Inactive)
REMARK    1  A    between atoms: C_1  and  C_2
REMARK    2  A    between atoms: C_2  and  C_3
REMARK    3  A    between atoms: C_9  and  C_10
REMARK    4  A    between atoms: C_15  and  C_16
REMARK    5  A    between atoms: C_19  and  O_20
REMARK    6  A    between atoms: O_20  and  C_21
REMARK    7  A    between atoms: C_21  and  C_22
REMARK    8  A    between atoms: C_22  and  N_23
REMARK    9  A    between atoms: N_23  and  C_24
REMARK   10  A    between atoms: N_23  and  C_26
REMARK   11  A    between atoms: C_24  and  C_25
REMARK   12  A    between atoms: C_26  and  C_27
REMARK   13  A    between atoms: C_26  and  C_28
REMARK                            x       y       z     vdW  Elec       q    Type
REMARK                         _______ _______ _______ _____ _____    ______ ____
ROOT
ATOM      1  C   UNL     1       2.552   6.147  19.374  0.00  0.00    +0.000 A 
ATOM      2  C   UNL     1       2.760   6.921  18.215  0.00  0.00    +0.000 A 
ATOM      3  C   UNL     1       2.298   8.244  18.127  0.00  0.00    +0.000 A 
ATOM      4  C   UNL     1       1.629   8.770  19.235  0.00  0.00    +0.000 A 
ATOM      5  N   UNL     1       1.115  10.010  19.468  0.00  0.00    +0.000 NA
ATOM      6  C   UNL     1       0.641   9.926  20.700  0.00  0.00    +0.000 A 
ATOM      7  O   UNL     1       0.772   8.701  21.289  0.00  0.00    +0.000 OA
ATOM      8  C   UNL     1       1.414   7.969  20.340  0.00  0.00    +0.000 A 
ATOM      9  C   UNL     1       1.819   6.654  20.457  0.00  0.00    +0.000 A 
ENDROOT
BRANCH   1  16
ATOM     10  C   UNL     1       2.218   3.566  19.466  0.00  0.00    +0.000 C 
ATOM     11  C   UNL     1       2.940   2.229  19.377  0.00  0.00    +0.000 C 
ATOM     12  C   UNL     1       4.431   2.268  19.521  0.00  0.00    +0.000 C 
ATOM     13  O   UNL     1       5.095   1.229  19.583  0.00  0.00    +0.000 OA
ATOM     14  N   UNL     1       5.036   3.485  19.532  0.00  0.00    +0.000 N 
ATOM     15  N   UNL     1       4.446   4.696  19.488  0.00  0.00    +0.000 NA
ATOM     16  C   UNL     1       3.152   4.776  19.451  0.00  0.00    +0.000 C 
ATOM     17  H   UNL     1       6.052   3.485  19.560  0.00  0.00    +0.000 HD
BRANCH  10  19
ATOM     18  C   UNL     1       1.393   2.644  21.762  0.00  0.00    +0.000 C 
ATOM     19  C   UNL     1       1.174   3.611  20.610  0.00  0.00    +0.000 C 
ENDBRANCH  10  19
ENDBRANCH   1  16
BRANCH   6  20
ATOM     20  C   UNL     1       0.019  10.981  21.477  0.00  0.00    +0.000 A 
ATOM     21  C   UNL     1       0.323  12.293  21.116  0.00  0.00    +0.000 A 
ATOM     22  C   UNL     1      -0.225  13.359  21.805  0.00  0.00    +0.000 A 
ATOM     23  C   UNL     1      -1.144  13.140  22.834  0.00  0.00    +0.000 A 
ATOM     24  C   UNL     1      -1.423  11.835  23.240  0.00  0.00    +0.000 A 
ATOM     25  C   UNL     1      -0.846  10.754  22.559  0.00  0.00    +0.000 A 
BRANCH  23  26
ATOM     26  O   UNL     1      -1.837  14.162  23.446  0.00  0.00    +0.000 OA
BRANCH  26  27
ATOM     27  C   UNL     1      -3.203  13.785  23.698  0.00  0.00    +0.000 C 
BRANCH  27  28
ATOM     28  C   UNL     1      -4.123  14.999  23.831  0.00  0.00    +0.000 C 
BRANCH  28  29
ATOM     29  N   UNL     1      -5.469  14.804  23.225  0.00  0.00    +0.000 NA
BRANCH  29  30
ATOM     30  C   UNL     1      -5.906  13.384  23.309  0.00  0.00    +0.000 C 
ATOM     31  C   UNL     1      -7.193  13.217  24.140  0.00  0.00    +0.000 C 
ATOM     32  C   UNL     1      -6.192  12.761  21.933  0.00  0.00    +0.000 C 
ENDBRANCH  29  30
BRANCH  29  33
ATOM     33  C   UNL     1      -5.577  15.370  21.862  0.00  0.00    +0.000 C 
ATOM     34  C   UNL     1      -6.629  16.459  21.656  0.00  0.00    +0.000 C 
ENDBRANCH  29  33
ENDBRANCH  28  29
ENDBRANCH  27  28
ENDBRANCH  26  27
ENDBRANCH  23  26
ENDBRANCH   6  20
TORSDOF 9
ENDMDL
MODEL 9
REMARK VINA RESULT:      -7.3      2.983      3.833
REMARK  Name = 
REMARK  13 active torsions:
REMARK  status: ('A' for Active; 'I' for Inactive)
REMARK    1  A    between atoms: C_1  and  C_2
REMARK    2  A    between atoms: C_2  and  C_3
REMARK    3  A    between atoms: C_9  and  C_10
REMARK    4  A    between atoms: C_15  and  C_16
REMARK    5  A    between atoms: C_19  and  O_20
REMARK    6  A    between atoms: O_20  and  C_21
REMARK    7  A    between atoms: C_21  and  C_22
REMARK    8  A    between atoms: C_22  and  N_23
REMARK    9  A    between atoms: N_23  and  C_24
REMARK   10  A    between atoms: N_23  and  C_26
REMARK   11  A    between atoms: C_24  and  C_25
REMARK   12  A    between atoms: C_26  and  C_27
REMARK   13  A    between atoms: C_26  and  C_28
REMARK                            x       y       z     vdW  Elec       q    Type
REMARK                         _______ _______ _______ _____ _____    ______ ____
ROOT
ATOM      1  C   UNL     1       2.539   5.932  18.942  0.00  0.00    +0.000 A 
ATOM      2  C   UNL     1       2.970   6.755  17.882  0.00  0.00    +0.000 A 
ATOM      3  C   UNL     1       2.671   8.126  17.856  0.00  0.00    +0.000 A 
ATOM      4  C   UNL     1       1.938   8.649  18.923  0.00  0.00    +0.000 A 
ATOM      5  N   UNL     1       1.541   9.923  19.201  0.00  0.00    +0.000 NA
ATOM      6  C   UNL     1       0.916   9.810  20.361  0.00  0.00    +0.000 A 
ATOM      7  O   UNL     1       0.838   8.540  20.856  0.00  0.00    +0.000 OA
ATOM      8  C   UNL     1       1.503   7.804  19.925  0.00  0.00    +0.000 A 
ATOM      9  C   UNL     1       1.742   6.445  19.976  0.00  0.00    +0.000 A 
ENDROOT
BRANCH   1  16
ATOM     10  C   UNL     1       1.896   3.410  19.048  0.00  0.00    +0.000 C 
ATOM     11  C   UNL     1       2.439   1.995  18.901  0.00  0.00    +0.000 C 
ATOM     12  C   UNL     1       3.929   1.849  18.936  0.00  0.00    +0.000 C 
ATOM     13  O   UNL     1       4.463   0.735  18.946  0.00  0.00    +0.000 OA
ATOM     14  N   UNL     1       4.680   2.982  18.908  0.00  0.00    +0.000 N 
ATOM     15  N   UNL     1       4.242   4.257  18.912  0.00  0.00    +0.000 NA
ATOM     16  C   UNL     1       2.969   4.496  18.969  0.00  0.00    +0.000 C 
ATOM     17  H   UNL     1       5.687   2.857  18.862  0.00  0.00    +0.000 HD
BRANCH  10  19
ATOM     18  C   UNL     1       1.365   2.852  21.539  0.00  0.00    +0.000 C 
ATOM     19  C   UNL     1       0.950   3.568  20.265  0.00  0.00    +0.000 C 
ENDBRANCH  10  19
ENDBRANCH   1  16
BRANCH   6  20
ATOM     20  C   UNL     1       0.326  10.875  21.150  0.00  0.00    +0.000 A 
ATOM     21  C   UNL     1      -0.539  10.495  22.176  0.00  0.00    +0.000 A 
ATOM     22  C   UNL     1      -1.146  11.447  22.974  0.00  0.00    +0.000 A 
ATOM     23  C   UNL     1      -0.854  12.803  22.807  0.00  0.00    +0.000 A 
ATOM     24  C   UNL     1      -0.030  13.203  21.756  0.00  0.00    +0.000 A 
ATOM     25  C   UNL     1       0.565  12.240  20.928  0.00  0.00    +0.000 A 
BRANCH  23  26
ATOM     26  O   UNL     1      -1.307  13.775  23.672  0.00  0.00    +0.000 OA
BRANCH  26  27
ATOM     27  C   UNL     1      -1.924  14.861  22.956  0.00  0.00    +0.000 C 
BRANCH  27  28
ATOM     28  C   UNL     1      -3.450  14.782  22.989  0.00  0.00    +0.000 C 
BRANCH  28  29
ATOM     29  N   UNL     1      -3.995  13.466  22.554  0.00  0.00    +0.000 NA
BRANCH  29  30
ATOM     30  C   UNL     1      -4.502  13.519  21.157  0.00  0.00    +0.000 C 
ATOM     31  C   UNL     1      -4.619  14.962  20.632  0.00  0.00    +0.000 C 
ATOM     32  C   UNL     1      -3.604  12.765  20.163  0.00  0.00    +0.000 C 
ENDBRANCH  29  30
BRANCH  29  33
ATOM     33  C   UNL     1      -4.974  12.900  23.510  0.00  0.00    +0.000 C 
ATOM     34  C   UNL     1      -4.406  12.314  24.802  0.00  0.00    +0.000 C 
ENDBRANCH  29  33
ENDBRANCH  28  29
ENDBRANCH  27  28
ENDBRANCH  26  27
ENDBRANCH  23  26
ENDBRANCH   6  20
TORSDOF 9
ENDMDL
