MODEL 1
REMARK VINA RESULT:      -6.8      0.000      0.000
REMARK  Name = 
REMARK  5 active torsions:
REMARK  status: ('A' for Active; 'I' for Inactive)
REMARK    1  A    between atoms: N_3  and  C_4
REMARK    2  A    between atoms: C_12  and  C_13
REMARK    3  A    between atoms: C_13  and  N_14
REMARK    4  A    between atoms: C_17  and  C_18
REMARK    5  A    between atoms: C_26  and  C_27
REMARK                            x       y       z     vdW  Elec       q    Type
REMARK                         _______ _______ _______ _____ _____    ______ ____
ROOT
ATOM      1  O   UNL     1       1.016   9.282  17.603  0.00  0.00    +0.000 OA
ATOM      2  C   UNL     1       1.007   9.421  18.822  0.00  0.00    +0.000 C 
ATOM      3  N   UNL     1       1.558   8.528  19.714  0.00  0.00    +0.000 N 
ATOM      4  N   UNL     1       0.385  10.501  19.416  0.00  0.00    +0.000 N 
ATOM      5  C   UNL     1      -0.356  11.442  18.591  0.00  0.00    +0.000 C 
ATOM      6  C   UNL     1      -0.154  12.804  19.253  0.00  0.00    +0.000 C 
ATOM      7  C   UNL     1       0.010  12.449  20.749  0.00  0.00    +0.000 C 
ATOM      8  C   UNL     1       0.695  11.069  20.723  0.00  0.00    +0.000 C 
ATOM      9  H   UNL     1       1.105   8.506  20.619  0.00  0.00    +0.000 HD
ENDROOT
BRANCH   3  10
ATOM     10  C   UNL     1       2.295   7.381  19.346  0.00  0.00    +0.000 A 
ATOM     11  C   UNL     1       3.122   7.351  18.220  0.00  0.00    +0.000 A 
ATOM     12  C   UNL     1       3.796   6.181  17.864  0.00  0.00    +0.000 A 
ATOM     13  C   UNL     1       3.656   5.035  18.639  0.00  0.00    +0.000 A 
ATOM     14  C   UNL     1       2.861   5.065  19.784  0.00  0.00    +0.000 A 
ATOM     15  C   UNL     1       2.191   6.238  20.144  0.00  0.00    +0.000 A 
ENDBRANCH   3  10
BRANCH   7  16
ATOM     16  C   UNL     1      -1.340  12.491  21.460  0.00  0.00    +0.000 A 
ATOM     17  C   UNL     1      -2.470  13.123  20.909  0.00  0.00    +0.000 A 
ATOM     18  C   UNL     1      -3.679  13.166  21.612  0.00  0.00    +0.000 A 
ATOM     19  C   UNL     1      -3.775  12.597  22.877  0.00  0.00    +0.000 A 
ATOM     20  C   UNL     1      -2.661  11.983  23.447  0.00  0.00    +0.000 A 
ATOM     21  C   UNL     1      -1.453  11.935  22.745  0.00  0.00    +0.000 A 
ENDBRANCH   7  16
BRANCH   6  22
ATOM     22  C   UNL     1       1.076  13.515  18.648  0.00  0.00    +0.000 C 
BRANCH  22  23
ATOM     23  N   UNL     1       1.119  14.950  19.002  0.00  0.00    +0.000 NA
ATOM     24  C   UNL     1      -0.195  15.594  18.888  0.00  0.00    +0.000 C 
ATOM     25  C   UNL     1      -0.178  17.064  19.316  0.00  0.00    +0.000 C 
ATOM     26  C   UNL     1       0.366  17.237  20.745  0.00  0.00    +0.000 C 
ATOM     27  C   UNL     1       1.784  16.628  20.714  0.00  0.00    +0.000 C 
ATOM     28  C   UNL     1       1.752  15.150  20.312  0.00  0.00    +0.000 C 
BRANCH  26  29
ATOM     29  C   UNL     1      -0.542  16.694  21.855  0.00  0.00    +0.000 A 
ATOM     30  C   UNL     1      -1.928  16.927  21.841  0.00  0.00    +0.000 A 
ATOM     31  C   UNL     1      -2.757  16.465  22.867  0.00  0.00    +0.000 A 
ATOM     32  C   UNL     1      -2.224  15.729  23.918  0.00  0.00    +0.000 A 
ATOM     33  C   UNL     1      -0.865  15.438  23.929  0.00  0.00    +0.000 A 
ATOM     34  C   UNL     1      -0.035  15.905  22.903  0.00  0.00    +0.000 A 
ENDBRANCH  26  29
ENDBRANCH  22  23
ENDBRANCH   6  22
TORSDOF 5
ENDMDL
MODEL 2
REMARK VINA RESULT:      -6.7      3.015      5.590
REMARK  Name = 
REMARK  5 active torsions:
REMARK  status: ('A' for Active; 'I' for Inactive)
REMARK    1  A    between atoms: N_3  and  C_4
REMARK    2  A    between atoms: C_12  and  C_13
REMARK    3  A    between atoms: C_13  and  N_14
REMARK    4  A    between atoms: C_17  and  C_18
REMARK    5  A    between atoms: C_26  and  C_27
REMARK                            x       y       z     vdW  Elec       q    Type
REMARK                         _______ _______ _______ _____ _____    ______ ____
ROOT
ATOM      1  O   UNL     1       1.390   7.055  20.550  0.00  0.00    +0.000 OA
ATOM      2  C   UNL     1       1.874   7.733  19.649  0.00  0.00    +0.000 C 
ATOM      3  N   UNL     1       2.764   7.261  18.709  0.00  0.00    +0.000 N 
ATOM      4  N   UNL     1       1.585   9.078  19.528  0.00  0.00    +0.000 N 
ATOM      5  C   UNL     1       0.770   9.727  20.541  0.00  0.00    +0.000 C 
ATOM      6  C   UNL     1      -0.046  10.777  19.790  0.00  0.00    +0.000 C 
ATOM      7  C   UNL     1       0.881  11.171  18.616  0.00  0.00    +0.000 C 
ATOM      8  C   UNL     1       1.648   9.871  18.306  0.00  0.00    +0.000 C 
ATOM      9  H   UNL     1       3.405   7.959  18.352  0.00  0.00    +0.000 HD
ENDROOT
BRANCH   3  10
ATOM     10  C   UNL     1       3.165   5.913  18.592  0.00  0.00    +0.000 A 
ATOM     11  C   UNL     1       2.415   4.966  17.890  0.00  0.00    +0.000 A 
ATOM     12  C   UNL     1       2.822   3.631  17.839  0.00  0.00    +0.000 A 
ATOM     13  C   UNL     1       3.990   3.236  18.484  0.00  0.00    +0.000 A 
ATOM     14  C   UNL     1       4.763   4.179  19.158  0.00  0.00    +0.000 A 
ATOM     15  C   UNL     1       4.359   5.517  19.202  0.00  0.00    +0.000 A 
ENDBRANCH   3  10
BRANCH   7  16
ATOM     16  C   UNL     1       1.751  12.365  19.000  0.00  0.00    +0.000 A 
ATOM     17  C   UNL     1       1.709  12.959  20.274  0.00  0.00    +0.000 A 
ATOM     18  C   UNL     1       2.502  14.072  20.570  0.00  0.00    +0.000 A 
ATOM     19  C   UNL     1       3.331  14.621  19.599  0.00  0.00    +0.000 A 
ATOM     20  C   UNL     1       3.372  14.058  18.324  0.00  0.00    +0.000 A 
ATOM     21  C   UNL     1       2.586  12.942  18.027  0.00  0.00    +0.000 A 
ENDBRANCH   7  16
BRANCH   6  22
ATOM     22  C   UNL     1      -1.397  10.182  19.338  0.00  0.00    +0.000 C 
BRANCH  22  23
ATOM     23  N   UNL     1      -2.335  11.224  18.868  0.00  0.00    +0.000 NA
ATOM     24  C   UNL     1      -3.300  10.707  17.889  0.00  0.00    +0.000 C 
ATOM     25  C   UNL     1      -4.320  11.758  17.444  0.00  0.00    +0.000 C 
ATOM     26  C   UNL     1      -5.068  12.370  18.641  0.00  0.00    +0.000 C 
ATOM     27  C   UNL     1      -3.969  12.976  19.539  0.00  0.00    +0.000 C 
ATOM     28  C   UNL     1      -2.970  11.909  20.000  0.00  0.00    +0.000 C 
BRANCH  26  29
ATOM     29  C   UNL     1      -6.032  11.418  19.360  0.00  0.00    +0.000 A 
ATOM     30  C   UNL     1      -6.705  11.810  20.530  0.00  0.00    +0.000 A 
ATOM     31  C   UNL     1      -7.559  10.937  21.210  0.00  0.00    +0.000 A 
ATOM     32  C   UNL     1      -7.785   9.658  20.718  0.00  0.00    +0.000 A 
ATOM     33  C   UNL     1      -7.174   9.262  19.534  0.00  0.00    +0.000 A 
ATOM     34  C   UNL     1      -6.317  10.137  18.857  0.00  0.00    +0.000 A 
ENDBRANCH  26  29
ENDBRANCH  22  23
ENDBRANCH   6  22
TORSDOF 5
ENDMDL
MODEL 3
REMARK VINA RESULT:      -6.7      0.088      1.187
REMARK  Name = 
REMARK  5 active torsions:
REMARK  status: ('A' for Active; 'I' for Inactive)
REMARK    1  A    between atoms: N_3  and  C_4
REMARK    2  A    between atoms: C_12  and  C_13
REMARK    3  A    between atoms: C_13  and  N_14
REMARK    4  A    between atoms: C_17  and  C_18
REMARK    5  A    between atoms: C_26  and  C_27
REMARK                            x       y       z     vdW  Elec       q    Type
REMARK                         _______ _______ _______ _____ _____    ______ ____
ROOT
ATOM      1  O   UNL     1       0.899   9.257  17.642  0.00  0.00    +0.000 OA
ATOM      2  C   UNL     1       0.944   9.423  18.857  0.00  0.00    +0.000 C 
ATOM      3  N   UNL     1       1.534   8.548  19.743  0.00  0.00    +0.000 N 
ATOM      4  N   UNL     1       0.351  10.517  19.455  0.00  0.00    +0.000 N 
ATOM      5  C   UNL     1      -0.425  11.441  18.643  0.00  0.00    +0.000 C 
ATOM      6  C   UNL     1      -0.192  12.816  19.265  0.00  0.00    +0.000 C 
ATOM      7  C   UNL     1       0.038  12.494  20.760  0.00  0.00    +0.000 C 
ATOM      8  C   UNL     1       0.720  11.112  20.733  0.00  0.00    +0.000 C 
ATOM      9  H   UNL     1       1.122   8.547  20.667  0.00  0.00    +0.000 HD
ENDROOT
BRANCH   3  10
ATOM     10  C   UNL     1       2.253   7.393  19.368  0.00  0.00    +0.000 A 
ATOM     11  C   UNL     1       3.078   7.355  18.240  0.00  0.00    +0.000 A 
ATOM     12  C   UNL     1       3.734   6.178  17.877  0.00  0.00    +0.000 A 
ATOM     13  C   UNL     1       3.577   5.029  18.646  0.00  0.00    +0.000 A 
ATOM     14  C   UNL     1       2.785   5.065  19.792  0.00  0.00    +0.000 A 
ATOM     15  C   UNL     1       2.133   6.247  20.160  0.00  0.00    +0.000 A 
ENDBRANCH   3  10
BRANCH   7  16
ATOM     16  C   UNL     1      -1.279  12.555  21.529  0.00  0.00    +0.000 A 
ATOM     17  C   UNL     1      -1.461  11.934  22.778  0.00  0.00    +0.000 A 
ATOM     18  C   UNL     1      -2.696  11.989  23.431  0.00  0.00    +0.000 A 
ATOM     19  C   UNL     1      -3.772  12.645  22.842  0.00  0.00    +0.000 A 
ATOM     20  C   UNL     1      -3.617  13.249  21.595  0.00  0.00    +0.000 A 
ATOM     21  C   UNL     1      -2.382  13.201  20.944  0.00  0.00    +0.000 A 
ENDBRANCH   7  16
BRANCH   6  22
ATOM     22  C   UNL     1       1.010  13.512  18.590  0.00  0.00    +0.000 C 
BRANCH  22  23
ATOM     23  N   UNL     1       1.082  14.950  18.926  0.00  0.00    +0.000 NA
ATOM     24  C   UNL     1      -0.226  15.611  18.838  0.00  0.00    +0.000 C 
ATOM     25  C   UNL     1      -0.178  17.085  19.248  0.00  0.00    +0.000 C 
ATOM     26  C   UNL     1       0.403  17.266  20.661  0.00  0.00    +0.000 C 
ATOM     27  C   UNL     1       1.811  16.637  20.603  0.00  0.00    +0.000 C 
ATOM     28  C   UNL     1       1.749  15.155  20.218  0.00  0.00    +0.000 C 
BRANCH  26  29
ATOM     29  C   UNL     1      -0.484  16.749  21.799  0.00  0.00    +0.000 A 
ATOM     30  C   UNL     1       0.053  15.990  22.854  0.00  0.00    +0.000 A 
ATOM     31  C   UNL     1      -0.754  15.487  23.878  0.00  0.00    +0.000 A 
ATOM     32  C   UNL     1      -2.117  15.757  23.889  0.00  0.00    +0.000 A 
ATOM     33  C   UNL     1      -2.666  16.549  22.887  0.00  0.00    +0.000 A 
ATOM     34  C   UNL     1      -1.856  17.050  21.861  0.00  0.00    +0.000 A 
ENDBRANCH  26  29
ENDBRANCH  22  23
ENDBRANCH   6  22
TORSDOF 5
ENDMDL
MODEL 4
REMARK VINA RESULT:      -6.7      1.022      1.130
REMARK  Name = 
REMARK  5 active torsions:
REMARK  status: ('A' for Active; 'I' for Inactive)
REMARK    1  A    between atoms: N_3  and  C_4
REMARK    2  A    between atoms: C_12  and  C_13
REMARK    3  A    between atoms: C_13  and  N_14
REMARK    4  A    between atoms: C_17  and  C_18
REMARK    5  A    between atoms: C_26  and  C_27
REMARK                            x       y       z     vdW  Elec       q    Type
REMARK                         _______ _______ _______ _____ _____    ______ ____
ROOT
ATOM      1  O   UNL     1       1.651   8.382  18.072  0.00  0.00    +0.000 OA
ATOM      2  C   UNL     1       1.468   8.577  19.270  0.00  0.00    +0.000 C 
ATOM      3  N   UNL     1       1.741   7.660  20.261  0.00  0.00    +0.000 N 
ATOM      4  N   UNL     1       0.915   9.756  19.729  0.00  0.00    +0.000 N 
ATOM      5  C   UNL     1       0.452  10.748  18.772  0.00  0.00    +0.000 C 
ATOM      6  C   UNL     1       0.732  12.100  19.425  0.00  0.00    +0.000 C 
ATOM      7  C   UNL     1       0.606  11.795  20.936  0.00  0.00    +0.000 C 
ATOM      8  C   UNL     1       1.089  10.337  21.054  0.00  0.00    +0.000 C 
ATOM      9  H   UNL     1       1.152   7.740  21.080  0.00  0.00    +0.000 HD
ENDROOT
BRANCH   3  10
ATOM     10  C   UNL     1       2.362   6.411  20.046  0.00  0.00    +0.000 A 
ATOM     11  C   UNL     1       3.551   6.278  19.324  0.00  0.00    +0.000 A 
ATOM     12  C   UNL     1       4.106   5.018  19.093  0.00  0.00    +0.000 A 
ATOM     13  C   UNL     1       3.480   3.880  19.592  0.00  0.00    +0.000 A 
ATOM     14  C   UNL     1       2.313   4.005  20.344  0.00  0.00    +0.000 A 
ATOM     15  C   UNL     1       1.760   5.268  20.581  0.00  0.00    +0.000 A 
ENDBRANCH   3  10
BRANCH   7  16
ATOM     16  C   UNL     1      -0.821  12.049  21.414  0.00  0.00    +0.000 A 
ATOM     17  C   UNL     1      -1.788  12.687  20.618  0.00  0.00    +0.000 A 
ATOM     18  C   UNL     1      -3.075  12.929  21.111  0.00  0.00    +0.000 A 
ATOM     19  C   UNL     1      -3.410  12.555  22.408  0.00  0.00    +0.000 A 
ATOM     20  C   UNL     1      -2.459  11.939  23.219  0.00  0.00    +0.000 A 
ATOM     21  C   UNL     1      -1.174  11.692  22.727  0.00  0.00    +0.000 A 
ENDBRANCH   7  16
BRANCH   6  22
ATOM     22  C   UNL     1       2.129  12.613  19.012  0.00  0.00    +0.000 C 
BRANCH  22  23
ATOM     23  N   UNL     1       2.274  14.069  19.229  0.00  0.00    +0.000 NA
ATOM     24  C   UNL     1       1.114  14.825  18.742  0.00  0.00    +0.000 C 
ATOM     25  C   UNL     1       1.221  16.327  19.021  0.00  0.00    +0.000 C 
ATOM     26  C   UNL     1       1.442  16.615  20.516  0.00  0.00    +0.000 C 
ATOM     27  C   UNL     1       2.739  15.866  20.886  0.00  0.00    +0.000 C 
ATOM     28  C   UNL     1       2.611  14.361  20.628  0.00  0.00    +0.000 C 
BRANCH  26  29
ATOM     29  C   UNL     1       0.243  16.308  21.421  0.00  0.00    +0.000 A 
ATOM     30  C   UNL     1      -1.060  16.689  21.058  0.00  0.00    +0.000 A 
ATOM     31  C   UNL     1      -2.154  16.442  21.892  0.00  0.00    +0.000 A 
ATOM     32  C   UNL     1      -1.975  15.778  23.099  0.00  0.00    +0.000 A 
ATOM     33  C   UNL     1      -0.705  15.343  23.459  0.00  0.00    +0.000 A 
ATOM     34  C   UNL     1       0.390  15.594  22.623  0.00  0.00    +0.000 A 
ENDBRANCH  26  29
ENDBRANCH  22  23
ENDBRANCH   6  22
TORSDOF 5
ENDMDL
MODEL 5
REMARK VINA RESULT:      -6.7      0.100      1.187
REMARK  Name = 
REMARK  5 active torsions:
REMARK  status: ('A' for Active; 'I' for Inactive)
REMARK    1  A    between atoms: N_3  and  C_4
REMARK    2  A    between atoms: C_12  and  C_13
REMARK    3  A    between atoms: C_13  and  N_14
REMARK    4  A    between atoms: C_17  and  C_18
REMARK    5  A    between atoms: C_26  and  C_27
REMARK                            x       y       z     vdW  Elec       q    Type
REMARK                         _______ _______ _______ _____ _____    ______ ____
ROOT
ATOM      1  O   UNL     1       0.991   9.274  17.592  0.00  0.00    +0.000 OA
ATOM      2  C   UNL     1       0.993   9.421  18.810  0.00  0.00    +0.000 C 
ATOM      3  N   UNL     1       1.556   8.535  19.702  0.00  0.00    +0.000 N 
ATOM      4  N   UNL     1       0.375  10.504  19.404  0.00  0.00    +0.000 N 
ATOM      5  C   UNL     1      -0.376  11.438  18.581  0.00  0.00    +0.000 C 
ATOM      6  C   UNL     1      -0.171  12.804  19.232  0.00  0.00    +0.000 C 
ATOM      7  C   UNL     1       0.010  12.459  20.728  0.00  0.00    +0.000 C 
ATOM      8  C   UNL     1       0.698  11.081  20.703  0.00  0.00    +0.000 C 
ATOM      9  H   UNL     1       1.113   8.518  20.612  0.00  0.00    +0.000 HD
ENDROOT
BRANCH   3  10
ATOM     10  C   UNL     1       2.293   7.389  19.334  0.00  0.00    +0.000 A 
ATOM     11  C   UNL     1       2.236   6.196  20.060  0.00  0.00    +0.000 A 
ATOM     12  C   UNL     1       3.018   5.100  19.690  0.00  0.00    +0.000 A 
ATOM     13  C   UNL     1       3.856   5.186  18.583  0.00  0.00    +0.000 A 
ATOM     14  C   UNL     1       3.894   6.360  17.832  0.00  0.00    +0.000 A 
ATOM     15  C   UNL     1       3.105   7.455  18.198  0.00  0.00    +0.000 A 
ENDBRANCH   3  10
BRANCH   7  16
ATOM     16  C   UNL     1      -1.333  12.503  21.452  0.00  0.00    +0.000 A 
ATOM     17  C   UNL     1      -2.463  13.152  20.922  0.00  0.00    +0.000 A 
ATOM     18  C   UNL     1      -3.664  13.195  21.637  0.00  0.00    +0.000 A 
ATOM     19  C   UNL     1      -3.753  12.609  22.895  0.00  0.00    +0.000 A 
ATOM     20  C   UNL     1      -2.638  11.978  23.445  0.00  0.00    +0.000 A 
ATOM     21  C   UNL     1      -1.439  11.929  22.731  0.00  0.00    +0.000 A 
ENDBRANCH   7  16
BRANCH   6  22
ATOM     22  C   UNL     1       1.051  13.514  18.609  0.00  0.00    +0.000 C 
BRANCH  22  23
ATOM     23  N   UNL     1       1.076  14.959  18.924  0.00  0.00    +0.000 NA
ATOM     24  C   UNL     1      -0.253  15.576  18.825  0.00  0.00    +0.000 C 
ATOM     25  C   UNL     1      -0.253  17.057  19.215  0.00  0.00    +0.000 C 
ATOM     26  C   UNL     1       0.320  17.276  20.625  0.00  0.00    +0.000 C 
ATOM     27  C   UNL     1       1.748  16.693  20.577  0.00  0.00    +0.000 C 
ATOM     28  C   UNL     1       1.734  15.204  20.214  0.00  0.00    +0.000 C 
BRANCH  26  29
ATOM     29  C   UNL     1      -0.551  16.747  21.770  0.00  0.00    +0.000 A 
ATOM     30  C   UNL     1       0.001  15.983  22.812  0.00  0.00    +0.000 A 
ATOM     31  C   UNL     1      -0.792  15.468  23.842  0.00  0.00    +0.000 A 
ATOM     32  C   UNL     1      -2.155  15.733  23.871  0.00  0.00    +0.000 A 
ATOM     33  C   UNL     1      -2.719  16.530  22.882  0.00  0.00    +0.000 A 
ATOM     34  C   UNL     1      -1.924  17.041  21.850  0.00  0.00    +0.000 A 
ENDBRANCH  26  29
ENDBRANCH  22  23
ENDBRANCH   6  22
TORSDOF 5
ENDMDL
MODEL 6
REMARK VINA RESULT:      -6.4      1.306      1.810
REMARK  Name = 
REMARK  5 active torsions:
REMARK  status: ('A' for Active; 'I' for Inactive)
REMARK    1  A    between atoms: N_3  and  C_4
REMARK    2  A    between atoms: C_12  and  C_13
REMARK    3  A    between atoms: C_13  and  N_14
REMARK    4  A    between atoms: C_17  and  C_18
REMARK    5  A    between atoms: C_26  and  C_27
REMARK                            x       y       z     vdW  Elec       q    Type
REMARK                         _______ _______ _______ _____ _____    ______ ____
ROOT
ATOM      1  O   UNL     1      -0.146  10.196  18.160  0.00  0.00    +0.000 OA
ATOM      2  C   UNL     1      -0.097  10.307  19.381  0.00  0.00    +0.000 C 
ATOM      3  N   UNL     1       0.586   9.449  20.216  0.00  0.00    +0.000 N 
ATOM      4  N   UNL     1      -0.779  11.311  20.040  0.00  0.00    +0.000 N 
ATOM      5  C   UNL     1      -1.649  12.197  19.284  0.00  0.00    +0.000 C 
ATOM      6  C   UNL     1      -1.535  13.557  19.970  0.00  0.00    +0.000 C 
ATOM      7  C   UNL     1      -1.251  13.186  21.444  0.00  0.00    +0.000 C 
ATOM      8  C   UNL     1      -0.445  11.876  21.341  0.00  0.00    +0.000 C 
ATOM      9  H   UNL     1       0.190   9.366  21.144  0.00  0.00    +0.000 HD
ENDROOT
BRANCH   3  10
ATOM     10  C   UNL     1       1.402   8.385  19.776  0.00  0.00    +0.000 A 
ATOM     11  C   UNL     1       2.107   8.429  18.571  0.00  0.00    +0.000 A 
ATOM     12  C   UNL     1       2.864   7.335  18.149  0.00  0.00    +0.000 A 
ATOM     13  C   UNL     1       2.931   6.191  18.937  0.00  0.00    +0.000 A 
ATOM     14  C   UNL     1       2.261   6.150  20.158  0.00  0.00    +0.000 A 
ATOM     15  C   UNL     1       1.507   7.249  20.584  0.00  0.00    +0.000 A 
ENDBRANCH   3  10
BRANCH   7  16
ATOM     16  C   UNL     1      -2.556  13.087  22.230  0.00  0.00    +0.000 A 
ATOM     17  C   UNL     1      -3.701  13.833  21.901  0.00  0.00    +0.000 A 
ATOM     18  C   UNL     1      -4.865  13.735  22.670  0.00  0.00    +0.000 A 
ATOM     19  C   UNL     1      -4.899  12.907  23.787  0.00  0.00    +0.000 A 
ATOM     20  C   UNL     1      -3.768  12.174  24.141  0.00  0.00    +0.000 A 
ATOM     21  C   UNL     1      -2.605  12.267  23.371  0.00  0.00    +0.000 A 
ENDBRANCH   7  16
BRANCH   6  22
ATOM     22  C   UNL     1      -0.413  14.392  19.316  0.00  0.00    +0.000 C 
BRANCH  22  23
ATOM     23  N   UNL     1      -0.315  15.747  19.901  0.00  0.00    +0.000 NA
ATOM     24  C   UNL     1      -1.631  16.349  20.141  0.00  0.00    +0.000 C 
ATOM     25  C   UNL     1      -1.546  17.725  20.809  0.00  0.00    +0.000 C 
ATOM     26  C   UNL     1      -0.749  17.672  22.124  0.00  0.00    +0.000 C 
ATOM     27  C   UNL     1       0.643  17.134  21.732  0.00  0.00    +0.000 C 
ATOM     28  C   UNL     1       0.547  15.745  21.090  0.00  0.00    +0.000 C 
BRANCH  26  29
ATOM     29  C   UNL     1      -1.432  16.914  23.268  0.00  0.00    +0.000 A 
ATOM     30  C   UNL     1      -0.716  16.010  24.072  0.00  0.00    +0.000 A 
ATOM     31  C   UNL     1      -1.338  15.290  25.095  0.00  0.00    +0.000 A 
ATOM     32  C   UNL     1      -2.689  15.480  25.361  0.00  0.00    +0.000 A 
ATOM     33  C   UNL     1      -3.409  16.407  24.616  0.00  0.00    +0.000 A 
ATOM     34  C   UNL     1      -2.784  17.125  23.589  0.00  0.00    +0.000 A 
ENDBRANCH  26  29
ENDBRANCH  22  23
ENDBRANCH   6  22
TORSDOF 5
ENDMDL
MODEL 7
REMARK VINA RESULT:      -6.4      3.572      6.617
REMARK  Name = 
REMARK  5 active torsions:
REMARK  status: ('A' for Active; 'I' for Inactive)
REMARK    1  A    between atoms: N_3  and  C_4
REMARK    2  A    between atoms: C_12  and  C_13
REMARK    3  A    between atoms: C_13  and  N_14
REMARK    4  A    between atoms: C_17  and  C_18
REMARK    5  A    between atoms: C_26  and  C_27
REMARK                            x       y       z     vdW  Elec       q    Type
REMARK                         _______ _______ _______ _____ _____    ______ ____
ROOT
ATOM      1  O   UNL     1       1.349  15.723  19.637  0.00  0.00    +0.000 OA
ATOM      2  C   UNL     1       1.436  14.503  19.536  0.00  0.00    +0.000 C 
ATOM      3  N   UNL     1       2.620  13.815  19.381  0.00  0.00    +0.000 N 
ATOM      4  N   UNL     1       0.312  13.701  19.530  0.00  0.00    +0.000 N 
ATOM      5  C   UNL     1      -1.005  14.317  19.545  0.00  0.00    +0.000 C 
ATOM      6  C   UNL     1      -1.882  13.371  20.364  0.00  0.00    +0.000 C 
ATOM      7  C   UNL     1      -1.250  11.985  20.100  0.00  0.00    +0.000 C 
ATOM      8  C   UNL     1       0.248  12.297  19.916  0.00  0.00    +0.000 C 
ATOM      9  H   UNL     1       2.535  12.946  18.870  0.00  0.00    +0.000 HD
ENDROOT
BRANCH   3  10
ATOM     10  C   UNL     1       3.900  14.408  19.416  0.00  0.00    +0.000 A 
ATOM     11  C   UNL     1       4.521  14.784  20.610  0.00  0.00    +0.000 A 
ATOM     12  C   UNL     1       5.767  15.413  20.597  0.00  0.00    +0.000 A 
ATOM     13  C   UNL     1       6.408  15.660  19.387  0.00  0.00    +0.000 A 
ATOM     14  C   UNL     1       5.814  15.257  18.193  0.00  0.00    +0.000 A 
ATOM     15  C   UNL     1       4.568  14.622  18.206  0.00  0.00    +0.000 A 
ENDBRANCH   3  10
BRANCH   7  16
ATOM     16  C   UNL     1      -1.925  11.309  18.909  0.00  0.00    +0.000 A 
ATOM     17  C   UNL     1      -1.250  10.417  18.057  0.00  0.00    +0.000 A 
ATOM     18  C   UNL     1      -1.900   9.847  16.958  0.00  0.00    +0.000 A 
ATOM     19  C   UNL     1      -3.224  10.170  16.681  0.00  0.00    +0.000 A 
ATOM     20  C   UNL     1      -3.904  11.068  17.503  0.00  0.00    +0.000 A 
ATOM     21  C   UNL     1      -3.258  11.634  18.605  0.00  0.00    +0.000 A 
ENDBRANCH   7  16
BRANCH   6  22
ATOM     22  C   UNL     1      -1.868  13.784  21.852  0.00  0.00    +0.000 C 
BRANCH  22  23
ATOM     23  N   UNL     1      -3.230  14.019  22.378  0.00  0.00    +0.000 NA
ATOM     24  C   UNL     1      -3.984  14.982  21.566  0.00  0.00    +0.000 C 
ATOM     25  C   UNL     1      -5.419  15.184  22.061  0.00  0.00    +0.000 C 
ATOM     26  C   UNL     1      -6.188  13.854  22.141  0.00  0.00    +0.000 C 
ATOM     27  C   UNL     1      -5.366  12.969  23.101  0.00  0.00    +0.000 C 
ATOM     28  C   UNL     1      -3.940  12.751  22.583  0.00  0.00    +0.000 C 
BRANCH  26  29
ATOM     29  C   UNL     1      -6.509  13.207  20.789  0.00  0.00    +0.000 A 
ATOM     30  C   UNL     1      -6.525  13.964  19.605  0.00  0.00    +0.000 A 
ATOM     31  C   UNL     1      -6.850  13.389  18.373  0.00  0.00    +0.000 A 
ATOM     32  C   UNL     1      -7.137  12.032  18.290  0.00  0.00    +0.000 A 
ATOM     33  C   UNL     1      -7.077  11.249  19.437  0.00  0.00    +0.000 A 
ATOM     34  C   UNL     1      -6.754  11.828  20.670  0.00  0.00    +0.000 A 
ENDBRANCH  26  29
ENDBRANCH  22  23
ENDBRANCH   6  22
TORSDOF 5
ENDMDL
MODEL 8
REMARK VINA RESULT:      -6.4      6.848     10.663
REMARK  Name = 
REMARK  5 active torsions:
REMARK  status: ('A' for Active; 'I' for Inactive)
REMARK    1  A    between atoms: N_3  and  C_4
REMARK    2  A    between atoms: C_12  and  C_13
REMARK    3  A    between atoms: C_13  and  N_14
REMARK    4  A    between atoms: C_17  and  C_18
REMARK    5  A    between atoms: C_26  and  C_27
REMARK                            x       y       z     vdW  Elec       q    Type
REMARK                         _______ _______ _______ _____ _____    ______ ____
ROOT
ATOM      1  O   UNL     1       3.782  18.305  20.339  0.00  0.00    +0.000 OA
ATOM      2  C   UNL     1       3.859  17.093  20.160  0.00  0.00    +0.000 C 
ATOM      3  N   UNL     1       2.807  16.293  19.773  0.00  0.00    +0.000 N 
ATOM      4  N   UNL     1       5.038  16.408  20.380  0.00  0.00    +0.000 N 
ATOM      5  C   UNL     1       6.185  17.117  20.927  0.00  0.00    +0.000 C 
ATOM      6  C   UNL     1       7.405  16.470  20.276  0.00  0.00    +0.000 C 
ATOM      7  C   UNL     1       6.947  15.013  20.034  0.00  0.00    +0.000 C 
ATOM      8  C   UNL     1       5.435  15.147  19.767  0.00  0.00    +0.000 C 
ATOM      9  H   UNL     1       2.866  15.337  20.099  0.00  0.00    +0.000 HD
ENDROOT
BRANCH   3  10
ATOM     10  C   UNL     1       1.523  16.769  19.433  0.00  0.00    +0.000 A 
ATOM     11  C   UNL     1       0.507  16.927  20.378  0.00  0.00    +0.000 A 
ATOM     12  C   UNL     1      -0.765  17.355  19.992  0.00  0.00    +0.000 A 
ATOM     13  C   UNL     1      -1.027  17.638  18.656  0.00  0.00    +0.000 A 
ATOM     14  C   UNL     1      -0.011  17.517  17.709  0.00  0.00    +0.000 A 
ATOM     15  C   UNL     1       1.265  17.095  18.098  0.00  0.00    +0.000 A 
ENDBRANCH   3  10
BRANCH   7  16
ATOM     16  C   UNL     1       7.322  14.131  21.222  0.00  0.00    +0.000 A 
ATOM     17  C   UNL     1       6.401  13.764  22.219  0.00  0.00    +0.000 A 
ATOM     18  C   UNL     1       6.798  12.981  23.307  0.00  0.00    +0.000 A 
ATOM     19  C   UNL     1       8.120  12.568  23.428  0.00  0.00    +0.000 A 
ATOM     20  C   UNL     1       9.052  12.937  22.460  0.00  0.00    +0.000 A 
ATOM     21  C   UNL     1       8.657  13.715  21.368  0.00  0.00    +0.000 A 
ENDBRANCH   7  16
BRANCH   6  22
ATOM     22  C   UNL     1       7.782  17.222  18.982  0.00  0.00    +0.000 C 
BRANCH  22  23
ATOM     23  N   UNL     1       9.207  17.044  18.628  0.00  0.00    +0.000 NA
ATOM     24  C   UNL     1      10.017  16.613  19.773  0.00  0.00    +0.000 C 
ATOM     25  C   UNL     1      11.482  16.359  19.406  0.00  0.00    +0.000 C 
ATOM     26  C   UNL     1      11.615  15.341  18.261  0.00  0.00    +0.000 C 
ATOM     27  C   UNL     1      10.822  15.949  17.084  0.00  0.00    +0.000 C 
ATOM     28  C   UNL     1       9.352  16.173  17.455  0.00  0.00    +0.000 C 
BRANCH  26  29
ATOM     29  C   UNL     1      11.226  13.903  18.621  0.00  0.00    +0.000 A 
ATOM     30  C   UNL     1      10.189  13.238  17.945  0.00  0.00    +0.000 A 
ATOM     31  C   UNL     1       9.805  11.939  18.290  0.00  0.00    +0.000 A 
ATOM     32  C   UNL     1      10.472  11.259  19.302  0.00  0.00    +0.000 A 
ATOM     33  C   UNL     1      11.537  11.873  19.952  0.00  0.00    +0.000 A 
ATOM     34  C   UNL     1      11.917  13.176  19.607  0.00  0.00    +0.000 A 
ENDBRANCH  26  29
ENDBRANCH  22  23
ENDBRANCH   6  22
TORSDOF 5
ENDMDL
MODEL 9
REMARK VINA RESULT:      -6.3      7.316     10.832
REMARK  Name = 
REMARK  5 active torsions:
REMARK  status: ('A' for Active; 'I' for Inactive)
REMARK    1  A    between atoms: N_3  and  C_4
REMARK    2  A    between atoms: C_12  and  C_13
REMARK    3  A    between atoms: C_13  and  N_14
REMARK    4  A    between atoms: C_17  and  C_18
REMARK    5  A    between atoms: C_26  and  C_27
REMARK                            x       y       z     vdW  Elec       q    Type
REMARK                         _______ _______ _______ _____ _____    ______ ____
ROOT
ATOM      1  O   UNL     1       3.788  15.080  21.542  0.00  0.00    +0.000 OA
ATOM      2  C   UNL     1       4.390  14.977  20.478  0.00  0.00    +0.000 C 
ATOM      3  N   UNL     1       3.803  15.080  19.236  0.00  0.00    +0.000 N 
ATOM      4  N   UNL     1       5.743  14.701  20.441  0.00  0.00    +0.000 N 
ATOM      5  C   UNL     1       6.450  14.430  21.682  0.00  0.00    +0.000 C 
ATOM      6  C   UNL     1       7.849  15.010  21.483  0.00  0.00    +0.000 C 
ATOM      7  C   UNL     1       8.078  14.867  19.960  0.00  0.00    +0.000 C 
ATOM      8  C   UNL     1       6.666  15.034  19.364  0.00  0.00    +0.000 C 
ATOM      9  H   UNL     1       4.263  14.546  18.510  0.00  0.00    +0.000 HD
ENDROOT
BRANCH   3  10
ATOM     10  C   UNL     1       2.450  15.415  19.016  0.00  0.00    +0.000 A 
ATOM     11  C   UNL     1       2.009  16.738  18.929  0.00  0.00    +0.000 A 
ATOM     12  C   UNL     1       0.654  17.027  18.760  0.00  0.00    +0.000 A 
ATOM     13  C   UNL     1      -0.271  15.993  18.665  0.00  0.00    +0.000 A 
ATOM     14  C   UNL     1       0.162  14.669  18.715  0.00  0.00    +0.000 A 
ATOM     15  C   UNL     1       1.521  14.379  18.878  0.00  0.00    +0.000 A 
ENDBRANCH   3  10
BRANCH   7  16
ATOM     16  C   UNL     1       8.765  13.541  19.646  0.00  0.00    +0.000 A 
ATOM     17  C   UNL     1       8.651  12.902  18.398  0.00  0.00    +0.000 A 
ATOM     18  C   UNL     1       9.272  11.671  18.166  0.00  0.00    +0.000 A 
ATOM     19  C   UNL     1       9.999  11.051  19.176  0.00  0.00    +0.000 A 
ATOM     20  C   UNL     1      10.108  11.660  20.425  0.00  0.00    +0.000 A 
ATOM     21  C   UNL     1       9.493  12.893  20.658  0.00  0.00    +0.000 A 
ENDBRANCH   7  16
BRANCH   6  22
ATOM     22  C   UNL     1       7.898  16.471  21.981  0.00  0.00    +0.000 C 
BRANCH  22  23
ATOM     23  N   UNL     1       9.214  17.099  21.737  0.00  0.00    +0.000 NA
ATOM     24  C   UNL     1      10.329  16.179  21.993  0.00  0.00    +0.000 C 
ATOM     25  C   UNL     1      11.695  16.796  21.679  0.00  0.00    +0.000 C 
ATOM     26  C   UNL     1      11.768  17.314  20.232  0.00  0.00    +0.000 C 
ATOM     27  C   UNL     1      10.628  18.348  20.115  0.00  0.00    +0.000 C 
ATOM     28  C   UNL     1       9.263  17.713  20.404  0.00  0.00    +0.000 C 
BRANCH  26  29
ATOM     29  C   UNL     1      11.763  16.227  19.151  0.00  0.00    +0.000 A 
ATOM     30  C   UNL     1      12.294  14.950  19.401  0.00  0.00    +0.000 A 
ATOM     31  C   UNL     1      12.323  13.964  18.411  0.00  0.00    +0.000 A 
ATOM     32  C   UNL     1      11.792  14.222  17.153  0.00  0.00    +0.000 A 
ATOM     33  C   UNL     1      11.213  15.459  16.895  0.00  0.00    +0.000 A 
ATOM     34  C   UNL     1      11.188  16.446  17.887  0.00  0.00    +0.000 A 
ENDBRANCH  26  29
ENDBRANCH  22  23
ENDBRANCH   6  22
TORSDOF 5
ENDMDL
