MODEL 1
REMARK VINA RESULT:      -7.0      0.000      0.000
REMARK  Name = 
REMARK  9 active torsions:
REMARK  status: ('A' for Active; 'I' for Inactive)
REMARK    1  A    between atoms: C_1  and  C_2
REMARK    2  A    between atoms: C_2  and  O_3
REMARK    3  A    between atoms: O_3  and  C_4
REMARK    4  A    between atoms: C_7  and  N_8
REMARK    5  A    between atoms: C_9  and  C_11
REMARK    6  A    between atoms: C_11  and  N_12
REMARK    7  A    between atoms: N_15  and  C_16
REMARK    8  A    between atoms: C_16  and  C_17
REMARK    9  A    between atoms: N_19  and  C_20
REMARK                            x       y       z     vdW  Elec       q    Type
REMARK                         _______ _______ _______ _____ _____    ______ ____
ROOT
ATOM      1  N   UNL     1      -0.223   9.825  20.053  0.00  0.00    +0.000 NA
ATOM      2  C   UNL     1      -0.267   9.171  21.379  0.00  0.00    +0.000 C 
ATOM      3  C   UNL     1       0.278  10.058  22.535  0.00  0.00    +0.000 C 
ATOM      4  N   UNL     1      -0.394  11.375  22.670  0.00  0.00    +0.000 NA
ATOM      5  C   UNL     1      -0.442  12.027  21.334  0.00  0.00    +0.000 C 
ATOM      6  C   UNL     1      -0.907  11.135  20.158  0.00  0.00    +0.000 C 
ENDROOT
BRANCH   1   7
ATOM      7  C   UNL     1       1.185   9.912  19.619  0.00  0.00    +0.000 C 
BRANCH   7   9
ATOM      8  N   UNL     1       2.357   7.930  18.989  0.00  0.00    +0.000 N 
ATOM      9  C   UNL     1       1.610   8.989  18.472  0.00  0.00    +0.000 C 
ATOM     10  O   UNL     1       1.352   9.183  17.292  0.00  0.00    +0.000 OA
ATOM     11  H   UNL     1       2.462   7.893  19.995  0.00  0.00    +0.000 HD
BRANCH   8  15
ATOM     12  C   UNL     1       4.147   4.716  16.946  0.00  0.00    +0.000 A 
ATOM     13  C   UNL     1       4.769   5.962  16.941  0.00  0.00    +0.000 A 
ATOM     14  C   UNL     1       4.197   7.045  17.607  0.00  0.00    +0.000 A 
ATOM     15  C   UNL     1       2.988   6.897  18.277  0.00  0.00    +0.000 A 
ATOM     16  C   UNL     1       2.347   5.650  18.257  0.00  0.00    +0.000 A 
ATOM     17  C   UNL     1       2.919   4.564  17.588  0.00  0.00    +0.000 A 
BRANCH  12  18
ATOM     18  O   UNL     1       4.822   3.731  16.287  0.00  0.00    +0.000 OA
BRANCH  18  20
ATOM     19  C   UNL     1       5.889   4.078  14.195  0.00  0.00    +0.000 C 
ATOM     20  C   UNL     1       6.065   4.113  15.700  0.00  0.00    +0.000 C 
ENDBRANCH  18  20
ENDBRANCH  12  18
ENDBRANCH   8  15
ENDBRANCH   7   9
ENDBRANCH   1   7
BRANCH   4  21
ATOM     21  C   UNL     1      -1.745  11.134  23.231  0.00  0.00    +0.000 C 
BRANCH  21  22
ATOM     22  C   UNL     1      -2.588  12.396  23.335  0.00  0.00    +0.000 C 
ATOM     23  O   UNL     1      -2.089  13.424  23.788  0.00  0.00    +0.000 OA
ATOM     24  N   UNL     1      -3.878  12.244  22.861  0.00  0.00    +0.000 N 
ATOM     25  H   UNL     1      -4.182  11.284  22.728  0.00  0.00    +0.000 HD
BRANCH  24  26
ATOM     26  C   UNL     1      -4.834  13.273  22.741  0.00  0.00    +0.000 A 
ATOM     27  C   UNL     1      -4.836  14.181  21.674  0.00  0.00    +0.000 A 
ATOM     28  C   UNL     1      -5.776  15.215  21.605  0.00  0.00    +0.000 A 
ATOM     29  C   UNL     1      -6.734  15.339  22.602  0.00  0.00    +0.000 A 
ATOM     30  C   UNL     1      -6.753  14.422  23.645  0.00  0.00    +0.000 A 
ATOM     31  F   UNL     1      -7.681  14.539  24.604  0.00  0.00    +0.000 F 
ATOM     32  C   UNL     1      -5.821  13.386  23.721  0.00  0.00    +0.000 A 
ENDBRANCH  24  26
ENDBRANCH  21  22
ENDBRANCH   4  21
TORSDOF 8
ENDMDL
MODEL 2
REMARK VINA RESULT:      -6.8      1.144      1.413
REMARK  Name = 
REMARK  9 active torsions:
REMARK  status: ('A' for Active; 'I' for Inactive)
REMARK    1  A    between atoms: C_1  and  C_2
REMARK    2  A    between atoms: C_2  and  O_3
REMARK    3  A    between atoms: O_3  and  C_4
REMARK    4  A    between atoms: C_7  and  N_8
REMARK    5  A    between atoms: C_9  and  C_11
REMARK    6  A    between atoms: C_11  and  N_12
REMARK    7  A    between atoms: N_15  and  C_16
REMARK    8  A    between atoms: C_16  and  C_17
REMARK    9  A    between atoms: N_19  and  C_20
REMARK                            x       y       z     vdW  Elec       q    Type
REMARK                         _______ _______ _______ _____ _____    ______ ____
ROOT
ATOM      1  N   UNL     1      -0.037   9.276  20.344  0.00  0.00    +0.000 NA
ATOM      2  C   UNL     1      -0.304   8.771  21.708  0.00  0.00    +0.000 C 
ATOM      3  C   UNL     1       0.198   9.716  22.838  0.00  0.00    +0.000 C 
ATOM      4  N   UNL     1      -0.339  11.099  22.767  0.00  0.00    +0.000 NA
ATOM      5  C   UNL     1      -0.162  11.610  21.381  0.00  0.00    +0.000 C 
ATOM      6  C   UNL     1      -0.584  10.650  20.242  0.00  0.00    +0.000 C 
ENDROOT
BRANCH   1   7
ATOM      7  C   UNL     1       1.412   9.181  20.083  0.00  0.00    +0.000 C 
BRANCH   7   9
ATOM      8  N   UNL     1       2.669   7.402  19.108  0.00  0.00    +0.000 N 
ATOM      9  C   UNL     1       1.834   8.474  18.791  0.00  0.00    +0.000 C 
ATOM     10  O   UNL     1       1.507   8.827  17.666  0.00  0.00    +0.000 OA
ATOM     11  H   UNL     1       2.826   7.220  20.091  0.00  0.00    +0.000 HD
BRANCH   8  15
ATOM     12  C   UNL     1       4.570   4.661  16.542  0.00  0.00    +0.000 A 
ATOM     13  C   UNL     1       4.975   5.994  16.541  0.00  0.00    +0.000 A 
ATOM     14  C   UNL     1       4.361   6.924  17.379  0.00  0.00    +0.000 A 
ATOM     15  C   UNL     1       3.324   6.533  18.220  0.00  0.00    +0.000 A 
ATOM     16  C   UNL     1       2.897   5.198  18.198  0.00  0.00    +0.000 A 
ATOM     17  C   UNL     1       3.512   4.266  17.357  0.00  0.00    +0.000 A 
BRANCH  12  18
ATOM     18  O   UNL     1       5.271   3.846  15.702  0.00  0.00    +0.000 OA
BRANCH  18  20
ATOM     19  C   UNL     1       6.003   3.789  13.445  0.00  0.00    +0.000 C 
ATOM     20  C   UNL     1       6.137   4.500  14.778  0.00  0.00    +0.000 C 
ENDBRANCH  18  20
ENDBRANCH  12  18
ENDBRANCH   8  15
ENDBRANCH   7   9
ENDBRANCH   1   7
BRANCH   4  21
ATOM     21  C   UNL     1      -1.764  11.048  23.174  0.00  0.00    +0.000 C 
BRANCH  21  22
ATOM     22  C   UNL     1      -2.431  12.414  23.201  0.00  0.00    +0.000 C 
ATOM     23  O   UNL     1      -1.793  13.394  23.581  0.00  0.00    +0.000 OA
ATOM     24  N   UNL     1      -3.738  12.405  22.749  0.00  0.00    +0.000 N 
ATOM     25  H   UNL     1      -4.168  11.487  22.683  0.00  0.00    +0.000 HD
BRANCH  24  26
ATOM     26  C   UNL     1      -4.552  13.542  22.570  0.00  0.00    +0.000 A 
ATOM     27  C   UNL     1      -5.183  14.193  23.637  0.00  0.00    +0.000 A 
ATOM     28  C   UNL     1      -6.017  15.297  23.420  0.00  0.00    +0.000 A 
ATOM     29  C   UNL     1      -6.213  15.765  22.128  0.00  0.00    +0.000 A 
ATOM     30  C   UNL     1      -5.562  15.140  21.072  0.00  0.00    +0.000 A 
ATOM     31  F   UNL     1      -5.747  15.597  19.826  0.00  0.00    +0.000 F 
ATOM     32  C   UNL     1      -4.727  14.041  21.278  0.00  0.00    +0.000 A 
ENDBRANCH  24  26
ENDBRANCH  21  22
ENDBRANCH   4  21
TORSDOF 8
ENDMDL
MODEL 3
REMARK VINA RESULT:      -6.7      4.607     12.620
REMARK  Name = 
REMARK  9 active torsions:
REMARK  status: ('A' for Active; 'I' for Inactive)
REMARK    1  A    between atoms: C_1  and  C_2
REMARK    2  A    between atoms: C_2  and  O_3
REMARK    3  A    between atoms: O_3  and  C_4
REMARK    4  A    between atoms: C_7  and  N_8
REMARK    5  A    between atoms: C_9  and  C_11
REMARK    6  A    between atoms: C_11  and  N_12
REMARK    7  A    between atoms: N_15  and  C_16
REMARK    8  A    between atoms: C_16  and  C_17
REMARK    9  A    between atoms: N_19  and  C_20
REMARK                            x       y       z     vdW  Elec       q    Type
REMARK                         _______ _______ _______ _____ _____    ______ ____
ROOT
ATOM      1  N   UNL     1       2.342   6.753  18.271  0.00  0.00    +0.000 NA
ATOM      2  C   UNL     1       3.434   6.694  17.275  0.00  0.00    +0.000 C 
ATOM      3  C   UNL     1       4.847   6.511  17.902  0.00  0.00    +0.000 C 
ATOM      4  N   UNL     1       4.982   5.319  18.776  0.00  0.00    +0.000 NA
ATOM      5  C   UNL     1       3.849   5.301  19.740  0.00  0.00    +0.000 C 
ATOM      6  C   UNL     1       2.444   5.560  19.143  0.00  0.00    +0.000 C 
ENDROOT
BRANCH   1   7
ATOM      7  C   UNL     1       2.432   8.038  18.991  0.00  0.00    +0.000 C 
BRANCH   7   9
ATOM      8  N   UNL     1       0.943   9.518  20.127  0.00  0.00    +0.000 N 
ATOM      9  C   UNL     1       1.481   8.231  20.176  0.00  0.00    +0.000 C 
ATOM     10  O   UNL     1       1.263   7.389  21.037  0.00  0.00    +0.000 OA
ATOM     11  H   UNL     1       1.200  10.090  19.333  0.00  0.00    +0.000 HD
BRANCH   8  15
ATOM     12  C   UNL     1      -1.656  11.472  22.798  0.00  0.00    +0.000 A 
ATOM     13  C   UNL     1      -0.915  10.378  23.241  0.00  0.00    +0.000 A 
ATOM     14  C   UNL     1      -0.048   9.710  22.376  0.00  0.00    +0.000 A 
ATOM     15  C   UNL     1       0.078  10.122  21.054  0.00  0.00    +0.000 A 
ATOM     16  C   UNL     1      -0.691  11.203  20.601  0.00  0.00    +0.000 A 
ATOM     17  C   UNL     1      -1.561  11.873  21.467  0.00  0.00    +0.000 A 
BRANCH  12  18
ATOM     18  O   UNL     1      -2.442  12.058  23.747  0.00  0.00    +0.000 OA
BRANCH  18  20
ATOM     19  C   UNL     1      -4.652  12.598  24.422  0.00  0.00    +0.000 C 
ATOM     20  C   UNL     1      -3.658  12.637  23.278  0.00  0.00    +0.000 C 
ENDBRANCH  18  20
ENDBRANCH  12  18
ENDBRANCH   8  15
ENDBRANCH   7   9
ENDBRANCH   1   7
BRANCH   4  21
ATOM     21  C   UNL     1       5.001   4.121  17.902  0.00  0.00    +0.000 C 
BRANCH  21  22
ATOM     22  C   UNL     1       5.969   4.242  16.736  0.00  0.00    +0.000 C 
ATOM     23  O   UNL     1       7.178   4.286  16.952  0.00  0.00    +0.000 OA
ATOM     24  N   UNL     1       5.351   4.266  15.499  0.00  0.00    +0.000 N 
ATOM     25  H   UNL     1       4.351   4.439  15.517  0.00  0.00    +0.000 HD
BRANCH  24  26
ATOM     26  C   UNL     1       6.010   4.267  14.253  0.00  0.00    +0.000 A 
ATOM     27  C   UNL     1       5.609   3.450  13.188  0.00  0.00    +0.000 A 
ATOM     28  C   UNL     1       6.309   3.446  11.975  0.00  0.00    +0.000 A 
ATOM     29  C   UNL     1       7.411   4.275  11.817  0.00  0.00    +0.000 A 
ATOM     30  C   UNL     1       7.791   5.109  12.861  0.00  0.00    +0.000 A 
ATOM     31  F   UNL     1       8.852   5.913  12.704  0.00  0.00    +0.000 F 
ATOM     32  C   UNL     1       7.098   5.121  14.072  0.00  0.00    +0.000 A 
ENDBRANCH  24  26
ENDBRANCH  21  22
ENDBRANCH   4  21
TORSDOF 8
ENDMDL
MODEL 4
REMARK VINA RESULT:      -6.7      2.322      2.546
REMARK  Name = 
REMARK  9 active torsions:
REMARK  status: ('A' for Active; 'I' for Inactive)
REMARK    1  A    between atoms: C_1  and  C_2
REMARK    2  A    between atoms: C_2  and  O_3
REMARK    3  A    between atoms: O_3  and  C_4
REMARK    4  A    between atoms: C_7  and  N_8
REMARK    5  A    between atoms: C_9  and  C_11
REMARK    6  A    between atoms: C_11  and  N_12
REMARK    7  A    between atoms: N_15  and  C_16
REMARK    8  A    between atoms: C_16  and  C_17
REMARK    9  A    between atoms: N_19  and  C_20
REMARK                            x       y       z     vdW  Elec       q    Type
REMARK                         _______ _______ _______ _____ _____    ______ ____
ROOT
ATOM      1  N   UNL     1      -0.022   9.208  20.477  0.00  0.00    +0.000 NA
ATOM      2  C   UNL     1      -0.398   8.772  21.839  0.00  0.00    +0.000 C 
ATOM      3  C   UNL     1       0.122   9.712  22.965  0.00  0.00    +0.000 C 
ATOM      4  N   UNL     1      -0.294  11.130  22.825  0.00  0.00    +0.000 NA
ATOM      5  C   UNL     1      -0.006  11.578  21.436  0.00  0.00    +0.000 C 
ATOM      6  C   UNL     1      -0.447  10.617  20.305  0.00  0.00    +0.000 C 
ENDROOT
BRANCH   1   7
ATOM      7  C   UNL     1       1.427   8.988  20.297  0.00  0.00    +0.000 C 
BRANCH   7   9
ATOM      8  N   UNL     1       2.631   7.181  19.304  0.00  0.00    +0.000 N 
ATOM      9  C   UNL     1       1.863   8.304  18.996  0.00  0.00    +0.000 C 
ATOM     10  O   UNL     1       1.596   8.712  17.874  0.00  0.00    +0.000 OA
ATOM     11  H   UNL     1       2.741   6.958  20.285  0.00  0.00    +0.000 HD
BRANCH   8  15
ATOM     12  C   UNL     1       4.486   4.438  16.707  0.00  0.00    +0.000 A 
ATOM     13  C   UNL     1       4.985   5.735  16.804  0.00  0.00    +0.000 A 
ATOM     14  C   UNL     1       4.388   6.665  17.654  0.00  0.00    +0.000 A 
ATOM     15  C   UNL     1       3.276   6.311  18.409  0.00  0.00    +0.000 A 
ATOM     16  C   UNL     1       2.756   5.015  18.289  0.00  0.00    +0.000 A 
ATOM     17  C   UNL     1       3.353   4.083  17.436  0.00  0.00    +0.000 A 
BRANCH  12  18
ATOM     18  O   UNL     1       5.177   3.615  15.867  0.00  0.00    +0.000 OA
BRANCH  18  20
ATOM     19  C   UNL     1       6.051   3.938  13.684  0.00  0.00    +0.000 C 
ATOM     20  C   UNL     1       6.261   4.215  15.160  0.00  0.00    +0.000 C 
ENDBRANCH  18  20
ENDBRANCH  12  18
ENDBRANCH   8  15
ENDBRANCH   7   9
ENDBRANCH   1   7
BRANCH   4  21
ATOM     21  C   UNL     1      -1.738  11.209  23.157  0.00  0.00    +0.000 C 
BRANCH  21  22
ATOM     22  C   UNL     1      -2.320  12.603  22.985  0.00  0.00    +0.000 C 
ATOM     23  O   UNL     1      -3.217  12.790  22.165  0.00  0.00    +0.000 OA
ATOM     24  N   UNL     1      -1.765  13.546  23.830  0.00  0.00    +0.000 N 
ATOM     25  H   UNL     1      -0.898  13.269  24.280  0.00  0.00    +0.000 HD
BRANCH  24  26
ATOM     26  C   UNL     1      -2.188  14.885  23.955  0.00  0.00    +0.000 A 
ATOM     27  C   UNL     1      -3.153  15.287  24.888  0.00  0.00    +0.000 A 
ATOM     28  C   UNL     1      -3.579  16.618  24.960  0.00  0.00    +0.000 A 
ATOM     29  C   UNL     1      -3.029  17.562  24.104  0.00  0.00    +0.000 A 
ATOM     30  C   UNL     1      -2.048  17.172  23.200  0.00  0.00    +0.000 A 
ATOM     31  F   UNL     1      -1.513  18.086  22.379  0.00  0.00    +0.000 F 
ATOM     32  C   UNL     1      -1.616  15.847  23.122  0.00  0.00    +0.000 A 
ENDBRANCH  24  26
ENDBRANCH  21  22
ENDBRANCH   4  21
TORSDOF 8
ENDMDL
MODEL 5
REMARK VINA RESULT:      -6.6      4.984     12.419
REMARK  Name = 
REMARK  9 active torsions:
REMARK  status: ('A' for Active; 'I' for Inactive)
REMARK    1  A    between atoms: C_1  and  C_2
REMARK    2  A    between atoms: C_2  and  O_3
REMARK    3  A    between atoms: O_3  and  C_4
REMARK    4  A    between atoms: C_7  and  N_8
REMARK    5  A    between atoms: C_9  and  C_11
REMARK    6  A    between atoms: C_11  and  N_12
REMARK    7  A    between atoms: N_15  and  C_16
REMARK    8  A    between atoms: C_16  and  C_17
REMARK    9  A    between atoms: N_19  and  C_20
REMARK                            x       y       z     vdW  Elec       q    Type
REMARK                         _______ _______ _______ _____ _____    ______ ____
ROOT
ATOM      1  N   UNL     1       2.348   7.022  18.173  0.00  0.00    +0.000 NA
ATOM      2  C   UNL     1       3.477   6.897  17.225  0.00  0.00    +0.000 C 
ATOM      3  C   UNL     1       4.851   6.652  17.914  0.00  0.00    +0.000 C 
ATOM      4  N   UNL     1       4.889   5.465  18.805  0.00  0.00    +0.000 NA
ATOM      5  C   UNL     1       3.717   5.515  19.719  0.00  0.00    +0.000 C 
ATOM      6  C   UNL     1       2.353   5.836  19.060  0.00  0.00    +0.000 C 
ENDROOT
BRANCH   1   7
ATOM      7  C   UNL     1       2.471   8.309  18.883  0.00  0.00    +0.000 C 
BRANCH   7   9
ATOM      8  N   UNL     1       0.517   9.620  18.480  0.00  0.00    +0.000 N 
ATOM      9  C   UNL     1       1.184   8.898  19.470  0.00  0.00    +0.000 C 
ATOM     10  O   UNL     1       0.829   8.771  20.634  0.00  0.00    +0.000 OA
ATOM     11  H   UNL     1       0.925   9.609  17.553  0.00  0.00    +0.000 HD
BRANCH   8  15
ATOM     12  C   UNL     1      -2.969  11.912  19.032  0.00  0.00    +0.000 A 
ATOM     13  C   UNL     1      -2.960  10.898  18.077  0.00  0.00    +0.000 A 
ATOM     14  C   UNL     1      -1.818  10.125  17.870  0.00  0.00    +0.000 A 
ATOM     15  C   UNL     1      -0.665  10.366  18.611  0.00  0.00    +0.000 A 
ATOM     16  C   UNL     1      -0.665  11.406  19.551  0.00  0.00    +0.000 A 
ATOM     17  C   UNL     1      -1.809  12.182  19.757  0.00  0.00    +0.000 A 
BRANCH  12  18
ATOM     18  O   UNL     1      -4.154  12.574  19.160  0.00  0.00    +0.000 OA
BRANCH  18  20
ATOM     19  C   UNL     1      -6.113  11.892  20.315  0.00  0.00    +0.000 C 
ATOM     20  C   UNL     1      -5.330  11.778  19.022  0.00  0.00    +0.000 C 
ENDBRANCH  18  20
ENDBRANCH  12  18
ENDBRANCH   8  15
ENDBRANCH   7   9
ENDBRANCH   1   7
BRANCH   4  21
ATOM     21  C   UNL     1       4.885   4.258  17.944  0.00  0.00    +0.000 C 
BRANCH  21  22
ATOM     22  C   UNL     1       5.880   4.334  16.796  0.00  0.00    +0.000 C 
ATOM     23  O   UNL     1       7.085   4.348  17.037  0.00  0.00    +0.000 OA
ATOM     24  N   UNL     1       5.288   4.354  15.547  0.00  0.00    +0.000 N 
ATOM     25  H   UNL     1       4.292   4.554  15.541  0.00  0.00    +0.000 HD
BRANCH  24  26
ATOM     26  C   UNL     1       5.972   4.316  14.315  0.00  0.00    +0.000 A 
ATOM     27  C   UNL     1       5.588   3.471  13.265  0.00  0.00    +0.000 A 
ATOM     28  C   UNL     1       6.312   3.430  12.067  0.00  0.00    +0.000 A 
ATOM     29  C   UNL     1       7.422   4.248  11.908  0.00  0.00    +0.000 A 
ATOM     30  C   UNL     1       7.785   5.109  12.936  0.00  0.00    +0.000 A 
ATOM     31  F   UNL     1       8.854   5.903  12.778  0.00  0.00    +0.000 F 
ATOM     32  C   UNL     1       7.069   5.159  14.132  0.00  0.00    +0.000 A 
ENDBRANCH  24  26
ENDBRANCH  21  22
ENDBRANCH   4  21
TORSDOF 8
ENDMDL
MODEL 6
REMARK VINA RESULT:      -6.6      2.079      2.253
REMARK  Name = 
REMARK  9 active torsions:
REMARK  status: ('A' for Active; 'I' for Inactive)
REMARK    1  A    between atoms: C_1  and  C_2
REMARK    2  A    between atoms: C_2  and  O_3
REMARK    3  A    between atoms: O_3  and  C_4
REMARK    4  A    between atoms: C_7  and  N_8
REMARK    5  A    between atoms: C_9  and  C_11
REMARK    6  A    between atoms: C_11  and  N_12
REMARK    7  A    between atoms: N_15  and  C_16
REMARK    8  A    between atoms: C_16  and  C_17
REMARK    9  A    between atoms: N_19  and  C_20
REMARK                            x       y       z     vdW  Elec       q    Type
REMARK                         _______ _______ _______ _____ _____    ______ ____
ROOT
ATOM      1  N   UNL     1       0.410  10.753  19.129  0.00  0.00    +0.000 NA
ATOM      2  C   UNL     1      -0.723  10.903  20.067  0.00  0.00    +0.000 C 
ATOM      3  C   UNL     1      -0.298  11.317  21.506  0.00  0.00    +0.000 C 
ATOM      4  N   UNL     1       0.502  12.566  21.576  0.00  0.00    +0.000 NA
ATOM      5  C   UNL     1       1.606  12.484  20.582  0.00  0.00    +0.000 C 
ATOM      6  C   UNL     1       1.212  11.998  19.166  0.00  0.00    +0.000 C 
ENDROOT
BRANCH   1   7
ATOM      7  C   UNL     1       1.163   9.538  19.495  0.00  0.00    +0.000 C 
BRANCH   7   9
ATOM      8  N   UNL     1       2.331   7.568  18.818  0.00  0.00    +0.000 N 
ATOM      9  C   UNL     1       1.888   8.809  18.358  0.00  0.00    +0.000 C 
ATOM     10  O   UNL     1       2.067   9.271  17.239  0.00  0.00    +0.000 OA
ATOM     11  H   UNL     1       2.079   7.316  19.765  0.00  0.00    +0.000 HD
BRANCH   8  15
ATOM     12  C   UNL     1       4.531   4.584  16.826  0.00  0.00    +0.000 A 
ATOM     13  C   UNL     1       4.929   5.915  16.719  0.00  0.00    +0.000 A 
ATOM     14  C   UNL     1       4.217   6.925  17.366  0.00  0.00    +0.000 A 
ATOM     15  C   UNL     1       3.089   6.615  18.119  0.00  0.00    +0.000 A 
ATOM     16  C   UNL     1       2.671   5.279  18.201  0.00  0.00    +0.000 A 
ATOM     17  C   UNL     1       3.384   4.267  17.552  0.00  0.00    +0.000 A 
BRANCH  12  18
ATOM     18  O   UNL     1       5.328   3.690  16.174  0.00  0.00    +0.000 OA
BRANCH  18  20
ATOM     19  C   UNL     1       6.152   3.933  13.961  0.00  0.00    +0.000 C 
ATOM     20  C   UNL     1       6.404   4.247  15.423  0.00  0.00    +0.000 C 
ENDBRANCH  18  20
ENDBRANCH  12  18
ENDBRANCH   8  15
ENDBRANCH   7   9
ENDBRANCH   1   7
BRANCH   4  21
ATOM     21  C   UNL     1      -0.416  13.701  21.310  0.00  0.00    +0.000 C 
BRANCH  21  22
ATOM     22  C   UNL     1      -1.128  14.203  22.556  0.00  0.00    +0.000 C 
ATOM     23  O   UNL     1      -0.820  13.750  23.657  0.00  0.00    +0.000 OA
ATOM     24  N   UNL     1      -2.074  15.179  22.302  0.00  0.00    +0.000 N 
ATOM     25  H   UNL     1      -2.349  15.274  21.329  0.00  0.00    +0.000 HD
BRANCH  24  26
ATOM     26  C   UNL     1      -2.802  15.890  23.277  0.00  0.00    +0.000 A 
ATOM     27  C   UNL     1      -2.206  16.828  24.130  0.00  0.00    +0.000 A 
ATOM     28  C   UNL     1      -2.951  17.488  25.114  0.00  0.00    +0.000 A 
ATOM     29  C   UNL     1      -4.307  17.221  25.242  0.00  0.00    +0.000 A 
ATOM     30  C   UNL     1      -4.907  16.314  24.377  0.00  0.00    +0.000 A 
ATOM     31  F   UNL     1      -6.218  16.063  24.498  0.00  0.00    +0.000 F 
ATOM     32  C   UNL     1      -4.173  15.653  23.391  0.00  0.00    +0.000 A 
ENDBRANCH  24  26
ENDBRANCH  21  22
ENDBRANCH   4  21
TORSDOF 8
ENDMDL
MODEL 7
REMARK VINA RESULT:      -6.6      2.322      2.644
REMARK  Name = 
REMARK  9 active torsions:
REMARK  status: ('A' for Active; 'I' for Inactive)
REMARK    1  A    between atoms: C_1  and  C_2
REMARK    2  A    between atoms: C_2  and  O_3
REMARK    3  A    between atoms: O_3  and  C_4
REMARK    4  A    between atoms: C_7  and  N_8
REMARK    5  A    between atoms: C_9  and  C_11
REMARK    6  A    between atoms: C_11  and  N_12
REMARK    7  A    between atoms: N_15  and  C_16
REMARK    8  A    between atoms: C_16  and  C_17
REMARK    9  A    between atoms: N_19  and  C_20
REMARK                            x       y       z     vdW  Elec       q    Type
REMARK                         _______ _______ _______ _____ _____    ______ ____
ROOT
ATOM      1  N   UNL     1      -0.204   9.574  19.618  0.00  0.00    +0.000 NA
ATOM      2  C   UNL     1      -0.606  10.008  20.974  0.00  0.00    +0.000 C 
ATOM      3  C   UNL     1      -0.422  11.532  21.226  0.00  0.00    +0.000 C 
ATOM      4  N   UNL     1      -1.127  12.406  20.255  0.00  0.00    +0.000 NA
ATOM      5  C   UNL     1      -0.811  11.945  18.877  0.00  0.00    +0.000 C 
ATOM      6  C   UNL     1      -0.913  10.420  18.630  0.00  0.00    +0.000 C 
ENDROOT
BRANCH   1   7
ATOM      7  C   UNL     1       1.268   9.637  19.523  0.00  0.00    +0.000 C 
BRANCH   7   9
ATOM      8  N   UNL     1       2.411   7.654  18.845  0.00  0.00    +0.000 N 
ATOM      9  C   UNL     1       1.916   8.868  18.367  0.00  0.00    +0.000 C 
ATOM     10  O   UNL     1       2.005   9.283  17.219  0.00  0.00    +0.000 OA
ATOM     11  H   UNL     1       2.234   7.440  19.819  0.00  0.00    +0.000 HD
BRANCH   8  15
ATOM     12  C   UNL     1       4.480   4.609  16.805  0.00  0.00    +0.000 A 
ATOM     13  C   UNL     1       4.966   5.914  16.764  0.00  0.00    +0.000 A 
ATOM     14  C   UNL     1       4.299   6.943  17.429  0.00  0.00    +0.000 A 
ATOM     15  C   UNL     1       3.129   6.680  18.133  0.00  0.00    +0.000 A 
ATOM     16  C   UNL     1       2.623   5.373  18.148  0.00  0.00    +0.000 A 
ATOM     17  C   UNL     1       3.291   4.341  17.481  0.00  0.00    +0.000 A 
BRANCH  12  18
ATOM     18  O   UNL     1       5.239   3.690  16.143  0.00  0.00    +0.000 OA
BRANCH  18  20
ATOM     19  C   UNL     1       6.089   3.899  13.937  0.00  0.00    +0.000 C 
ATOM     20  C   UNL     1       6.339   4.210  15.400  0.00  0.00    +0.000 C 
ENDBRANCH  18  20
ENDBRANCH  12  18
ENDBRANCH   8  15
ENDBRANCH   7   9
ENDBRANCH   1   7
BRANCH   4  21
ATOM     21  C   UNL     1      -2.578  12.333  20.558  0.00  0.00    +0.000 C 
BRANCH  21  22
ATOM     22  C   UNL     1      -2.943  12.933  21.906  0.00  0.00    +0.000 C 
ATOM     23  O   UNL     1      -3.582  12.265  22.716  0.00  0.00    +0.000 OA
ATOM     24  N   UNL     1      -2.469  14.219  22.090  0.00  0.00    +0.000 N 
ATOM     25  H   UNL     1      -2.154  14.690  21.247  0.00  0.00    +0.000 HD
BRANCH  24  26
ATOM     26  C   UNL     1      -2.570  14.969  23.279  0.00  0.00    +0.000 A 
ATOM     27  C   UNL     1      -3.626  15.856  23.524  0.00  0.00    +0.000 A 
ATOM     28  C   UNL     1      -3.677  16.615  24.699  0.00  0.00    +0.000 A 
ATOM     29  C   UNL     1      -2.673  16.479  25.647  0.00  0.00    +0.000 A 
ATOM     30  C   UNL     1      -1.641  15.576  25.421  0.00  0.00    +0.000 A 
ATOM     31  F   UNL     1      -0.676  15.441  26.341  0.00  0.00    +0.000 F 
ATOM     32  C   UNL     1      -1.583  14.813  24.254  0.00  0.00    +0.000 A 
ENDBRANCH  24  26
ENDBRANCH  21  22
ENDBRANCH   4  21
TORSDOF 8
ENDMDL
MODEL 8
REMARK VINA RESULT:      -6.5      4.616     12.610
REMARK  Name = 
REMARK  9 active torsions:
REMARK  status: ('A' for Active; 'I' for Inactive)
REMARK    1  A    between atoms: C_1  and  C_2
REMARK    2  A    between atoms: C_2  and  O_3
REMARK    3  A    between atoms: O_3  and  C_4
REMARK    4  A    between atoms: C_7  and  N_8
REMARK    5  A    between atoms: C_9  and  C_11
REMARK    6  A    between atoms: C_11  and  N_12
REMARK    7  A    between atoms: N_15  and  C_16
REMARK    8  A    between atoms: C_16  and  C_17
REMARK    9  A    between atoms: N_19  and  C_20
REMARK                            x       y       z     vdW  Elec       q    Type
REMARK                         _______ _______ _______ _____ _____    ______ ____
ROOT
ATOM      1  N   UNL     1       1.891   5.248  19.632  0.00  0.00    +0.000 NA
ATOM      2  C   UNL     1       2.579   5.796  18.443  0.00  0.00    +0.000 C 
ATOM      3  C   UNL     1       4.131   5.755  18.542  0.00  0.00    +0.000 C 
ATOM      4  N   UNL     1       4.696   4.406  18.796  0.00  0.00    +0.000 NA
ATOM      5  C   UNL     1       3.968   3.789  19.937  0.00  0.00    +0.000 C 
ATOM      6  C   UNL     1       2.424   3.891  19.893  0.00  0.00    +0.000 C 
ENDROOT
BRANCH   1   7
ATOM      7  C   UNL     1       2.065   6.192  20.753  0.00  0.00    +0.000 C 
BRANCH   7   9
ATOM      8  N   UNL     1       0.736   8.013  21.536  0.00  0.00    +0.000 N 
ATOM      9  C   UNL     1       1.608   7.635  20.515  0.00  0.00    +0.000 C 
ATOM     10  O   UNL     1       1.942   8.322  19.559  0.00  0.00    +0.000 OA
ATOM     11  H   UNL     1       0.579   7.340  22.276  0.00  0.00    +0.000 HD
BRANCH   8  15
ATOM     12  C   UNL     1      -1.401  11.597  22.086  0.00  0.00    +0.000 A 
ATOM     13  C   UNL     1      -0.969  11.246  20.809  0.00  0.00    +0.000 A 
ATOM     14  C   UNL     1      -0.256  10.066  20.598  0.00  0.00    +0.000 A 
ATOM     15  C   UNL     1       0.043   9.228  21.667  0.00  0.00    +0.000 A 
ATOM     16  C   UNL     1      -0.366   9.596  22.956  0.00  0.00    +0.000 A 
ATOM     17  C   UNL     1      -1.079  10.780  23.168  0.00  0.00    +0.000 A 
BRANCH  12  18
ATOM     18  O   UNL     1      -2.115  12.757  22.155  0.00  0.00    +0.000 OA
BRANCH  18  20
ATOM     19  C   UNL     1      -3.600  13.459  23.868  0.00  0.00    +0.000 C 
ATOM     20  C   UNL     1      -3.463  12.633  22.604  0.00  0.00    +0.000 C 
ENDBRANCH  18  20
ENDBRANCH  12  18
ENDBRANCH   8  15
ENDBRANCH   7   9
ENDBRANCH   1   7
BRANCH   4  21
ATOM     21  C   UNL     1       4.560   3.620  17.545  0.00  0.00    +0.000 C 
BRANCH  21  22
ATOM     22  C   UNL     1       5.630   3.941  16.513  0.00  0.00    +0.000 C 
ATOM     23  O   UNL     1       6.783   4.157  16.880  0.00  0.00    +0.000 OA
ATOM     24  N   UNL     1       5.168   3.928  15.210  0.00  0.00    +0.000 N 
ATOM     25  H   UNL     1       4.157   3.946  15.108  0.00  0.00    +0.000 HD
BRANCH  24  26
ATOM     26  C   UNL     1       5.962   4.086  14.057  0.00  0.00    +0.000 A 
ATOM     27  C   UNL     1       5.744   3.352  12.884  0.00  0.00    +0.000 A 
ATOM     28  C   UNL     1       6.576   3.505  11.769  0.00  0.00    +0.000 A 
ATOM     29  C   UNL     1       7.628   4.409  11.816  0.00  0.00    +0.000 A 
ATOM     30  C   UNL     1       7.826   5.161  12.967  0.00  0.00    +0.000 A 
ATOM     31  F   UNL     1       8.839   6.038  13.009  0.00  0.00    +0.000 F 
ATOM     32  C   UNL     1       7.002   5.017  14.083  0.00  0.00    +0.000 A 
ENDBRANCH  24  26
ENDBRANCH  21  22
ENDBRANCH   4  21
TORSDOF 8
ENDMDL
MODEL 9
REMARK VINA RESULT:      -6.5      7.940     11.132
REMARK  Name = 
REMARK  9 active torsions:
REMARK  status: ('A' for Active; 'I' for Inactive)
REMARK    1  A    between atoms: C_1  and  C_2
REMARK    2  A    between atoms: C_2  and  O_3
REMARK    3  A    between atoms: O_3  and  C_4
REMARK    4  A    between atoms: C_7  and  N_8
REMARK    5  A    between atoms: C_9  and  C_11
REMARK    6  A    between atoms: C_11  and  N_12
REMARK    7  A    between atoms: N_15  and  C_16
REMARK    8  A    between atoms: C_16  and  C_17
REMARK    9  A    between atoms: N_19  and  C_20
REMARK                            x       y       z     vdW  Elec       q    Type
REMARK                         _______ _______ _______ _____ _____    ______ ____
ROOT
ATOM      1  N   UNL     1       6.514   7.005  17.742  0.00  0.00    +0.000 NA
ATOM      2  C   UNL     1       6.344   6.847  16.282  0.00  0.00    +0.000 C 
ATOM      3  C   UNL     1       7.088   5.615  15.692  0.00  0.00    +0.000 C 
ATOM      4  N   UNL     1       6.729   4.319  16.321  0.00  0.00    +0.000 NA
ATOM      5  C   UNL     1       6.809   4.466  17.799  0.00  0.00    +0.000 C 
ATOM      6  C   UNL     1       6.140   5.729  18.395  0.00  0.00    +0.000 C 
ENDROOT
BRANCH   1   7
ATOM      7  C   UNL     1       7.900   7.437  18.009  0.00  0.00    +0.000 C 
BRANCH   7   9
ATOM      8  N   UNL     1       9.081   9.209  19.087  0.00  0.00    +0.000 N 
ATOM      9  C   UNL     1       8.149   8.947  18.082  0.00  0.00    +0.000 C 
ATOM     10  O   UNL     1       7.587   9.779  17.383  0.00  0.00    +0.000 OA
ATOM     11  H   UNL     1       9.479   8.409  19.561  0.00  0.00    +0.000 HD
BRANCH   8  15
ATOM     12  C   UNL     1      10.586  12.959  20.266  0.00  0.00    +0.000 A 
ATOM     13  C   UNL     1       9.790  12.231  21.149  0.00  0.00    +0.000 A 
ATOM     14  C   UNL     1       9.276  10.988  20.783  0.00  0.00    +0.000 A 
ATOM     15  C   UNL     1       9.543  10.462  19.524  0.00  0.00    +0.000 A 
ATOM     16  C   UNL     1      10.317  11.208  18.624  0.00  0.00    +0.000 A 
ATOM     17  C   UNL     1      10.832  12.455  18.990  0.00  0.00    +0.000 A 
BRANCH  12  18
ATOM     18  O   UNL     1      11.053  14.144  20.753  0.00  0.00    +0.000 OA
BRANCH  18  20
ATOM     19  C   UNL     1       9.547  15.915  20.278  0.00  0.00    +0.000 C 
ATOM     20  C   UNL     1      10.873  15.279  19.910  0.00  0.00    +0.000 C 
ENDBRANCH  18  20
ENDBRANCH  12  18
ENDBRANCH   8  15
ENDBRANCH   7   9
ENDBRANCH   1   7
BRANCH   4  21
ATOM     21  C   UNL     1       5.365   3.961  15.861  0.00  0.00    +0.000 C 
BRANCH  21  22
ATOM     22  C   UNL     1       4.461   3.470  16.981  0.00  0.00    +0.000 C 
ATOM     23  O   UNL     1       4.687   2.385  17.513  0.00  0.00    +0.000 OA
ATOM     24  N   UNL     1       3.451   4.355  17.310  0.00  0.00    +0.000 N 
ATOM     25  H   UNL     1       3.282   5.092  16.632  0.00  0.00    +0.000 HD
BRANCH  24  26
ATOM     26  C   UNL     1       2.540   4.202  18.374  0.00  0.00    +0.000 A 
ATOM     27  C   UNL     1       1.674   3.105  18.474  0.00  0.00    +0.000 A 
ATOM     28  C   UNL     1       0.754   3.003  19.524  0.00  0.00    +0.000 A 
ATOM     29  C   UNL     1       0.705   3.996  20.493  0.00  0.00    +0.000 A 
ATOM     30  C   UNL     1       1.585   5.068  20.413  0.00  0.00    +0.000 A 
ATOM     31  F   UNL     1       1.542   6.022  21.353  0.00  0.00    +0.000 F 
ATOM     32  C   UNL     1       2.507   5.178  19.372  0.00  0.00    +0.000 A 
ENDBRANCH  24  26
ENDBRANCH  21  22
ENDBRANCH   4  21
TORSDOF 8
ENDMDL
