MODEL 1
REMARK VINA RESULT:      -7.5      0.000      0.000
REMARK  Name = 
REMARK  14 active torsions:
REMARK  status: ('A' for Active; 'I' for Inactive)
REMARK    1  A    between atoms: C_1  and  C_2
REMARK    2  A    between atoms: C_2  and  C_3
REMARK    3  A    between atoms: C_3  and  C_4
REMARK    4  A    between atoms: C_4  and  C_5
REMARK    5  A    between atoms: C_5  and  C_6
REMARK    6  A    between atoms: C_6  and  C_7
REMARK    7  A    between atoms: C_8  and  C_9
REMARK    8  A    between atoms: C_14  and  C_15
REMARK    9  A    between atoms: C_15  and  C_16
REMARK   10  A    between atoms: C_17  and  C_18
REMARK   11  A    between atoms: C_18  and  C_19
REMARK   12  A    between atoms: C_19  and  C_20
REMARK   13  A    between atoms: C_20  and  C_21
REMARK   14  A    between atoms: C_21  and  O_23
REMARK                            x       y       z     vdW  Elec       q    Type
REMARK                         _______ _______ _______ _____ _____    ______ ____
ROOT
ATOM      1  C   UNL     1       5.992   4.956  16.059  0.00  0.00    +0.000 C 
ATOM      2  C   UNL     1       7.229   5.058  16.929  0.00  0.00    +0.000 C 
ATOM      3  O   UNL     1       8.130   4.245  16.999  0.00  0.00    +0.000 OA
ATOM      4  C   UNL     1       7.255   6.325  17.680  0.00  0.00    +0.000 C 
ATOM      5  C   UNL     1       6.094   6.929  17.441  0.00  0.00    +0.000 C 
ATOM      6  C   UNL     1       5.137   6.133  16.588  0.00  0.00    +0.000 C 
ENDROOT
BRANCH   1   8
ATOM      7  C   UNL     1       6.658   4.082  13.796  0.00  0.00    +0.000 C 
ATOM      8  C   UNL     1       6.403   5.111  14.617  0.00  0.00    +0.000 C 
BRANCH   7   9
ATOM      9  C   UNL     1       7.050   4.257  12.358  0.00  0.00    +0.000 C 
BRANCH   9  10
ATOM     10  C   UNL     1       6.647   3.028  11.548  0.00  0.00    +0.000 C 
BRANCH  10  11
ATOM     11  C   UNL     1       5.247   2.557  11.932  0.00  0.00    +0.000 C 
BRANCH  11  12
ATOM     12  C   UNL     1       4.202   3.610  11.573  0.00  0.00    +0.000 C 
BRANCH  12  14
ATOM     13  C   UNL     1       2.982   4.170   9.453  0.00  0.00    +0.000 C 
ATOM     14  C   UNL     1       3.261   3.095  10.491  0.00  0.00    +0.000 C 
ENDBRANCH  12  14
ENDBRANCH  11  12
ENDBRANCH  10  11
ENDBRANCH   9  10
ENDBRANCH   7   9
ENDBRANCH   1   8
BRANCH   6  15
ATOM     15  C   UNL     1       3.961   5.607  17.428  0.00  0.00    +0.000 C 
BRANCH  15  16
ATOM     16  C   UNL     1       3.099   6.704  17.994  0.00  0.00    +0.000 C 
ATOM     17  C   UNL     1       2.557   6.709  19.220  0.00  0.00    +0.000 C 
BRANCH  17  18
ATOM     18  C   UNL     1       2.693   5.591  20.213  0.00  0.00    +0.000 C 
BRANCH  18  19
ATOM     19  C   UNL     1       1.508   4.636  20.193  0.00  0.00    +0.000 C 
BRANCH  19  20
ATOM     20  C   UNL     1       1.919   3.220  19.784  0.00  0.00    +0.000 C 
BRANCH  20  21
ATOM     21  C   UNL     1       1.175   2.774  18.554  0.00  0.00    +0.000 C 
ATOM     22  O   UNL     1       0.155   2.106  18.545  0.00  0.00    +0.000 OA
BRANCH  21  23
ATOM     23  O   UNL     1       1.766   3.211  17.415  0.00  0.00    +0.000 OA
ATOM     24  H   UNL     1       1.255   3.893  16.942  0.00  0.00    +0.000 HD
ENDBRANCH  21  23
ENDBRANCH  20  21
ENDBRANCH  19  20
ENDBRANCH  18  19
ENDBRANCH  17  18
ENDBRANCH  15  16
ENDBRANCH   6  15
TORSDOF 13
ENDMDL
MODEL 2
REMARK VINA RESULT:      -7.4      1.747      2.296
REMARK  Name = 
REMARK  14 active torsions:
REMARK  status: ('A' for Active; 'I' for Inactive)
REMARK    1  A    between atoms: C_1  and  C_2
REMARK    2  A    between atoms: C_2  and  C_3
REMARK    3  A    between atoms: C_3  and  C_4
REMARK    4  A    between atoms: C_4  and  C_5
REMARK    5  A    between atoms: C_5  and  C_6
REMARK    6  A    between atoms: C_6  and  C_7
REMARK    7  A    between atoms: C_8  and  C_9
REMARK    8  A    between atoms: C_14  and  C_15
REMARK    9  A    between atoms: C_15  and  C_16
REMARK   10  A    between atoms: C_17  and  C_18
REMARK   11  A    between atoms: C_18  and  C_19
REMARK   12  A    between atoms: C_19  and  C_20
REMARK   13  A    between atoms: C_20  and  C_21
REMARK   14  A    between atoms: C_21  and  O_23
REMARK                            x       y       z     vdW  Elec       q    Type
REMARK                         _______ _______ _______ _____ _____    ______ ____
ROOT
ATOM      1  C   UNL     1       5.962   4.131  16.597  0.00  0.00    +0.000 C 
ATOM      2  C   UNL     1       6.991   4.900  17.402  0.00  0.00    +0.000 C 
ATOM      3  O   UNL     1       8.042   4.465  17.833  0.00  0.00    +0.000 OA
ATOM      4  C   UNL     1       6.594   6.308  17.576  0.00  0.00    +0.000 C 
ATOM      5  C   UNL     1       5.372   6.421  17.065  0.00  0.00    +0.000 C 
ATOM      6  C   UNL     1       4.778   5.127  16.569  0.00  0.00    +0.000 C 
ENDROOT
BRANCH   1   8
ATOM      7  C   UNL     1       6.071   4.372  14.095  0.00  0.00    +0.000 C 
ATOM      8  C   UNL     1       6.537   3.840  15.235  0.00  0.00    +0.000 C 
BRANCH   7   9
ATOM      9  C   UNL     1       6.667   4.081  12.749  0.00  0.00    +0.000 C 
BRANCH   9  10
ATOM     10  C   UNL     1       5.934   2.919  12.086  0.00  0.00    +0.000 C 
BRANCH  10  11
ATOM     11  C   UNL     1       4.424   3.144  12.105  0.00  0.00    +0.000 C 
BRANCH  11  12
ATOM     12  C   UNL     1       4.012   4.153  11.036  0.00  0.00    +0.000 C 
BRANCH  12  14
ATOM     13  C   UNL     1       2.646   4.522   8.964  0.00  0.00    +0.000 C 
ATOM     14  C   UNL     1       3.051   3.523  10.035  0.00  0.00    +0.000 C 
ENDBRANCH  12  14
ENDBRANCH  11  12
ENDBRANCH  10  11
ENDBRANCH   9  10
ENDBRANCH   7   9
ENDBRANCH   1   8
BRANCH   6  15
ATOM     15  C   UNL     1       3.651   4.648  17.499  0.00  0.00    +0.000 C 
BRANCH  15  16
ATOM     16  C   UNL     1       2.791   3.574  16.887  0.00  0.00    +0.000 C 
ATOM     17  C   UNL     1       2.393   2.454  17.506  0.00  0.00    +0.000 C 
BRANCH  17  18
ATOM     18  C   UNL     1       2.783   2.072  18.905  0.00  0.00    +0.000 C 
BRANCH  18  19
ATOM     19  C   UNL     1       1.600   2.040  19.861  0.00  0.00    +0.000 C 
BRANCH  19  20
ATOM     20  C   UNL     1       1.118   3.445  20.225  0.00  0.00    +0.000 C 
BRANCH  20  21
ATOM     21  C   UNL     1       2.007   4.071  21.266  0.00  0.00    +0.000 C 
ATOM     22  O   UNL     1       2.360   5.238  21.288  0.00  0.00    +0.000 OA
BRANCH  21  23
ATOM     23  O   UNL     1       2.386   3.179  22.214  0.00  0.00    +0.000 OA
ATOM     24  H   UNL     1       1.642   2.785  22.704  0.00  0.00    +0.000 HD
ENDBRANCH  21  23
ENDBRANCH  20  21
ENDBRANCH  19  20
ENDBRANCH  18  19
ENDBRANCH  17  18
ENDBRANCH  15  16
ENDBRANCH   6  15
TORSDOF 13
ENDMDL
MODEL 3
REMARK VINA RESULT:      -7.4      0.876      1.212
REMARK  Name = 
REMARK  14 active torsions:
REMARK  status: ('A' for Active; 'I' for Inactive)
REMARK    1  A    between atoms: C_1  and  C_2
REMARK    2  A    between atoms: C_2  and  C_3
REMARK    3  A    between atoms: C_3  and  C_4
REMARK    4  A    between atoms: C_4  and  C_5
REMARK    5  A    between atoms: C_5  and  C_6
REMARK    6  A    between atoms: C_6  and  C_7
REMARK    7  A    between atoms: C_8  and  C_9
REMARK    8  A    between atoms: C_14  and  C_15
REMARK    9  A    between atoms: C_15  and  C_16
REMARK   10  A    between atoms: C_17  and  C_18
REMARK   11  A    between atoms: C_18  and  C_19
REMARK   12  A    between atoms: C_19  and  C_20
REMARK   13  A    between atoms: C_20  and  C_21
REMARK   14  A    between atoms: C_21  and  O_23
REMARK                            x       y       z     vdW  Elec       q    Type
REMARK                         _______ _______ _______ _____ _____    ______ ____
ROOT
ATOM      1  C   UNL     1       5.581   4.926  16.276  0.00  0.00    +0.000 C 
ATOM      2  C   UNL     1       7.017   5.077  16.737  0.00  0.00    +0.000 C 
ATOM      3  O   UNL     1       7.869   4.209  16.737  0.00  0.00    +0.000 OA
ATOM      4  C   UNL     1       7.304   6.459  17.158  0.00  0.00    +0.000 C 
ATOM      5  C   UNL     1       6.147   7.114  17.115  0.00  0.00    +0.000 C 
ATOM      6  C   UNL     1       4.958   6.263  16.746  0.00  0.00    +0.000 C 
ENDROOT
BRANCH   1   8
ATOM      7  C   UNL     1       6.675   4.578  14.038  0.00  0.00    +0.000 C 
ATOM      8  C   UNL     1       5.571   4.750  14.780  0.00  0.00    +0.000 C 
BRANCH   7   9
ATOM      9  C   UNL     1       6.642   4.387  12.550  0.00  0.00    +0.000 C 
BRANCH   9  10
ATOM     10  C   UNL     1       6.691   2.902  12.206  0.00  0.00    +0.000 C 
BRANCH  10  11
ATOM     11  C   UNL     1       5.325   2.404  11.741  0.00  0.00    +0.000 C 
BRANCH  11  12
ATOM     12  C   UNL     1       4.404   3.575  11.410  0.00  0.00    +0.000 C 
BRANCH  12  14
ATOM     13  C   UNL     1       2.898   4.292   9.536  0.00  0.00    +0.000 C 
ATOM     14  C   UNL     1       3.302   3.146  10.448  0.00  0.00    +0.000 C 
ENDBRANCH  12  14
ENDBRANCH  11  12
ENDBRANCH  10  11
ENDBRANCH   9  10
ENDBRANCH   7   9
ENDBRANCH   1   8
BRANCH   6  15
ATOM     15  C   UNL     1       4.050   6.033  17.965  0.00  0.00    +0.000 C 
BRANCH  15  16
ATOM     16  C   UNL     1       4.607   5.029  18.940  0.00  0.00    +0.000 C 
ATOM     17  C   UNL     1       3.924   4.465  19.946  0.00  0.00    +0.000 C 
BRANCH  17  18
ATOM     18  C   UNL     1       2.496   4.781  20.286  0.00  0.00    +0.000 C 
BRANCH  18  19
ATOM     19  C   UNL     1       1.617   3.541  20.359  0.00  0.00    +0.000 C 
BRANCH  19  20
ATOM     20  C   UNL     1       0.951   3.229  19.018  0.00  0.00    +0.000 C 
BRANCH  20  21
ATOM     21  C   UNL     1       1.927   2.593  18.064  0.00  0.00    +0.000 C 
ATOM     22  O   UNL     1       2.255   3.045  16.980  0.00  0.00    +0.000 OA
BRANCH  21  23
ATOM     23  O   UNL     1       2.428   1.431  18.548  0.00  0.00    +0.000 OA
ATOM     24  H   UNL     1       1.802   0.933  19.105  0.00  0.00    +0.000 HD
ENDBRANCH  21  23
ENDBRANCH  20  21
ENDBRANCH  19  20
ENDBRANCH  18  19
ENDBRANCH  17  18
ENDBRANCH  15  16
ENDBRANCH   6  15
TORSDOF 13
ENDMDL
MODEL 4
REMARK VINA RESULT:      -7.4      1.458      1.651
REMARK  Name = 
REMARK  14 active torsions:
REMARK  status: ('A' for Active; 'I' for Inactive)
REMARK    1  A    between atoms: C_1  and  C_2
REMARK    2  A    between atoms: C_2  and  C_3
REMARK    3  A    between atoms: C_3  and  C_4
REMARK    4  A    between atoms: C_4  and  C_5
REMARK    5  A    between atoms: C_5  and  C_6
REMARK    6  A    between atoms: C_6  and  C_7
REMARK    7  A    between atoms: C_8  and  C_9
REMARK    8  A    between atoms: C_14  and  C_15
REMARK    9  A    between atoms: C_15  and  C_16
REMARK   10  A    between atoms: C_17  and  C_18
REMARK   11  A    between atoms: C_18  and  C_19
REMARK   12  A    between atoms: C_19  and  C_20
REMARK   13  A    between atoms: C_20  and  C_21
REMARK   14  A    between atoms: C_21  and  O_23
REMARK                            x       y       z     vdW  Elec       q    Type
REMARK                         _______ _______ _______ _____ _____    ______ ____
ROOT
ATOM      1  C   UNL     1       5.552   4.114  16.720  0.00  0.00    +0.000 C 
ATOM      2  C   UNL     1       6.504   4.826  17.661  0.00  0.00    +0.000 C 
ATOM      3  O   UNL     1       7.474   4.339  18.210  0.00  0.00    +0.000 OA
ATOM      4  C   UNL     1       6.147   6.247  17.812  0.00  0.00    +0.000 C 
ATOM      5  C   UNL     1       5.003   6.420  17.157  0.00  0.00    +0.000 C 
ATOM      6  C   UNL     1       4.422   5.160  16.565  0.00  0.00    +0.000 C 
ENDROOT
BRANCH   1   8
ATOM      7  C   UNL     1       5.849   4.203  14.224  0.00  0.00    +0.000 C 
ATOM      8  C   UNL     1       6.279   3.817  15.434  0.00  0.00    +0.000 C 
BRANCH   7   9
ATOM      9  C   UNL     1       6.596   3.912  12.955  0.00  0.00    +0.000 C 
BRANCH   9  10
ATOM     10  C   UNL     1       5.750   3.038  12.034  0.00  0.00    +0.000 C 
BRANCH  10  11
ATOM     11  C   UNL     1       4.594   3.835  11.435  0.00  0.00    +0.000 C 
BRANCH  11  12
ATOM     12  C   UNL     1       3.444   2.912  11.041  0.00  0.00    +0.000 C 
BRANCH  12  14
ATOM     13  C   UNL     1       2.702   4.680   9.422  0.00  0.00    +0.000 C 
ATOM     14  C   UNL     1       2.980   3.198   9.618  0.00  0.00    +0.000 C 
ENDBRANCH  12  14
ENDBRANCH  11  12
ENDBRANCH  10  11
ENDBRANCH   9  10
ENDBRANCH   7   9
ENDBRANCH   1   8
BRANCH   6  15
ATOM     15  C   UNL     1       3.171   4.717  17.340  0.00  0.00    +0.000 C 
BRANCH  15  16
ATOM     16  C   UNL     1       2.468   5.854  18.033  0.00  0.00    +0.000 C 
ATOM     17  C   UNL     1       2.389   6.023  19.361  0.00  0.00    +0.000 C 
BRANCH  17  18
ATOM     18  C   UNL     1       2.958   5.070  20.373  0.00  0.00    +0.000 C 
BRANCH  18  19
ATOM     19  C   UNL     1       2.078   3.849  20.596  0.00  0.00    +0.000 C 
BRANCH  19  20
ATOM     20  C   UNL     1       2.897   2.613  20.972  0.00  0.00    +0.000 C 
BRANCH  20  21
ATOM     21  C   UNL     1       3.730   2.141  19.810  0.00  0.00    +0.000 C 
ATOM     22  O   UNL     1       3.298   1.644  18.783  0.00  0.00    +0.000 OA
BRANCH  21  23
ATOM     23  O   UNL     1       5.054   2.336  20.020  0.00  0.00    +0.000 OA
ATOM     24  H   UNL     1       5.252   3.059  20.643  0.00  0.00    +0.000 HD
ENDBRANCH  21  23
ENDBRANCH  20  21
ENDBRANCH  19  20
ENDBRANCH  18  19
ENDBRANCH  17  18
ENDBRANCH  15  16
ENDBRANCH   6  15
TORSDOF 13
ENDMDL
MODEL 5
REMARK VINA RESULT:      -7.3      3.737      7.093
REMARK  Name = 
REMARK  14 active torsions:
REMARK  status: ('A' for Active; 'I' for Inactive)
REMARK    1  A    between atoms: C_1  and  C_2
REMARK    2  A    between atoms: C_2  and  C_3
REMARK    3  A    between atoms: C_3  and  C_4
REMARK    4  A    between atoms: C_4  and  C_5
REMARK    5  A    between atoms: C_5  and  C_6
REMARK    6  A    between atoms: C_6  and  C_7
REMARK    7  A    between atoms: C_8  and  C_9
REMARK    8  A    between atoms: C_14  and  C_15
REMARK    9  A    between atoms: C_15  and  C_16
REMARK   10  A    between atoms: C_17  and  C_18
REMARK   11  A    between atoms: C_18  and  C_19
REMARK   12  A    between atoms: C_19  and  C_20
REMARK   13  A    between atoms: C_20  and  C_21
REMARK   14  A    between atoms: C_21  and  O_23
REMARK                            x       y       z     vdW  Elec       q    Type
REMARK                         _______ _______ _______ _____ _____    ______ ____
ROOT
ATOM      1  C   UNL     1       6.488   6.751  17.118  0.00  0.00    +0.000 C 
ATOM      2  C   UNL     1       7.070   5.661  16.240  0.00  0.00    +0.000 C 
ATOM      3  O   UNL     1       7.730   5.823  15.231  0.00  0.00    +0.000 OA
ATOM      4  C   UNL     1       6.786   4.323  16.786  0.00  0.00    +0.000 C 
ATOM      5  C   UNL     1       5.983   4.504  17.830  0.00  0.00    +0.000 C 
ATOM      6  C   UNL     1       5.574   5.937  18.065  0.00  0.00    +0.000 C 
ENDROOT
BRANCH   1   8
ATOM      7  C   UNL     1       7.835   8.776  17.761  0.00  0.00    +0.000 C 
ATOM      8  C   UNL     1       7.616   7.454  17.826  0.00  0.00    +0.000 C 
BRANCH   7   9
ATOM      9  C   UNL     1       8.955   9.460  18.487  0.00  0.00    +0.000 C 
BRANCH   9  10
ATOM     10  C   UNL     1       8.932  10.959  18.201  0.00  0.00    +0.000 C 
BRANCH  10  11
ATOM     11  C   UNL     1      10.338  11.482  17.918  0.00  0.00    +0.000 C 
BRANCH  11  12
ATOM     12  C   UNL     1      11.153  11.574  19.205  0.00  0.00    +0.000 C 
BRANCH  12  14
ATOM     13  C   UNL     1      10.657  13.538  20.686  0.00  0.00    +0.000 C 
ATOM     14  C   UNL     1      11.497  13.023  19.529  0.00  0.00    +0.000 C 
ENDBRANCH  12  14
ENDBRANCH  11  12
ENDBRANCH  10  11
ENDBRANCH   9  10
ENDBRANCH   7   9
ENDBRANCH   1   8
BRANCH   6  15
ATOM     15  C   UNL     1       4.096   6.152  17.702  0.00  0.00    +0.000 C 
BRANCH  15  16
ATOM     16  C   UNL     1       3.174   6.065  18.890  0.00  0.00    +0.000 C 
ATOM     17  C   UNL     1       2.073   5.304  18.962  0.00  0.00    +0.000 C 
BRANCH  17  18
ATOM     18  C   UNL     1       1.561   4.444  17.843  0.00  0.00    +0.000 C 
BRANCH  18  19
ATOM     19  C   UNL     1       1.619   2.958  18.164  0.00  0.00    +0.000 C 
BRANCH  19  20
ATOM     20  C   UNL     1       2.921   2.316  17.682  0.00  0.00    +0.000 C 
BRANCH  20  21
ATOM     21  C   UNL     1       3.724   1.784  18.839  0.00  0.00    +0.000 C 
ATOM     22  O   UNL     1       3.870   2.339  19.915  0.00  0.00    +0.000 OA
BRANCH  21  23
ATOM     23  O   UNL     1       4.283   0.582  18.560  0.00  0.00    +0.000 OA
ATOM     24  H   UNL     1       5.252   0.564  18.665  0.00  0.00    +0.000 HD
ENDBRANCH  21  23
ENDBRANCH  20  21
ENDBRANCH  19  20
ENDBRANCH  18  19
ENDBRANCH  17  18
ENDBRANCH  15  16
ENDBRANCH   6  15
TORSDOF 13
ENDMDL
MODEL 6
REMARK VINA RESULT:      -7.2      1.733      2.159
REMARK  Name = 
REMARK  14 active torsions:
REMARK  status: ('A' for Active; 'I' for Inactive)
REMARK    1  A    between atoms: C_1  and  C_2
REMARK    2  A    between atoms: C_2  and  C_3
REMARK    3  A    between atoms: C_3  and  C_4
REMARK    4  A    between atoms: C_4  and  C_5
REMARK    5  A    between atoms: C_5  and  C_6
REMARK    6  A    between atoms: C_6  and  C_7
REMARK    7  A    between atoms: C_8  and  C_9
REMARK    8  A    between atoms: C_14  and  C_15
REMARK    9  A    between atoms: C_15  and  C_16
REMARK   10  A    between atoms: C_17  and  C_18
REMARK   11  A    between atoms: C_18  and  C_19
REMARK   12  A    between atoms: C_19  and  C_20
REMARK   13  A    between atoms: C_20  and  C_21
REMARK   14  A    between atoms: C_21  and  O_23
REMARK                            x       y       z     vdW  Elec       q    Type
REMARK                         _______ _______ _______ _____ _____    ______ ____
ROOT
ATOM      1  C   UNL     1       6.237   4.660  16.537  0.00  0.00    +0.000 C 
ATOM      2  C   UNL     1       6.697   5.814  17.405  0.00  0.00    +0.000 C 
ATOM      3  O   UNL     1       7.749   5.884  18.013  0.00  0.00    +0.000 OA
ATOM      4  C   UNL     1       5.719   6.915  17.400  0.00  0.00    +0.000 C 
ATOM      5  C   UNL     1       4.664   6.478  16.718  0.00  0.00    +0.000 C 
ATOM      6  C   UNL     1       4.764   5.045  16.259  0.00  0.00    +0.000 C 
ENDROOT
BRANCH   1   8
ATOM      7  C   UNL     1       6.619   4.787  14.054  0.00  0.00    +0.000 C 
ATOM      8  C   UNL     1       7.092   4.619  15.297  0.00  0.00    +0.000 C 
BRANCH   7   9
ATOM      9  C   UNL     1       7.490   4.759  12.832  0.00  0.00    +0.000 C 
BRANCH   9  10
ATOM     10  C   UNL     1       6.939   3.766  11.814  0.00  0.00    +0.000 C 
BRANCH  10  11
ATOM     11  C   UNL     1       5.670   3.097  12.335  0.00  0.00    +0.000 C 
BRANCH  11  12
ATOM     12  C   UNL     1       4.722   2.763  11.186  0.00  0.00    +0.000 C 
BRANCH  12  14
ATOM     13  C   UNL     1       3.065   3.841   9.640  0.00  0.00    +0.000 C 
ATOM     14  C   UNL     1       3.639   3.827  11.047  0.00  0.00    +0.000 C 
ENDBRANCH  12  14
ENDBRANCH  11  12
ENDBRANCH  10  11
ENDBRANCH   9  10
ENDBRANCH   7   9
ENDBRANCH   1   8
BRANCH   6  15
ATOM     15  C   UNL     1       3.813   4.144  17.065  0.00  0.00    +0.000 C 
BRANCH  15  16
ATOM     16  C   UNL     1       2.776   4.915  17.838  0.00  0.00    +0.000 C 
ATOM     17  C   UNL     1       1.742   4.376  18.499  0.00  0.00    +0.000 C 
BRANCH  17  18
ATOM     18  C   UNL     1       1.431   2.908  18.535  0.00  0.00    +0.000 C 
BRANCH  18  19
ATOM     19  C   UNL     1       1.830   2.251  19.848  0.00  0.00    +0.000 C 
BRANCH  19  20
ATOM     20  C   UNL     1       3.086   2.884  20.449  0.00  0.00    +0.000 C 
BRANCH  20  21
ATOM     21  C   UNL     1       4.282   1.986  20.277  0.00  0.00    +0.000 C 
ATOM     22  O   UNL     1       5.130   1.764  21.125  0.00  0.00    +0.000 OA
BRANCH  21  23
ATOM     23  O   UNL     1       4.322   1.422  19.046  0.00  0.00    +0.000 OA
ATOM     24  H   UNL     1       3.898   1.959  18.351  0.00  0.00    +0.000 HD
ENDBRANCH  21  23
ENDBRANCH  20  21
ENDBRANCH  19  20
ENDBRANCH  18  19
ENDBRANCH  17  18
ENDBRANCH  15  16
ENDBRANCH   6  15
TORSDOF 13
ENDMDL
MODEL 7
REMARK VINA RESULT:      -7.2      1.501      2.075
REMARK  Name = 
REMARK  14 active torsions:
REMARK  status: ('A' for Active; 'I' for Inactive)
REMARK    1  A    between atoms: C_1  and  C_2
REMARK    2  A    between atoms: C_2  and  C_3
REMARK    3  A    between atoms: C_3  and  C_4
REMARK    4  A    between atoms: C_4  and  C_5
REMARK    5  A    between atoms: C_5  and  C_6
REMARK    6  A    between atoms: C_6  and  C_7
REMARK    7  A    between atoms: C_8  and  C_9
REMARK    8  A    between atoms: C_14  and  C_15
REMARK    9  A    between atoms: C_15  and  C_16
REMARK   10  A    between atoms: C_17  and  C_18
REMARK   11  A    between atoms: C_18  and  C_19
REMARK   12  A    between atoms: C_19  and  C_20
REMARK   13  A    between atoms: C_20  and  C_21
REMARK   14  A    between atoms: C_21  and  O_23
REMARK                            x       y       z     vdW  Elec       q    Type
REMARK                         _______ _______ _______ _____ _____    ______ ____
ROOT
ATOM      1  C   UNL     1       6.220   4.388  16.386  0.00  0.00    +0.000 C 
ATOM      2  C   UNL     1       7.359   4.812  17.292  0.00  0.00    +0.000 C 
ATOM      3  O   UNL     1       8.289   4.116  17.656  0.00  0.00    +0.000 OA
ATOM      4  C   UNL     1       7.248   6.232  17.667  0.00  0.00    +0.000 C 
ATOM      5  C   UNL     1       6.088   6.661  17.179  0.00  0.00    +0.000 C 
ATOM      6  C   UNL     1       5.260   5.597  16.502  0.00  0.00    +0.000 C 
ENDROOT
BRANCH   1   8
ATOM      7  C   UNL     1       6.761   5.124  14.042  0.00  0.00    +0.000 C 
ATOM      8  C   UNL     1       6.762   4.181  14.996  0.00  0.00    +0.000 C 
BRANCH   7   9
ATOM      9  C   UNL     1       7.321   4.903  12.668  0.00  0.00    +0.000 C 
BRANCH   9  10
ATOM     10  C   UNL     1       7.007   3.488  12.191  0.00  0.00    +0.000 C 
BRANCH  10  11
ATOM     11  C   UNL     1       5.502   3.282  12.043  0.00  0.00    +0.000 C 
BRANCH  11  12
ATOM     12  C   UNL     1       5.202   1.993  11.282  0.00  0.00    +0.000 C 
BRANCH  12  14
ATOM     13  C   UNL     1       6.135  -0.336  11.297  0.00  0.00    +0.000 C 
ATOM     14  C   UNL     1       6.458   1.141  11.141  0.00  0.00    +0.000 C 
ENDBRANCH  12  14
ENDBRANCH  11  12
ENDBRANCH  10  11
ENDBRANCH   9  10
ENDBRANCH   7   9
ENDBRANCH   1   8
BRANCH   6  15
ATOM     15  C   UNL     1       4.035   5.230  17.356  0.00  0.00    +0.000 C 
BRANCH  15  16
ATOM     16  C   UNL     1       3.628   6.321  18.310  0.00  0.00    +0.000 C 
ATOM     17  C   UNL     1       2.710   6.200  19.279  0.00  0.00    +0.000 C 
BRANCH  17  18
ATOM     18  C   UNL     1       1.906   4.957  19.537  0.00  0.00    +0.000 C 
BRANCH  18  19
ATOM     19  C   UNL     1       2.430   4.149  20.715  0.00  0.00    +0.000 C 
BRANCH  19  20
ATOM     20  C   UNL     1       2.436   2.647  20.424  0.00  0.00    +0.000 C 
BRANCH  20  21
ATOM     21  C   UNL     1       3.596   2.272  19.540  0.00  0.00    +0.000 C 
ATOM     22  O   UNL     1       4.733   2.698  19.644  0.00  0.00    +0.000 OA
BRANCH  21  23
ATOM     23  O   UNL     1       3.241   1.375  18.588  0.00  0.00    +0.000 OA
ATOM     24  H   UNL     1       3.913   1.252  17.892  0.00  0.00    +0.000 HD
ENDBRANCH  21  23
ENDBRANCH  20  21
ENDBRANCH  19  20
ENDBRANCH  18  19
ENDBRANCH  17  18
ENDBRANCH  15  16
ENDBRANCH   6  15
TORSDOF 13
ENDMDL
MODEL 8
REMARK VINA RESULT:      -7.1      2.954      6.522
REMARK  Name = 
REMARK  14 active torsions:
REMARK  status: ('A' for Active; 'I' for Inactive)
REMARK    1  A    between atoms: C_1  and  C_2
REMARK    2  A    between atoms: C_2  and  C_3
REMARK    3  A    between atoms: C_3  and  C_4
REMARK    4  A    between atoms: C_4  and  C_5
REMARK    5  A    between atoms: C_5  and  C_6
REMARK    6  A    between atoms: C_6  and  C_7
REMARK    7  A    between atoms: C_8  and  C_9
REMARK    8  A    between atoms: C_14  and  C_15
REMARK    9  A    between atoms: C_15  and  C_16
REMARK   10  A    between atoms: C_17  and  C_18
REMARK   11  A    between atoms: C_18  and  C_19
REMARK   12  A    between atoms: C_19  and  C_20
REMARK   13  A    between atoms: C_20  and  C_21
REMARK   14  A    between atoms: C_21  and  O_23
REMARK                            x       y       z     vdW  Elec       q    Type
REMARK                         _______ _______ _______ _____ _____    ______ ____
ROOT
ATOM      1  C   UNL     1       4.852   5.781  16.731  0.00  0.00    +0.000 C 
ATOM      2  C   UNL     1       5.258   5.937  15.279  0.00  0.00    +0.000 C 
ATOM      3  O   UNL     1       5.164   6.948  14.609  0.00  0.00    +0.000 OA
ATOM      4  C   UNL     1       5.852   4.697  14.751  0.00  0.00    +0.000 C 
ATOM      5  C   UNL     1       5.722   3.780  15.706  0.00  0.00    +0.000 C 
ATOM      6  C   UNL     1       4.977   4.252  16.930  0.00  0.00    +0.000 C 
ENDROOT
BRANCH   1   8
ATOM      7  C   UNL     1       7.130   6.388  17.610  0.00  0.00    +0.000 C 
ATOM      8  C   UNL     1       5.803   6.579  17.586  0.00  0.00    +0.000 C 
BRANCH   7   9
ATOM      9  C   UNL     1       8.063   7.204  18.456  0.00  0.00    +0.000 C 
BRANCH   9  10
ATOM     10  C   UNL     1       8.178   8.620  17.899  0.00  0.00    +0.000 C 
BRANCH  10  11
ATOM     11  C   UNL     1       8.890   9.539  18.888  0.00  0.00    +0.000 C 
BRANCH  11  12
ATOM     12  C   UNL     1       9.277  10.857  18.222  0.00  0.00    +0.000 C 
BRANCH  12  14
ATOM     13  C   UNL     1      10.003  11.420  20.557  0.00  0.00    +0.000 C 
ATOM     14  C   UNL     1      10.280  11.624  19.077  0.00  0.00    +0.000 C 
ENDBRANCH  12  14
ENDBRANCH  11  12
ENDBRANCH  10  11
ENDBRANCH   9  10
ENDBRANCH   7   9
ENDBRANCH   1   8
BRANCH   6  15
ATOM     15  C   UNL     1       3.584   3.605  17.006  0.00  0.00    +0.000 C 
BRANCH  15  16
ATOM     16  C   UNL     1       3.551   2.363  17.858  0.00  0.00    +0.000 C 
ATOM     17  C   UNL     1       2.610   2.072  18.767  0.00  0.00    +0.000 C 
BRANCH  17  18
ATOM     18  C   UNL     1       1.454   2.968  19.109  0.00  0.00    +0.000 C 
BRANCH  18  19
ATOM     19  C   UNL     1       1.498   3.466  20.546  0.00  0.00    +0.000 C 
BRANCH  19  20
ATOM     20  C   UNL     1       1.375   4.988  20.631  0.00  0.00    +0.000 C 
BRANCH  20  21
ATOM     21  C   UNL     1       2.431   5.664  19.797  0.00  0.00    +0.000 C 
ATOM     22  O   UNL     1       2.221   6.428  18.870  0.00  0.00    +0.000 OA
BRANCH  21  23
ATOM     23  O   UNL     1       3.683   5.334  20.196  0.00  0.00    +0.000 OA
ATOM     24  H   UNL     1       4.120   6.021  20.732  0.00  0.00    +0.000 HD
ENDBRANCH  21  23
ENDBRANCH  20  21
ENDBRANCH  19  20
ENDBRANCH  18  19
ENDBRANCH  17  18
ENDBRANCH  15  16
ENDBRANCH   6  15
TORSDOF 13
ENDMDL
MODEL 9
REMARK VINA RESULT:      -7.1      3.696      6.353
REMARK  Name = 
REMARK  14 active torsions:
REMARK  status: ('A' for Active; 'I' for Inactive)
REMARK    1  A    between atoms: C_1  and  C_2
REMARK    2  A    between atoms: C_2  and  C_3
REMARK    3  A    between atoms: C_3  and  C_4
REMARK    4  A    between atoms: C_4  and  C_5
REMARK    5  A    between atoms: C_5  and  C_6
REMARK    6  A    between atoms: C_6  and  C_7
REMARK    7  A    between atoms: C_8  and  C_9
REMARK    8  A    between atoms: C_14  and  C_15
REMARK    9  A    between atoms: C_15  and  C_16
REMARK   10  A    between atoms: C_17  and  C_18
REMARK   11  A    between atoms: C_18  and  C_19
REMARK   12  A    between atoms: C_19  and  C_20
REMARK   13  A    between atoms: C_20  and  C_21
REMARK   14  A    between atoms: C_21  and  O_23
REMARK                            x       y       z     vdW  Elec       q    Type
REMARK                         _______ _______ _______ _____ _____    ______ ____
ROOT
ATOM      1  C   UNL     1       4.506   6.146  17.153  0.00  0.00    +0.000 C 
ATOM      2  C   UNL     1       5.991   6.397  17.325  0.00  0.00    +0.000 C 
ATOM      3  O   UNL     1       6.650   7.245  16.754  0.00  0.00    +0.000 OA
ATOM      4  C   UNL     1       6.574   5.499  18.336  0.00  0.00    +0.000 C 
ATOM      5  C   UNL     1       5.610   4.653  18.690  0.00  0.00    +0.000 C 
ATOM      6  C   UNL     1       4.320   4.820  17.927  0.00  0.00    +0.000 C 
ENDROOT
BRANCH   1   8
ATOM      7  C   UNL     1       2.603   7.177  18.435  0.00  0.00    +0.000 C 
ATOM      8  C   UNL     1       3.750   7.304  17.750  0.00  0.00    +0.000 C 
BRANCH   7   9
ATOM      9  C   UNL     1       1.873   8.342  19.037  0.00  0.00    +0.000 C 
BRANCH   9  10
ATOM     10  C   UNL     1       1.408   9.297  17.942  0.00  0.00    +0.000 C 
BRANCH  10  11
ATOM     11  C   UNL     1       0.715  10.518  18.541  0.00  0.00    +0.000 C 
BRANCH  11  12
ATOM     12  C   UNL     1      -0.720  10.185  18.940  0.00  0.00    +0.000 C 
BRANCH  12  14
ATOM     13  C   UNL     1      -2.753   9.806  17.518  0.00  0.00    +0.000 C 
ATOM     14  C   UNL     1      -1.714  10.818  17.973  0.00  0.00    +0.000 C 
ENDBRANCH  12  14
ENDBRANCH  11  12
ENDBRANCH  10  11
ENDBRANCH   9  10
ENDBRANCH   7   9
ENDBRANCH   1   8
BRANCH   6  15
ATOM     15  C   UNL     1       4.107   3.652  16.950  0.00  0.00    +0.000 C 
BRANCH  15  16
ATOM     16  C   UNL     1       3.542   2.421  17.609  0.00  0.00    +0.000 C 
ATOM     17  C   UNL     1       2.333   2.334  18.181  0.00  0.00    +0.000 C 
BRANCH  17  18
ATOM     18  C   UNL     1       1.362   3.474  18.292  0.00  0.00    +0.000 C 
BRANCH  18  19
ATOM     19  C   UNL     1       0.849   3.677  19.710  0.00  0.00    +0.000 C 
BRANCH  19  20
ATOM     20  C   UNL     1       1.969   4.064  20.677  0.00  0.00    +0.000 C 
BRANCH  20  21
ATOM     21  C   UNL     1       2.345   2.906  21.562  0.00  0.00    +0.000 C 
ATOM     22  O   UNL     1       3.426   2.343  21.571  0.00  0.00    +0.000 OA
BRANCH  21  23
ATOM     23  O   UNL     1       1.330   2.543  22.384  0.00  0.00    +0.000 OA
ATOM     24  H   UNL     1       0.673   1.958  21.964  0.00  0.00    +0.000 HD
ENDBRANCH  21  23
ENDBRANCH  20  21
ENDBRANCH  19  20
ENDBRANCH  18  19
ENDBRANCH  17  18
ENDBRANCH  15  16
ENDBRANCH   6  15
TORSDOF 13
ENDMDL
