MODEL 1
REMARK VINA RESULT:      -6.7      0.000      0.000
REMARK  Name = 
REMARK  8 active torsions:
REMARK  status: ('A' for Active; 'I' for Inactive)
REMARK    1  A    between atoms: C_1  and  C_2
REMARK    2  A    between atoms: C_2  and  O_4
REMARK    3  A    between atoms: O_4  and  C_5
REMARK    4  A    between atoms: C_5  and  C_6
REMARK    5  A    between atoms: C_6  and  O_7
REMARK    6  A    between atoms: O_7  and  C_8
REMARK    7  A    between atoms: C_8  and  N_9
REMARK    8  A    between atoms: N_18  and  C_19
REMARK                            x       y       z     vdW  Elec       q    Type
REMARK                         _______ _______ _______ _____ _____    ______ ____
ROOT
ATOM      1  N   UNL     1       5.526   5.594  17.820  0.00  0.00    +0.000 N 
ATOM      2  C   UNL     1       4.204   5.290  18.134  0.00  0.00    +0.000 A 
ATOM      3  C   UNL     1       3.883   4.217  18.872  0.00  0.00    +0.000 A 
ATOM      4  C   UNL     1       4.963   3.330  19.331  0.00  0.00    +0.000 A 
ATOM      5  O   UNL     1       4.760   2.352  20.043  0.00  0.00    +0.000 OA
ATOM      6  N   UNL     1       6.217   3.643  18.900  0.00  0.00    +0.000 N 
ATOM      7  C   UNL     1       6.565   4.755  18.187  0.00  0.00    +0.000 A 
ATOM      8  O   UNL     1       7.752   4.955  17.934  0.00  0.00    +0.000 OA
ATOM      9  C   UNL     1       2.483   3.878  19.268  0.00  0.00    +0.000 C 
ATOM     10  N   UNL     1       2.061   4.760  20.360  0.00  0.00    +0.000 N 
ATOM     11  C   UNL     1       1.859   4.117  21.659  0.00  0.00    +0.000 C 
ATOM     12  C   UNL     1       1.849   6.135  20.202  0.00  0.00    +0.000 A 
ATOM     13  C   UNL     1       1.239   6.868  21.250  0.00  0.00    +0.000 A 
ATOM     14  C   UNL     1       1.000   8.246  21.193  0.00  0.00    +0.000 A 
ATOM     15  C   UNL     1       1.378   8.964  20.074  0.00  0.00    +0.000 A 
ATOM     16  C   UNL     1       1.974   8.294  19.014  0.00  0.00    +0.000 A 
ATOM     17  C   UNL     1       2.204   6.898  19.053  0.00  0.00    +0.000 A 
ATOM     18  S   UNL     1       2.916   6.284  17.515  0.00  0.00    +0.000 S 
ATOM     19  H   UNL     1       6.973   3.054  19.210  0.00  0.00    +0.000 HD
ENDROOT
BRANCH   1  20
ATOM     20  C   UNL     1       5.897   6.853  17.186  0.00  0.00    +0.000 C 
BRANCH  20  21
ATOM     21  O   UNL     1       6.417   6.644  15.868  0.00  0.00    +0.000 OA
BRANCH  21  22
ATOM     22  C   UNL     1       5.605   5.848  15.006  0.00  0.00    +0.000 C 
BRANCH  22  23
ATOM     23  C   UNL     1       6.343   4.658  14.398  0.00  0.00    +0.000 C 
BRANCH  23  24
ATOM     24  O   UNL     1       5.470   3.876  13.574  0.00  0.00    +0.000 OA
BRANCH  24  26
ATOM     25  C   UNL     1       7.180   4.259  12.032  0.00  0.00    +0.000 C 
ATOM     26  C   UNL     1       6.026   3.395  12.432  0.00  0.00    +0.000 C 
ATOM     27  O   UNL     1       5.649   2.409  11.816  0.00  0.00    +0.000 OA
ENDBRANCH  24  26
ENDBRANCH  23  24
ENDBRANCH  22  23
ENDBRANCH  21  22
ENDBRANCH  20  21
ENDBRANCH   1  20
TORSDOF 6
ENDMDL
MODEL 2
REMARK VINA RESULT:      -6.7      8.290     12.002
REMARK  Name = 
REMARK  8 active torsions:
REMARK  status: ('A' for Active; 'I' for Inactive)
REMARK    1  A    between atoms: C_1  and  C_2
REMARK    2  A    between atoms: C_2  and  O_4
REMARK    3  A    between atoms: O_4  and  C_5
REMARK    4  A    between atoms: C_5  and  C_6
REMARK    5  A    between atoms: C_6  and  O_7
REMARK    6  A    between atoms: O_7  and  C_8
REMARK    7  A    between atoms: C_8  and  N_9
REMARK    8  A    between atoms: N_18  and  C_19
REMARK                            x       y       z     vdW  Elec       q    Type
REMARK                         _______ _______ _______ _____ _____    ______ ____
ROOT
ATOM      1  N   UNL     1      -1.052  11.501  22.188  0.00  0.00    +0.000 N 
ATOM      2  C   UNL     1      -1.271  11.845  20.855  0.00  0.00    +0.000 A 
ATOM      3  C   UNL     1      -0.743  11.133  19.849  0.00  0.00    +0.000 A 
ATOM      4  C   UNL     1       0.112   9.981  20.173  0.00  0.00    +0.000 A 
ATOM      5  O   UNL     1       0.599   9.254  19.312  0.00  0.00    +0.000 OA
ATOM      6  N   UNL     1       0.354   9.770  21.497  0.00  0.00    +0.000 N 
ATOM      7  C   UNL     1      -0.211  10.457  22.534  0.00  0.00    +0.000 A 
ATOM      8  O   UNL     1       0.035  10.107  23.686  0.00  0.00    +0.000 OA
ATOM      9  C   UNL     1      -0.986  11.441  18.407  0.00  0.00    +0.000 C 
ATOM     10  N   UNL     1      -2.327  10.981  18.033  0.00  0.00    +0.000 N 
ATOM     11  C   UNL     1      -2.379   9.856  17.099  0.00  0.00    +0.000 C 
ATOM     12  C   UNL     1      -3.504  11.565  18.517  0.00  0.00    +0.000 A 
ATOM     13  C   UNL     1      -4.747  11.200  17.941  0.00  0.00    +0.000 A 
ATOM     14  C   UNL     1      -5.977  11.716  18.367  0.00  0.00    +0.000 A 
ATOM     15  C   UNL     1      -6.020  12.621  19.410  0.00  0.00    +0.000 A 
ATOM     16  C   UNL     1      -4.830  13.018  20.006  0.00  0.00    +0.000 A 
ATOM     17  C   UNL     1      -3.579  12.518  19.573  0.00  0.00    +0.000 A 
ATOM     18  S   UNL     1      -2.203  13.262  20.468  0.00  0.00    +0.000 S 
ATOM     19  H   UNL     1       0.930   8.980  21.742  0.00  0.00    +0.000 HD
ENDROOT
BRANCH   1  20
ATOM     20  C   UNL     1      -1.772  12.148  23.277  0.00  0.00    +0.000 C 
BRANCH  20  21
ATOM     21  O   UNL     1      -3.122  11.680  23.365  0.00  0.00    +0.000 OA
BRANCH  21  22
ATOM     22  C   UNL     1      -4.107  12.685  23.603  0.00  0.00    +0.000 C 
BRANCH  22  23
ATOM     23  C   UNL     1      -5.057  12.349  24.751  0.00  0.00    +0.000 C 
BRANCH  23  24
ATOM     24  O   UNL     1      -6.271  11.764  24.260  0.00  0.00    +0.000 OA
BRANCH  24  26
ATOM     25  C   UNL     1      -7.902  12.199  22.648  0.00  0.00    +0.000 C 
ATOM     26  C   UNL     1      -7.241  12.649  23.912  0.00  0.00    +0.000 C 
ATOM     27  O   UNL     1      -7.536  13.661  24.529  0.00  0.00    +0.000 OA
ENDBRANCH  24  26
ENDBRANCH  23  24
ENDBRANCH  22  23
ENDBRANCH  21  22
ENDBRANCH  20  21
ENDBRANCH   1  20
TORSDOF 6
ENDMDL
MODEL 3
REMARK VINA RESULT:      -6.7      8.269     10.262
REMARK  Name = 
REMARK  8 active torsions:
REMARK  status: ('A' for Active; 'I' for Inactive)
REMARK    1  A    between atoms: C_1  and  C_2
REMARK    2  A    between atoms: C_2  and  O_4
REMARK    3  A    between atoms: O_4  and  C_5
REMARK    4  A    between atoms: C_5  and  C_6
REMARK    5  A    between atoms: C_6  and  O_7
REMARK    6  A    between atoms: O_7  and  C_8
REMARK    7  A    between atoms: C_8  and  N_9
REMARK    8  A    between atoms: N_18  and  C_19
REMARK                            x       y       z     vdW  Elec       q    Type
REMARK                         _______ _______ _______ _____ _____    ______ ____
ROOT
ATOM      1  N   UNL     1      -3.047  11.162  18.134  0.00  0.00    +0.000 N 
ATOM      2  C   UNL     1      -2.274  11.797  19.104  0.00  0.00    +0.000 A 
ATOM      3  C   UNL     1      -2.804  12.689  19.954  0.00  0.00    +0.000 A 
ATOM      4  C   UNL     1      -4.233  13.018  19.829  0.00  0.00    +0.000 A 
ATOM      5  O   UNL     1      -4.803  13.791  20.592  0.00  0.00    +0.000 OA
ATOM      6  N   UNL     1      -4.894  12.428  18.795  0.00  0.00    +0.000 N 
ATOM      7  C   UNL     1      -4.380  11.485  17.950  0.00  0.00    +0.000 A 
ATOM      8  O   UNL     1      -5.117  10.973  17.108  0.00  0.00    +0.000 OA
ATOM      9  C   UNL     1      -2.023  13.361  21.035  0.00  0.00    +0.000 C 
ATOM     10  N   UNL     1      -1.820  12.421  22.141  0.00  0.00    +0.000 N 
ATOM     11  C   UNL     1      -2.519  12.740  23.387  0.00  0.00    +0.000 C 
ATOM     12  C   UNL     1      -1.008  11.284  22.048  0.00  0.00    +0.000 A 
ATOM     13  C   UNL     1      -0.699  10.553  23.222  0.00  0.00    +0.000 A 
ATOM     14  C   UNL     1       0.089   9.396  23.227  0.00  0.00    +0.000 A 
ATOM     15  C   UNL     1       0.599   8.905  22.041  0.00  0.00    +0.000 A 
ATOM     16  C   UNL     1       0.332   9.586  20.861  0.00  0.00    +0.000 A 
ATOM     17  C   UNL     1      -0.448  10.767  20.845  0.00  0.00    +0.000 A 
ATOM     18  S   UNL     1      -0.565  11.482  19.194  0.00  0.00    +0.000 S 
ATOM     19  H   UNL     1      -5.876  12.632  18.697  0.00  0.00    +0.000 HD
ENDROOT
BRANCH   1  20
ATOM     20  C   UNL     1      -2.526  10.059  17.337  0.00  0.00    +0.000 C 
BRANCH  20  21
ATOM     21  O   UNL     1      -2.336  10.442  15.971  0.00  0.00    +0.000 OA
BRANCH  21  22
ATOM     22  C   UNL     1      -2.935   9.585  15.001  0.00  0.00    +0.000 C 
BRANCH  22  23
ATOM     23  C   UNL     1      -3.534  10.332  13.812  0.00  0.00    +0.000 C 
BRANCH  23  24
ATOM     24  O   UNL     1      -4.685   9.648  13.300  0.00  0.00    +0.000 OA
BRANCH  24  26
ATOM     25  C   UNL     1      -6.194   9.698  11.519  0.00  0.00    +0.000 C 
ATOM     26  C   UNL     1      -4.764   9.581  11.945  0.00  0.00    +0.000 C 
ATOM     27  O   UNL     1      -3.820   9.445  11.182  0.00  0.00    +0.000 OA
ENDBRANCH  24  26
ENDBRANCH  23  24
ENDBRANCH  22  23
ENDBRANCH  21  22
ENDBRANCH  20  21
ENDBRANCH   1  20
TORSDOF 6
ENDMDL
MODEL 4
REMARK VINA RESULT:      -6.7      0.895      1.119
REMARK  Name = 
REMARK  8 active torsions:
REMARK  status: ('A' for Active; 'I' for Inactive)
REMARK    1  A    between atoms: C_1  and  C_2
REMARK    2  A    between atoms: C_2  and  O_4
REMARK    3  A    between atoms: O_4  and  C_5
REMARK    4  A    between atoms: C_5  and  C_6
REMARK    5  A    between atoms: C_6  and  O_7
REMARK    6  A    between atoms: O_7  and  C_8
REMARK    7  A    between atoms: C_8  and  N_9
REMARK    8  A    between atoms: N_18  and  C_19
REMARK                            x       y       z     vdW  Elec       q    Type
REMARK                         _______ _______ _______ _____ _____    ______ ____
ROOT
ATOM      1  N   UNL     1       5.527   5.629  17.898  0.00  0.00    +0.000 N 
ATOM      2  C   UNL     1       4.198   5.323  18.179  0.00  0.00    +0.000 A 
ATOM      3  C   UNL     1       3.858   4.228  18.875  0.00  0.00    +0.000 A 
ATOM      4  C   UNL     1       4.925   3.319  19.324  0.00  0.00    +0.000 A 
ATOM      5  O   UNL     1       4.703   2.320  20.000  0.00  0.00    +0.000 OA
ATOM      6  N   UNL     1       6.188   3.639  18.926  0.00  0.00    +0.000 N 
ATOM      7  C   UNL     1       6.554   4.772  18.256  0.00  0.00    +0.000 A 
ATOM      8  O   UNL     1       7.747   4.973  18.031  0.00  0.00    +0.000 OA
ATOM      9  C   UNL     1       2.449   3.885  19.234  0.00  0.00    +0.000 C 
ATOM     10  N   UNL     1       2.013   4.733  20.347  0.00  0.00    +0.000 N 
ATOM     11  C   UNL     1       1.784   4.049  21.621  0.00  0.00    +0.000 C 
ATOM     12  C   UNL     1       1.811   6.114  20.231  0.00  0.00    +0.000 A 
ATOM     13  C   UNL     1       1.186   6.816  21.292  0.00  0.00    +0.000 A 
ATOM     14  C   UNL     1       0.956   8.197  21.275  0.00  0.00    +0.000 A 
ATOM     15  C   UNL     1       1.358   8.949  20.188  0.00  0.00    +0.000 A 
ATOM     16  C   UNL     1       1.969   8.310  19.117  0.00  0.00    +0.000 A 
ATOM     17  C   UNL     1       2.191   6.912  19.114  0.00  0.00    +0.000 A 
ATOM     18  S   UNL     1       2.926   6.344  17.570  0.00  0.00    +0.000 S 
ATOM     19  H   UNL     1       6.935   3.035  19.230  0.00  0.00    +0.000 HD
ENDROOT
BRANCH   1  20
ATOM     20  C   UNL     1       5.917   6.905  17.312  0.00  0.00    +0.000 C 
BRANCH  20  21
ATOM     21  O   UNL     1       6.332   6.752  15.951  0.00  0.00    +0.000 OA
BRANCH  21  22
ATOM     22  C   UNL     1       5.368   6.168  15.075  0.00  0.00    +0.000 C 
BRANCH  22  23
ATOM     23  C   UNL     1       5.719   4.746  14.643  0.00  0.00    +0.000 C 
BRANCH  23  24
ATOM     24  O   UNL     1       7.136   4.584  14.506  0.00  0.00    +0.000 OA
BRANCH  24  26
ATOM     25  C   UNL     1       7.046   4.157  12.213  0.00  0.00    +0.000 C 
ATOM     26  C   UNL     1       7.651   4.973  13.311  0.00  0.00    +0.000 C 
ATOM     27  O   UNL     1       8.483   5.853  13.146  0.00  0.00    +0.000 OA
ENDBRANCH  24  26
ENDBRANCH  23  24
ENDBRANCH  22  23
ENDBRANCH  21  22
ENDBRANCH  20  21
ENDBRANCH   1  20
TORSDOF 6
ENDMDL
MODEL 5
REMARK VINA RESULT:      -6.6      8.746     10.787
REMARK  Name = 
REMARK  8 active torsions:
REMARK  status: ('A' for Active; 'I' for Inactive)
REMARK    1  A    between atoms: C_1  and  C_2
REMARK    2  A    between atoms: C_2  and  O_4
REMARK    3  A    between atoms: O_4  and  C_5
REMARK    4  A    between atoms: C_5  and  C_6
REMARK    5  A    between atoms: C_6  and  O_7
REMARK    6  A    between atoms: O_7  and  C_8
REMARK    7  A    between atoms: C_8  and  N_9
REMARK    8  A    between atoms: N_18  and  C_19
REMARK                            x       y       z     vdW  Elec       q    Type
REMARK                         _______ _______ _______ _____ _____    ______ ____
ROOT
ATOM      1  N   UNL     1      -4.319  11.502  18.495  0.00  0.00    +0.000 N 
ATOM      2  C   UNL     1      -3.382  12.141  19.305  0.00  0.00    +0.000 A 
ATOM      3  C   UNL     1      -3.753  12.928  20.325  0.00  0.00    +0.000 A 
ATOM      4  C   UNL     1      -5.189  13.138  20.568  0.00  0.00    +0.000 A 
ATOM      5  O   UNL     1      -5.611  13.809  21.504  0.00  0.00    +0.000 OA
ATOM      6  N   UNL     1      -6.037  12.558  19.674  0.00  0.00    +0.000 N 
ATOM      7  C   UNL     1      -5.677  11.718  18.657  0.00  0.00    +0.000 A 
ATOM      8  O   UNL     1      -6.557  11.197  17.974  0.00  0.00    +0.000 OA
ATOM      9  C   UNL     1      -2.783  13.597  21.244  0.00  0.00    +0.000 C 
ATOM     10  N   UNL     1      -2.254  12.612  22.191  0.00  0.00    +0.000 N 
ATOM     11  C   UNL     1      -2.653  12.789  23.588  0.00  0.00    +0.000 C 
ATOM     12  C   UNL     1      -1.411  11.558  21.816  0.00  0.00    +0.000 A 
ATOM     13  C   UNL     1      -0.778  10.785  22.822  0.00  0.00    +0.000 A 
ATOM     14  C   UNL     1       0.068   9.703  22.547  0.00  0.00    +0.000 A 
ATOM     15  C   UNL     1       0.310   9.333  21.238  0.00  0.00    +0.000 A 
ATOM     16  C   UNL     1      -0.281  10.061  20.213  0.00  0.00    +0.000 A 
ATOM     17  C   UNL     1      -1.123  11.168  20.477  0.00  0.00    +0.000 A 
ATOM     18  S   UNL     1      -1.684  11.971  18.964  0.00  0.00    +0.000 S 
ATOM     19  H   UNL     1      -7.025  12.681  19.826  0.00  0.00    +0.000 HD
ENDROOT
BRANCH   1  20
ATOM     20  C   UNL     1      -3.930  10.501  17.511  0.00  0.00    +0.000 C 
BRANCH  20  21
ATOM     21  O   UNL     1      -3.979  11.026  16.180  0.00  0.00    +0.000 OA
BRANCH  21  22
ATOM     22  C   UNL     1      -2.817  10.796  15.384  0.00  0.00    +0.000 C 
BRANCH  22  23
ATOM     23  C   UNL     1      -3.070   9.888  14.183  0.00  0.00    +0.000 C 
BRANCH  23  24
ATOM     24  O   UNL     1      -4.153  10.380  13.384  0.00  0.00    +0.000 OA
BRANCH  24  26
ATOM     25  C   UNL     1      -5.789   9.421  12.022  0.00  0.00    +0.000 C 
ATOM     26  C   UNL     1      -4.338   9.738  12.200  0.00  0.00    +0.000 C 
ATOM     27  O   UNL     1      -3.461   9.458  11.398  0.00  0.00    +0.000 OA
ENDBRANCH  24  26
ENDBRANCH  23  24
ENDBRANCH  22  23
ENDBRANCH  21  22
ENDBRANCH  20  21
ENDBRANCH   1  20
TORSDOF 6
ENDMDL
MODEL 6
REMARK VINA RESULT:      -6.5      8.276     11.968
REMARK  Name = 
REMARK  8 active torsions:
REMARK  status: ('A' for Active; 'I' for Inactive)
REMARK    1  A    between atoms: C_1  and  C_2
REMARK    2  A    between atoms: C_2  and  O_4
REMARK    3  A    between atoms: O_4  and  C_5
REMARK    4  A    between atoms: C_5  and  C_6
REMARK    5  A    between atoms: C_6  and  O_7
REMARK    6  A    between atoms: O_7  and  C_8
REMARK    7  A    between atoms: C_8  and  N_9
REMARK    8  A    between atoms: N_18  and  C_19
REMARK                            x       y       z     vdW  Elec       q    Type
REMARK                         _______ _______ _______ _____ _____    ______ ____
ROOT
ATOM      1  N   UNL     1      -1.336  11.562  21.772  0.00  0.00    +0.000 N 
ATOM      2  C   UNL     1      -1.779  11.971  20.516  0.00  0.00    +0.000 A 
ATOM      3  C   UNL     1      -1.246  11.483  19.387  0.00  0.00    +0.000 A 
ATOM      4  C   UNL     1      -0.144  10.514  19.490  0.00  0.00    +0.000 A 
ATOM      5  O   UNL     1       0.371   9.989  18.508  0.00  0.00    +0.000 OA
ATOM      6  N   UNL     1       0.295  10.240  20.750  0.00  0.00    +0.000 N 
ATOM      7  C   UNL     1      -0.267  10.693  21.910  0.00  0.00    +0.000 A 
ATOM      8  O   UNL     1       0.183  10.300  22.985  0.00  0.00    +0.000 OA
ATOM      9  C   UNL     1      -1.719  11.862  18.022  0.00  0.00    +0.000 C 
ATOM     10  N   UNL     1      -2.976  11.165  17.734  0.00  0.00    +0.000 N 
ATOM     11  C   UNL     1      -2.915  10.144  16.686  0.00  0.00    +0.000 C 
ATOM     12  C   UNL     1      -4.179  11.438  18.396  0.00  0.00    +0.000 A 
ATOM     13  C   UNL     1      -5.383  10.872  17.909  0.00  0.00    +0.000 A 
ATOM     14  C   UNL     1      -6.631  11.074  18.513  0.00  0.00    +0.000 A 
ATOM     15  C   UNL     1      -6.728  11.850  19.651  0.00  0.00    +0.000 A 
ATOM     16  C   UNL     1      -5.579  12.434  20.167  0.00  0.00    +0.000 A 
ATOM     17  C   UNL     1      -4.315  12.253  19.556  0.00  0.00    +0.000 A 
ATOM     18  S   UNL     1      -3.018  13.188  20.389  0.00  0.00    +0.000 S 
ATOM     19  H   UNL     1       1.042   9.571  20.844  0.00  0.00    +0.000 HD
ENDROOT
BRANCH   1  20
ATOM     20  C   UNL     1      -2.033  11.939  22.995  0.00  0.00    +0.000 C 
BRANCH  20  21
ATOM     21  O   UNL     1      -1.409  13.059  23.631  0.00  0.00    +0.000 OA
BRANCH  21  22
ATOM     22  C   UNL     1      -2.220  14.227  23.755  0.00  0.00    +0.000 C 
BRANCH  22  23
ATOM     23  C   UNL     1      -3.429  14.035  24.668  0.00  0.00    +0.000 C 
BRANCH  23  24
ATOM     24  O   UNL     1      -4.654  14.156  23.934  0.00  0.00    +0.000 OA
BRANCH  24  26
ATOM     25  C   UNL     1      -6.854  13.496  23.519  0.00  0.00    +0.000 C 
ATOM     26  C   UNL     1      -5.517  13.116  24.072  0.00  0.00    +0.000 C 
ATOM     27  O   UNL     1      -5.253  12.032  24.570  0.00  0.00    +0.000 OA
ENDBRANCH  24  26
ENDBRANCH  23  24
ENDBRANCH  22  23
ENDBRANCH  21  22
ENDBRANCH  20  21
ENDBRANCH   1  20
TORSDOF 6
ENDMDL
MODEL 7
REMARK VINA RESULT:      -6.3      8.377     11.380
REMARK  Name = 
REMARK  8 active torsions:
REMARK  status: ('A' for Active; 'I' for Inactive)
REMARK    1  A    between atoms: C_1  and  C_2
REMARK    2  A    between atoms: C_2  and  O_4
REMARK    3  A    between atoms: O_4  and  C_5
REMARK    4  A    between atoms: C_5  and  C_6
REMARK    5  A    between atoms: C_6  and  O_7
REMARK    6  A    between atoms: O_7  and  C_8
REMARK    7  A    between atoms: C_8  and  N_9
REMARK    8  A    between atoms: N_18  and  C_19
REMARK                            x       y       z     vdW  Elec       q    Type
REMARK                         _______ _______ _______ _____ _____    ______ ____
ROOT
ATOM      1  N   UNL     1      -2.993  11.422  18.859  0.00  0.00    +0.000 N 
ATOM      2  C   UNL     1      -3.765  12.416  19.456  0.00  0.00    +0.000 A 
ATOM      3  C   UNL     1      -5.031  12.648  19.077  0.00  0.00    +0.000 A 
ATOM      4  C   UNL     1      -5.596  11.845  17.981  0.00  0.00    +0.000 A 
ATOM      5  O   UNL     1      -6.756  11.965  17.602  0.00  0.00    +0.000 OA
ATOM      6  N   UNL     1      -4.745  10.962  17.387  0.00  0.00    +0.000 N 
ATOM      7  C   UNL     1      -3.470  10.683  17.790  0.00  0.00    +0.000 A 
ATOM      8  O   UNL     1      -2.840   9.801  17.210  0.00  0.00    +0.000 OA
ATOM      9  C   UNL     1      -5.908  13.673  19.717  0.00  0.00    +0.000 C 
ATOM     10  N   UNL     1      -6.384  13.166  21.007  0.00  0.00    +0.000 N 
ATOM     11  C   UNL     1      -7.816  12.877  21.092  0.00  0.00    +0.000 C 
ATOM     12  C   UNL     1      -5.547  12.965  22.112  0.00  0.00    +0.000 A 
ATOM     13  C   UNL     1      -6.123  12.678  23.375  0.00  0.00    +0.000 A 
ATOM     14  C   UNL     1      -5.370  12.446  24.533  0.00  0.00    +0.000 A 
ATOM     15  C   UNL     1      -3.990  12.479  24.475  0.00  0.00    +0.000 A 
ATOM     16  C   UNL     1      -3.374  12.762  23.263  0.00  0.00    +0.000 A 
ATOM     17  C   UNL     1      -4.124  13.016  22.090  0.00  0.00    +0.000 A 
ATOM     18  S   UNL     1      -3.071  13.431  20.688  0.00  0.00    +0.000 S 
ATOM     19  H   UNL     1      -5.114  10.395  16.640  0.00  0.00    +0.000 HD
ENDROOT
BRANCH   1  20
ATOM     20  C   UNL     1      -1.691  11.037  19.390  0.00  0.00    +0.000 C 
BRANCH  20  21
ATOM     21  O   UNL     1      -0.631  11.759  18.754  0.00  0.00    +0.000 OA
BRANCH  21  22
ATOM     22  C   UNL     1       0.614  11.765  19.451  0.00  0.00    +0.000 C 
BRANCH  22  23
ATOM     23  C   UNL     1       0.463  11.781  20.971  0.00  0.00    +0.000 C 
BRANCH  23  24
ATOM     24  O   UNL     1       1.075  10.628  21.561  0.00  0.00    +0.000 OA
BRANCH  24  26
ATOM     25  C   UNL     1      -0.150   8.643  21.658  0.00  0.00    +0.000 C 
ATOM     26  C   UNL     1       0.266   9.892  22.368  0.00  0.00    +0.000 C 
ATOM     27  O   UNL     1      -0.075  10.195  23.501  0.00  0.00    +0.000 OA
ENDBRANCH  24  26
ENDBRANCH  23  24
ENDBRANCH  22  23
ENDBRANCH  21  22
ENDBRANCH  20  21
ENDBRANCH   1  20
TORSDOF 6
ENDMDL
MODEL 8
REMARK VINA RESULT:      -6.3      2.822      4.668
REMARK  Name = 
REMARK  8 active torsions:
REMARK  status: ('A' for Active; 'I' for Inactive)
REMARK    1  A    between atoms: C_1  and  C_2
REMARK    2  A    between atoms: C_2  and  O_4
REMARK    3  A    between atoms: O_4  and  C_5
REMARK    4  A    between atoms: C_5  and  C_6
REMARK    5  A    between atoms: C_6  and  O_7
REMARK    6  A    between atoms: O_7  and  C_8
REMARK    7  A    between atoms: C_8  and  N_9
REMARK    8  A    between atoms: N_18  and  C_19
REMARK                            x       y       z     vdW  Elec       q    Type
REMARK                         _______ _______ _______ _____ _____    ______ ____
ROOT
ATOM      1  N   UNL     1       5.738   5.916  17.617  0.00  0.00    +0.000 N 
ATOM      2  C   UNL     1       4.396   5.631  17.859  0.00  0.00    +0.000 A 
ATOM      3  C   UNL     1       4.020   4.538  18.539  0.00  0.00    +0.000 A 
ATOM      4  C   UNL     1       5.058   3.609  19.010  0.00  0.00    +0.000 A 
ATOM      5  O   UNL     1       4.801   2.609  19.674  0.00  0.00    +0.000 OA
ATOM      6  N   UNL     1       6.337   3.909  18.649  0.00  0.00    +0.000 N 
ATOM      7  C   UNL     1       6.740   5.040  17.997  0.00  0.00    +0.000 A 
ATOM      8  O   UNL     1       7.942   5.222  17.806  0.00  0.00    +0.000 OA
ATOM      9  C   UNL     1       2.596   4.216  18.857  0.00  0.00    +0.000 C 
ATOM     10  N   UNL     1       2.143   5.065  19.963  0.00  0.00    +0.000 N 
ATOM     11  C   UNL     1       1.868   4.377  21.225  0.00  0.00    +0.000 C 
ATOM     12  C   UNL     1       1.967   6.449  19.850  0.00  0.00    +0.000 A 
ATOM     13  C   UNL     1       1.326   7.155  20.899  0.00  0.00    +0.000 A 
ATOM     14  C   UNL     1       1.119   8.540  20.885  0.00  0.00    +0.000 A 
ATOM     15  C   UNL     1       1.563   9.292  19.814  0.00  0.00    +0.000 A 
ATOM     16  C   UNL     1       2.193   8.649  18.756  0.00  0.00    +0.000 A 
ATOM     17  C   UNL     1       2.391   7.248  18.750  0.00  0.00    +0.000 A 
ATOM     18  S   UNL     1       3.159   6.677  17.222  0.00  0.00    +0.000 S 
ATOM     19  H   UNL     1       7.065   3.291  18.969  0.00  0.00    +0.000 HD
ENDROOT
BRANCH   1  20
ATOM     20  C   UNL     1       6.164   7.190  17.050  0.00  0.00    +0.000 C 
BRANCH  20  21
ATOM     21  O   UNL     1       6.862   7.986  18.014  0.00  0.00    +0.000 OA
BRANCH  21  22
ATOM     22  C   UNL     1       8.003   8.687  17.522  0.00  0.00    +0.000 C 
BRANCH  22  23
ATOM     23  C   UNL     1       8.663   9.587  18.565  0.00  0.00    +0.000 C 
BRANCH  23  24
ATOM     24  O   UNL     1       9.483  10.583  17.941  0.00  0.00    +0.000 OA
BRANCH  24  26
ATOM     25  C   UNL     1       9.717  11.212  20.177  0.00  0.00    +0.000 C 
ATOM     26  C   UNL     1      10.264  11.304  18.788  0.00  0.00    +0.000 C 
ATOM     27  O   UNL     1      11.261  11.936  18.473  0.00  0.00    +0.000 OA
ENDBRANCH  24  26
ENDBRANCH  23  24
ENDBRANCH  22  23
ENDBRANCH  21  22
ENDBRANCH  20  21
ENDBRANCH   1  20
TORSDOF 6
ENDMDL
MODEL 9
REMARK VINA RESULT:      -6.3      2.960      6.092
REMARK  Name = 
REMARK  8 active torsions:
REMARK  status: ('A' for Active; 'I' for Inactive)
REMARK    1  A    between atoms: C_1  and  C_2
REMARK    2  A    between atoms: C_2  and  O_4
REMARK    3  A    between atoms: O_4  and  C_5
REMARK    4  A    between atoms: C_5  and  C_6
REMARK    5  A    between atoms: C_6  and  O_7
REMARK    6  A    between atoms: O_7  and  C_8
REMARK    7  A    between atoms: C_8  and  N_9
REMARK    8  A    between atoms: N_18  and  C_19
REMARK                            x       y       z     vdW  Elec       q    Type
REMARK                         _______ _______ _______ _____ _____    ______ ____
ROOT
ATOM      1  N   UNL     1       4.160   6.468  17.333  0.00  0.00    +0.000 N 
ATOM      2  C   UNL     1       3.477   5.255  17.352  0.00  0.00    +0.000 A 
ATOM      3  C   UNL     1       4.017   4.134  16.853  0.00  0.00    +0.000 A 
ATOM      4  C   UNL     1       5.354   4.206  16.244  0.00  0.00    +0.000 A 
ATOM      5  O   UNL     1       5.935   3.221  15.802  0.00  0.00    +0.000 OA
ATOM      6  N   UNL     1       5.913   5.447  16.177  0.00  0.00    +0.000 N 
ATOM      7  C   UNL     1       5.396   6.589  16.721  0.00  0.00    +0.000 A 
ATOM      8  O   UNL     1       6.049   7.629  16.656  0.00  0.00    +0.000 OA
ATOM      9  C   UNL     1       3.337   2.804  16.892  0.00  0.00    +0.000 C 
ATOM     10  N   UNL     1       3.432   2.251  18.246  0.00  0.00    +0.000 N 
ATOM     11  C   UNL     1       4.273   1.062  18.393  0.00  0.00    +0.000 C 
ATOM     12  C   UNL     1       2.767   2.797  19.350  0.00  0.00    +0.000 A 
ATOM     13  C   UNL     1       2.743   2.079  20.571  0.00  0.00    +0.000 A 
ATOM     14  C   UNL     1       2.118   2.550  21.733  0.00  0.00    +0.000 A 
ATOM     15  C   UNL     1       1.494   3.782  21.728  0.00  0.00    +0.000 A 
ATOM     16  C   UNL     1       1.482   4.525  20.556  0.00  0.00    +0.000 A 
ATOM     17  C   UNL     1       2.094   4.052  19.370  0.00  0.00    +0.000 A 
ATOM     18  S   UNL     1       1.857   5.183  17.986  0.00  0.00    +0.000 S 
ATOM     19  H   UNL     1       6.833   5.518  15.772  0.00  0.00    +0.000 HD
ENDROOT
BRANCH   1  20
ATOM     20  C   UNL     1       3.664   7.643  18.039  0.00  0.00    +0.000 C 
BRANCH  20  21
ATOM     21  O   UNL     1       2.810   8.434  17.207  0.00  0.00    +0.000 OA
BRANCH  21  22
ATOM     22  C   UNL     1       1.920   9.311  17.896  0.00  0.00    +0.000 C 
BRANCH  22  23
ATOM     23  C   UNL     1       1.520   8.810  19.282  0.00  0.00    +0.000 C 
BRANCH  23  24
ATOM     24  O   UNL     1       0.574   9.695  19.896  0.00  0.00    +0.000 OA
BRANCH  24  26
ATOM     25  C   UNL     1       0.983   8.916  22.059  0.00  0.00    +0.000 C 
ATOM     26  C   UNL     1       0.893  10.103  21.153  0.00  0.00    +0.000 C 
ATOM     27  O   UNL     1       1.079  11.259  21.500  0.00  0.00    +0.000 OA
ENDBRANCH  24  26
ENDBRANCH  23  24
ENDBRANCH  22  23
ENDBRANCH  21  22
ENDBRANCH  20  21
ENDBRANCH   1  20
TORSDOF 6
ENDMDL
