MODEL 1
REMARK VINA RESULT:      -8.1      0.000      0.000
REMARK  Name = 
REMARK  4 active torsions:
REMARK  status: ('A' for Active; 'I' for Inactive)
REMARK    1  A    between atoms: C_1  and  C_2
REMARK    2  A    between atoms: C_2  and  O_3
REMARK    3  A    between atoms: O_3  and  C_4
REMARK    4  A    between atoms: C_4  and  C_6
REMARK                            x       y       z     vdW  Elec       q    Type
REMARK                         _______ _______ _______ _____ _____    ______ ____
ROOT
ATOM      1  C   UNL     1       5.711   4.521  17.542  0.00  0.00    +0.000 A 
ATOM      2  N   UNL     1       5.381   3.726  18.614  0.00  0.00    +0.000 N 
ATOM      3  N   UNL     1       4.432   4.245  19.423  0.00  0.00    +0.000 NA
ATOM      4  C   UNL     1       4.101   5.365  18.789  0.00  0.00    +0.000 A 
ATOM      5  C   UNL     1       4.846   5.596  17.609  0.00  0.00    +0.000 A 
ATOM      6  C   UNL     1       4.711   6.867  16.814  0.00  0.00    +0.000 C 
ATOM      7  C   UNL     1       3.310   7.524  16.976  0.00  0.00    +0.000 C 
ATOM      8  C   UNL     1       2.779   7.409  18.381  0.00  0.00    +0.000 A 
ATOM      9  C   UNL     1       3.127   6.370  19.218  0.00  0.00    +0.000 A 
ATOM     10  N   UNL     1       2.492   6.500  20.407  0.00  0.00    +0.000 N 
ATOM     11  C   UNL     1       1.787   7.687  20.408  0.00  0.00    +0.000 A 
ATOM     12  C   UNL     1       1.079   8.310  21.438  0.00  0.00    +0.000 A 
ATOM     13  C   UNL     1       0.441   9.520  21.149  0.00  0.00    +0.000 A 
ATOM     14  C   UNL     1       0.477  10.062  19.864  0.00  0.00    +0.000 A 
ATOM     15  C   UNL     1       1.193   9.430  18.842  0.00  0.00    +0.000 A 
ATOM     16  C   UNL     1       1.893   8.239  19.122  0.00  0.00    +0.000 A 
ATOM     17  H   UNL     1       5.817   2.846  18.877  0.00  0.00    +0.000 HD
ATOM     18  H   UNL     1       2.596   5.868  21.189  0.00  0.00    +0.000 HD
ENDROOT
BRANCH   1  19
ATOM     19  C   UNL     1       6.820   4.205  16.693  0.00  0.00    +0.000 C 
ATOM     20  O   UNL     1       7.987   4.459  16.960  0.00  0.00    +0.000 OA
BRANCH  19  21
ATOM     21  O   UNL     1       6.372   3.708  15.512  0.00  0.00    +0.000 OA
BRANCH  21  23
ATOM     22  C   UNL     1       6.178   3.760  13.135  0.00  0.00    +0.000 C 
ATOM     23  C   UNL     1       6.626   4.527  14.365  0.00  0.00    +0.000 C 
ENDBRANCH  21  23
ENDBRANCH  19  21
ENDBRANCH   1  19
TORSDOF 3
ENDMDL
MODEL 2
REMARK VINA RESULT:      -7.6      1.678      2.256
REMARK  Name = 
REMARK  4 active torsions:
REMARK  status: ('A' for Active; 'I' for Inactive)
REMARK    1  A    between atoms: C_1  and  C_2
REMARK    2  A    between atoms: C_2  and  O_3
REMARK    3  A    between atoms: O_3  and  C_4
REMARK    4  A    between atoms: C_4  and  C_6
REMARK                            x       y       z     vdW  Elec       q    Type
REMARK                         _______ _______ _______ _____ _____    ______ ____
ROOT
ATOM      1  C   UNL     1       4.235   4.835  18.446  0.00  0.00    +0.000 A 
ATOM      2  N   UNL     1       3.743   4.150  19.531  0.00  0.00    +0.000 N 
ATOM      3  N   UNL     1       2.895   4.864  20.304  0.00  0.00    +0.000 NA
ATOM      4  C   UNL     1       2.793   6.005  19.631  0.00  0.00    +0.000 A 
ATOM      5  C   UNL     1       3.589   6.055  18.463  0.00  0.00    +0.000 A 
ATOM      6  C   UNL     1       3.709   7.302  17.630  0.00  0.00    +0.000 C 
ATOM      7  C   UNL     1       2.456   8.216  17.741  0.00  0.00    +0.000 C 
ATOM      8  C   UNL     1       1.888   8.248  19.136  0.00  0.00    +0.000 A 
ATOM      9  C   UNL     1       2.018   7.189  20.009  0.00  0.00    +0.000 A 
ATOM     10  N   UNL     1       1.398   7.474  21.179  0.00  0.00    +0.000 N 
ATOM     11  C   UNL     1       0.931   8.772  21.131  0.00  0.00    +0.000 A 
ATOM     12  C   UNL     1       0.335   9.550  22.126  0.00  0.00    +0.000 A 
ATOM     13  C   UNL     1      -0.057  10.848  21.789  0.00  0.00    +0.000 A 
ATOM     14  C   UNL     1       0.103  11.332  20.491  0.00  0.00    +0.000 A 
ATOM     15  C   UNL     1       0.705  10.545  19.504  0.00  0.00    +0.000 A 
ATOM     16  C   UNL     1       1.161   9.253  19.833  0.00  0.00    +0.000 A 
ATOM     17  H   UNL     1       4.000   3.213  19.828  0.00  0.00    +0.000 HD
ATOM     18  H   UNL     1       1.368   6.859  21.980  0.00  0.00    +0.000 HD
ENDROOT
BRANCH   1  19
ATOM     19  C   UNL     1       5.280   4.288  17.632  0.00  0.00    +0.000 C 
ATOM     20  O   UNL     1       5.117   3.855  16.500  0.00  0.00    +0.000 OA
BRANCH  19  21
ATOM     21  O   UNL     1       6.429   4.206  18.350  0.00  0.00    +0.000 OA
BRANCH  21  23
ATOM     22  C   UNL     1       7.616   6.269  18.182  0.00  0.00    +0.000 C 
ATOM     23  C   UNL     1       7.576   4.816  17.746  0.00  0.00    +0.000 C 
ENDBRANCH  21  23
ENDBRANCH  19  21
ENDBRANCH   1  19
TORSDOF 3
ENDMDL
MODEL 3
REMARK VINA RESULT:      -7.5      1.439      2.281
REMARK  Name = 
REMARK  4 active torsions:
REMARK  status: ('A' for Active; 'I' for Inactive)
REMARK    1  A    between atoms: C_1  and  C_2
REMARK    2  A    between atoms: C_2  and  O_3
REMARK    3  A    between atoms: O_3  and  C_4
REMARK    4  A    between atoms: C_4  and  C_6
REMARK                            x       y       z     vdW  Elec       q    Type
REMARK                         _______ _______ _______ _____ _____    ______ ____
ROOT
ATOM      1  C   UNL     1       4.055   6.209  17.681  0.00  0.00    +0.000 A 
ATOM      2  N   UNL     1       3.992   5.285  18.698  0.00  0.00    +0.000 N 
ATOM      3  N   UNL     1       3.223   5.657  19.743  0.00  0.00    +0.000 NA
ATOM      4  C   UNL     1       2.724   6.817  19.329  0.00  0.00    +0.000 A 
ATOM      5  C   UNL     1       3.189   7.218  18.054  0.00  0.00    +0.000 A 
ATOM      6  C   UNL     1       2.841   8.556  17.460  0.00  0.00    +0.000 C 
ATOM      7  C   UNL     1       1.487   9.108  17.989  0.00  0.00    +0.000 C 
ATOM      8  C   UNL     1       1.275   8.812  19.451  0.00  0.00    +0.000 A 
ATOM      9  C   UNL     1       1.830   7.711  20.068  0.00  0.00    +0.000 A 
ATOM     10  N   UNL     1       1.462   7.675  21.370  0.00  0.00    +0.000 N 
ATOM     11  C   UNL     1       0.733   8.811  21.659  0.00  0.00    +0.000 A 
ATOM     12  C   UNL     1       0.242   9.277  22.880  0.00  0.00    +0.000 A 
ATOM     13  C   UNL     1      -0.484  10.472  22.877  0.00  0.00    +0.000 A 
ATOM     14  C   UNL     1      -0.745  11.149  21.685  0.00  0.00    +0.000 A 
ATOM     15  C   UNL     1      -0.244  10.674  20.469  0.00  0.00    +0.000 A 
ATOM     16  C   UNL     1       0.540   9.504  20.454  0.00  0.00    +0.000 A 
ATOM     17  H   UNL     1       4.505   4.410  18.758  0.00  0.00    +0.000 HD
ATOM     18  H   UNL     1       1.754   6.970  22.033  0.00  0.00    +0.000 HD
ENDROOT
BRANCH   1  19
ATOM     19  C   UNL     1       4.967   6.052  16.587  0.00  0.00    +0.000 C 
ATOM     20  O   UNL     1       5.134   6.882  15.705  0.00  0.00    +0.000 OA
BRANCH  19  21
ATOM     21  O   UNL     1       5.506   4.806  16.611  0.00  0.00    +0.000 OA
BRANCH  21  23
ATOM     22  C   UNL     1       6.171   3.888  14.511  0.00  0.00    +0.000 C 
ATOM     23  C   UNL     1       6.641   4.612  15.760  0.00  0.00    +0.000 C 
ENDBRANCH  21  23
ENDBRANCH  19  21
ENDBRANCH   1  19
TORSDOF 3
ENDMDL
MODEL 4
REMARK VINA RESULT:      -7.5      4.156      7.141
REMARK  Name = 
REMARK  4 active torsions:
REMARK  status: ('A' for Active; 'I' for Inactive)
REMARK    1  A    between atoms: C_1  and  C_2
REMARK    2  A    between atoms: C_2  and  O_3
REMARK    3  A    between atoms: O_3  and  C_4
REMARK    4  A    between atoms: C_4  and  C_6
REMARK                            x       y       z     vdW  Elec       q    Type
REMARK                         _______ _______ _______ _____ _____    ______ ____
ROOT
ATOM      1  C   UNL     1       0.463  10.237  20.244  0.00  0.00    +0.000 A 
ATOM      2  N   UNL     1       0.521   9.771  21.536  0.00  0.00    +0.000 N 
ATOM      3  N   UNL     1       1.116   8.566  21.669  0.00  0.00    +0.000 NA
ATOM      4  C   UNL     1       1.514   8.309  20.427  0.00  0.00    +0.000 A 
ATOM      5  C   UNL     1       1.152   9.306  19.492  0.00  0.00    +0.000 A 
ATOM      6  C   UNL     1       1.400   9.146  18.016  0.00  0.00    +0.000 C 
ATOM      7  C   UNL     1       2.608   8.215  17.713  0.00  0.00    +0.000 C 
ATOM      8  C   UNL     1       2.686   7.046  18.660  0.00  0.00    +0.000 A 
ATOM      9  C   UNL     1       2.202   7.108  19.949  0.00  0.00    +0.000 A 
ATOM     10  N   UNL     1       2.421   5.932  20.584  0.00  0.00    +0.000 N 
ATOM     11  C   UNL     1       2.968   5.037  19.686  0.00  0.00    +0.000 A 
ATOM     12  C   UNL     1       3.257   3.679  19.835  0.00  0.00    +0.000 A 
ATOM     13  C   UNL     1       3.829   3.012  18.748  0.00  0.00    +0.000 A 
ATOM     14  C   UNL     1       4.139   3.694  17.570  0.00  0.00    +0.000 A 
ATOM     15  C   UNL     1       3.841   5.053  17.432  0.00  0.00    +0.000 A 
ATOM     16  C   UNL     1       3.212   5.734  18.493  0.00  0.00    +0.000 A 
ATOM     17  H   UNL     1       0.115  10.207  22.359  0.00  0.00    +0.000 HD
ATOM     18  H   UNL     1       2.143   5.728  21.533  0.00  0.00    +0.000 HD
ENDROOT
BRANCH   1  19
ATOM     19  C   UNL     1      -0.292  11.407  19.907  0.00  0.00    +0.000 C 
ATOM     20  O   UNL     1       0.063  12.551  20.154  0.00  0.00    +0.000 OA
BRANCH  19  21
ATOM     21  O   UNL     1      -1.500  11.048  19.401  0.00  0.00    +0.000 OA
BRANCH  21  23
ATOM     22  C   UNL     1      -2.189   9.982  17.381  0.00  0.00    +0.000 C 
ATOM     23  C   UNL     1      -1.667  11.268  17.996  0.00  0.00    +0.000 C 
ENDBRANCH  21  23
ENDBRANCH  19  21
ENDBRANCH   1  19
TORSDOF 3
ENDMDL
MODEL 5
REMARK VINA RESULT:      -7.5      0.977      1.260
REMARK  Name = 
REMARK  4 active torsions:
REMARK  status: ('A' for Active; 'I' for Inactive)
REMARK    1  A    between atoms: C_1  and  C_2
REMARK    2  A    between atoms: C_2  and  O_3
REMARK    3  A    between atoms: O_3  and  C_4
REMARK    4  A    between atoms: C_4  and  C_6
REMARK                            x       y       z     vdW  Elec       q    Type
REMARK                         _______ _______ _______ _____ _____    ______ ____
ROOT
ATOM      1  C   UNL     1       4.720   4.881  18.402  0.00  0.00    +0.000 A 
ATOM      2  N   UNL     1       4.250   4.153  19.469  0.00  0.00    +0.000 N 
ATOM      3  N   UNL     1       3.314   4.787  20.208  0.00  0.00    +0.000 NA
ATOM      4  C   UNL     1       3.136   5.916  19.531  0.00  0.00    +0.000 A 
ATOM      5  C   UNL     1       3.968   6.039  18.393  0.00  0.00    +0.000 A 
ATOM      6  C   UNL     1       4.009   7.294  17.563  0.00  0.00    +0.000 C 
ATOM      7  C   UNL     1       2.675   8.093  17.626  0.00  0.00    +0.000 C 
ATOM      8  C   UNL     1       2.055   8.071  18.999  0.00  0.00    +0.000 A 
ATOM      9  C   UNL     1       2.246   7.026  19.878  0.00  0.00    +0.000 A 
ATOM     10  N   UNL     1       1.559   7.252  21.022  0.00  0.00    +0.000 N 
ATOM     11  C   UNL     1       0.981   8.504  20.955  0.00  0.00    +0.000 A 
ATOM     12  C   UNL     1       0.281   9.224  21.926  0.00  0.00    +0.000 A 
ATOM     13  C   UNL     1      -0.212  10.483  21.573  0.00  0.00    +0.000 A 
ATOM     14  C   UNL     1      -0.046  10.982  20.280  0.00  0.00    +0.000 A 
ATOM     15  C   UNL     1       0.660  10.253  19.318  0.00  0.00    +0.000 A 
ATOM     16  C   UNL     1       1.216   9.007  19.666  0.00  0.00    +0.000 A 
ATOM     17  H   UNL     1       4.578   3.242  19.777  0.00  0.00    +0.000 HD
ATOM     18  H   UNL     1       1.553   6.636  21.823  0.00  0.00    +0.000 HD
ENDROOT
BRANCH   1  19
ATOM     19  C   UNL     1       5.839   4.431  17.629  0.00  0.00    +0.000 C 
ATOM     20  O   UNL     1       6.979   4.329  18.060  0.00  0.00    +0.000 OA
BRANCH  19  21
ATOM     21  O   UNL     1       5.469   4.266  16.333  0.00  0.00    +0.000 OA
BRANCH  21  23
ATOM     22  C   UNL     1       6.175   3.936  14.078  0.00  0.00    +0.000 C 
ATOM     23  C   UNL     1       6.422   4.709  15.361  0.00  0.00    +0.000 C 
ENDBRANCH  21  23
ENDBRANCH  19  21
ENDBRANCH   1  19
TORSDOF 3
ENDMDL
MODEL 6
REMARK VINA RESULT:      -7.4      3.838      5.174
REMARK  Name = 
REMARK  4 active torsions:
REMARK  status: ('A' for Active; 'I' for Inactive)
REMARK    1  A    between atoms: C_1  and  C_2
REMARK    2  A    between atoms: C_2  and  O_3
REMARK    3  A    between atoms: O_3  and  C_4
REMARK    4  A    between atoms: C_4  and  C_6
REMARK                            x       y       z     vdW  Elec       q    Type
REMARK                         _______ _______ _______ _____ _____    ______ ____
ROOT
ATOM      1  C   UNL     1       7.598   6.995  18.383  0.00  0.00    +0.000 A 
ATOM      2  N   UNL     1       8.163   6.227  19.374  0.00  0.00    +0.000 N 
ATOM      3  N   UNL     1       7.375   5.225  19.821  0.00  0.00    +0.000 NA
ATOM      4  C   UNL     1       6.315   5.322  19.026  0.00  0.00    +0.000 A 
ATOM      5  C   UNL     1       6.389   6.391  18.101  0.00  0.00    +0.000 A 
ATOM      6  C   UNL     1       5.240   6.746  17.197  0.00  0.00    +0.000 C 
ATOM      7  C   UNL     1       4.329   5.524  16.884  0.00  0.00    +0.000 C 
ATOM      8  C   UNL     1       4.148   4.620  18.075  0.00  0.00    +0.000 A 
ATOM      9  C   UNL     1       5.103   4.501  19.062  0.00  0.00    +0.000 A 
ATOM     10  N   UNL     1       4.696   3.609  19.996  0.00  0.00    +0.000 N 
ATOM     11  C   UNL     1       3.415   3.197  19.689  0.00  0.00    +0.000 A 
ATOM     12  C   UNL     1       2.537   2.383  20.409  0.00  0.00    +0.000 A 
ATOM     13  C   UNL     1       1.287   2.116  19.844  0.00  0.00    +0.000 A 
ATOM     14  C   UNL     1       0.947   2.613  18.585  0.00  0.00    +0.000 A 
ATOM     15  C   UNL     1       1.833   3.430  17.877  0.00  0.00    +0.000 A 
ATOM     16  C   UNL     1       3.078   3.761  18.449  0.00  0.00    +0.000 A 
ATOM     17  H   UNL     1       9.060   6.381  19.826  0.00  0.00    +0.000 HD
ATOM     18  H   UNL     1       5.219   3.363  20.825  0.00  0.00    +0.000 HD
ENDROOT
BRANCH   1  19
ATOM     19  C   UNL     1       8.223   8.201  17.928  0.00  0.00    +0.000 C 
ATOM     20  O   UNL     1       8.297   8.538  16.755  0.00  0.00    +0.000 OA
BRANCH  19  21
ATOM     21  O   UNL     1       8.823   8.832  18.969  0.00  0.00    +0.000 OA
BRANCH  21  23
ATOM     22  C   UNL     1       9.782  10.755  20.005  0.00  0.00    +0.000 C 
ATOM     23  C   UNL     1       8.965  10.249  18.830  0.00  0.00    +0.000 C 
ENDBRANCH  21  23
ENDBRANCH  19  21
ENDBRANCH   1  19
TORSDOF 3
ENDMDL
MODEL 7
REMARK VINA RESULT:      -7.2      4.077      7.055
REMARK  Name = 
REMARK  4 active torsions:
REMARK  status: ('A' for Active; 'I' for Inactive)
REMARK    1  A    between atoms: C_1  and  C_2
REMARK    2  A    between atoms: C_2  and  O_3
REMARK    3  A    between atoms: O_3  and  C_4
REMARK    4  A    between atoms: C_4  and  C_6
REMARK                            x       y       z     vdW  Elec       q    Type
REMARK                         _______ _______ _______ _____ _____    ______ ____
ROOT
ATOM      1  C   UNL     1       0.711  10.179  20.085  0.00  0.00    +0.000 A 
ATOM      2  N   UNL     1       0.704   9.744  21.389  0.00  0.00    +0.000 N 
ATOM      3  N   UNL     1       1.209   8.505  21.568  0.00  0.00    +0.000 NA
ATOM      4  C   UNL     1       1.619   8.187  20.345  0.00  0.00    +0.000 A 
ATOM      5  C   UNL     1       1.352   9.182  19.375  0.00  0.00    +0.000 A 
ATOM      6  C   UNL     1       1.625   8.966  17.911  0.00  0.00    +0.000 C 
ATOM      7  C   UNL     1       2.772   7.945  17.664  0.00  0.00    +0.000 C 
ATOM      8  C   UNL     1       2.744   6.799  18.641  0.00  0.00    +0.000 A 
ATOM      9  C   UNL     1       2.233   6.929  19.915  0.00  0.00    +0.000 A 
ATOM     10  N   UNL     1       2.353   5.758  20.585  0.00  0.00    +0.000 N 
ATOM     11  C   UNL     1       2.858   4.804  19.725  0.00  0.00    +0.000 A 
ATOM     12  C   UNL     1       3.047   3.433  19.915  0.00  0.00    +0.000 A 
ATOM     13  C   UNL     1       3.598   2.699  18.860  0.00  0.00    +0.000 A 
ATOM     14  C   UNL     1       3.985   3.326  17.676  0.00  0.00    +0.000 A 
ATOM     15  C   UNL     1       3.787   4.699  17.496  0.00  0.00    +0.000 A 
ATOM     16  C   UNL     1       3.181   5.450  18.522  0.00  0.00    +0.000 A 
ATOM     17  H   UNL     1       0.309  10.229  22.190  0.00  0.00    +0.000 HD
ATOM     18  H   UNL     1       2.037   5.600  21.531  0.00  0.00    +0.000 HD
ENDROOT
BRANCH   1  19
ATOM     19  C   UNL     1       0.049  11.389  19.699  0.00  0.00    +0.000 C 
ATOM     20  O   UNL     1      -1.027  11.432  19.119  0.00  0.00    +0.000 OA
BRANCH  19  21
ATOM     21  O   UNL     1       0.850  12.455  19.954  0.00  0.00    +0.000 OA
BRANCH  21  23
ATOM     22  C   UNL     1       2.465  12.758  18.224  0.00  0.00    +0.000 C 
ATOM     23  C   UNL     1       1.167  13.270  18.820  0.00  0.00    +0.000 C 
ENDBRANCH  21  23
ENDBRANCH  19  21
ENDBRANCH   1  19
TORSDOF 3
ENDMDL
MODEL 8
REMARK VINA RESULT:      -7.1      2.933      3.898
REMARK  Name = 
REMARK  4 active torsions:
REMARK  status: ('A' for Active; 'I' for Inactive)
REMARK    1  A    between atoms: C_1  and  C_2
REMARK    2  A    between atoms: C_2  and  O_3
REMARK    3  A    between atoms: O_3  and  C_4
REMARK    4  A    between atoms: C_4  and  C_6
REMARK                            x       y       z     vdW  Elec       q    Type
REMARK                         _______ _______ _______ _____ _____    ______ ____
ROOT
ATOM      1  C   UNL     1       6.878   5.204  15.378  0.00  0.00    +0.000 A 
ATOM      2  N   UNL     1       7.368   6.094  16.305  0.00  0.00    +0.000 N 
ATOM      3  N   UNL     1       6.686   6.119  17.470  0.00  0.00    +0.000 NA
ATOM      4  C   UNL     1       5.790   5.154  17.294  0.00  0.00    +0.000 A 
ATOM      5  C   UNL     1       5.856   4.536  16.023  0.00  0.00    +0.000 A 
ATOM      6  C   UNL     1       4.851   3.507  15.580  0.00  0.00    +0.000 C 
ATOM      7  C   UNL     1       4.225   2.733  16.776  0.00  0.00    +0.000 C 
ATOM      8  C   UNL     1       3.978   3.619  17.969  0.00  0.00    +0.000 A 
ATOM      9  C   UNL     1       4.741   4.737  18.228  0.00  0.00    +0.000 A 
ATOM     10  N   UNL     1       4.321   5.332  19.369  0.00  0.00    +0.000 N 
ATOM     11  C   UNL     1       3.203   4.667  19.832  0.00  0.00    +0.000 A 
ATOM     12  C   UNL     1       2.352   4.973  20.896  0.00  0.00    +0.000 A 
ATOM     13  C   UNL     1       1.287   4.103  21.149  0.00  0.00    +0.000 A 
ATOM     14  C   UNL     1       1.109   2.947  20.388  0.00  0.00    +0.000 A 
ATOM     15  C   UNL     1       1.965   2.654  19.322  0.00  0.00    +0.000 A 
ATOM     16  C   UNL     1       3.012   3.545  19.011  0.00  0.00    +0.000 A 
ATOM     17  H   UNL     1       8.129   6.754  16.172  0.00  0.00    +0.000 HD
ATOM     18  H   UNL     1       4.715   6.177  19.759  0.00  0.00    +0.000 HD
ENDROOT
BRANCH   1  19
ATOM     19  C   UNL     1       7.371   5.183  14.033  0.00  0.00    +0.000 C 
ATOM     20  O   UNL     1       8.430   5.682  13.679  0.00  0.00    +0.000 OA
BRANCH  19  21
ATOM     21  O   UNL     1       6.434   4.651  13.207  0.00  0.00    +0.000 OA
BRANCH  21  23
ATOM     22  C   UNL     1       5.804   2.767  11.887  0.00  0.00    +0.000 C 
ATOM     23  C   UNL     1       6.929   3.725  12.234  0.00  0.00    +0.000 C 
ENDBRANCH  21  23
ENDBRANCH  19  21
ENDBRANCH   1  19
TORSDOF 3
ENDMDL
MODEL 9
REMARK VINA RESULT:      -7.1      1.561      2.287
REMARK  Name = 
REMARK  4 active torsions:
REMARK  status: ('A' for Active; 'I' for Inactive)
REMARK    1  A    between atoms: C_1  and  C_2
REMARK    2  A    between atoms: C_2  and  O_3
REMARK    3  A    between atoms: O_3  and  C_4
REMARK    4  A    between atoms: C_4  and  C_6
REMARK                            x       y       z     vdW  Elec       q    Type
REMARK                         _______ _______ _______ _____ _____    ______ ____
ROOT
ATOM      1  C   UNL     1       3.755   5.040  18.937  0.00  0.00    +0.000 A 
ATOM      2  N   UNL     1       3.143   4.515  20.050  0.00  0.00    +0.000 N 
ATOM      3  N   UNL     1       2.312   5.368  20.686  0.00  0.00    +0.000 NA
ATOM      4  C   UNL     1       2.344   6.436  19.896  0.00  0.00    +0.000 A 
ATOM      5  C   UNL     1       3.211   6.300  18.786  0.00  0.00    +0.000 A 
ATOM      6  C   UNL     1       3.484   7.440  17.841  0.00  0.00    +0.000 C 
ATOM      7  C   UNL     1       2.305   8.452  17.773  0.00  0.00    +0.000 C 
ATOM      8  C   UNL     1       1.659   8.675  19.115  0.00  0.00    +0.000 A 
ATOM      9  C   UNL     1       1.648   7.708  20.098  0.00  0.00    +0.000 A 
ATOM     10  N   UNL     1       0.984   8.161  21.187  0.00  0.00    +0.000 N 
ATOM     11  C   UNL     1       0.628   9.479  20.976  0.00  0.00    +0.000 A 
ATOM     12  C   UNL     1       0.040  10.400  21.844  0.00  0.00    +0.000 A 
ATOM     13  C   UNL     1      -0.224  11.682  21.351  0.00  0.00    +0.000 A 
ATOM     14  C   UNL     1       0.054  12.011  20.024  0.00  0.00    +0.000 A 
ATOM     15  C   UNL     1       0.647  11.081  19.166  0.00  0.00    +0.000 A 
ATOM     16  C   UNL     1       0.976   9.800  19.655  0.00  0.00    +0.000 A 
ATOM     17  H   UNL     1       3.304   3.597  20.457  0.00  0.00    +0.000 HD
ATOM     18  H   UNL     1       0.855   7.640  22.043  0.00  0.00    +0.000 HD
ENDROOT
BRANCH   1  19
ATOM     19  C   UNL     1       4.799   4.333  18.256  0.00  0.00    +0.000 C 
ATOM     20  O   UNL     1       5.903   4.110  18.731  0.00  0.00    +0.000 OA
BRANCH  19  21
ATOM     21  O   UNL     1       4.422   4.072  16.979  0.00  0.00    +0.000 OA
BRANCH  21  23
ATOM     22  C   UNL     1       5.477   5.531  15.412  0.00  0.00    +0.000 C 
ATOM     23  C   UNL     1       5.470   4.133  16.005  0.00  0.00    +0.000 C 
ENDBRANCH  21  23
ENDBRANCH  19  21
ENDBRANCH   1  19
TORSDOF 3
ENDMDL
