MODEL 1
REMARK VINA RESULT:      -6.8      0.000      0.000
REMARK  Name = 
REMARK  9 active torsions:
REMARK  status: ('A' for Active; 'I' for Inactive)
REMARK    1  A    between atoms: C_1  and  N_2
REMARK    2  A    between atoms: N_2  and  C_3
REMARK    3  A    between atoms: C_6  and  C_7
REMARK    4  A    between atoms: C_8  and  C_9
REMARK    5  A    between atoms: C_9  and  O_11
REMARK    6  A    between atoms: O_11  and  C_12
REMARK    7  A    between atoms: C_12  and  C_13
REMARK    8  A    between atoms: C_12  and  C_14
REMARK    9  A    between atoms: C_14  and  C_16
REMARK                            x       y       z     vdW  Elec       q    Type
REMARK                         _______ _______ _______ _____ _____    ______ ____
ROOT
ATOM      1  O   UNL     1       4.725   5.693  18.986  0.00  0.00    +0.000 OA
ENDROOT
BRANCH   1   2
ATOM      2  C   UNL     1       4.647   4.361  19.298  0.00  0.00    +0.000 C 
ATOM      3  O   UNL     1       5.640   3.648  19.402  0.00  0.00    +0.000 OA
BRANCH   2   9
ATOM      4  C   UNL     1       2.303   4.467  20.293  0.00  0.00    +0.000 A 
ATOM      5  S   UNL     1       0.877   3.500  20.168  0.00  0.00    +0.000 S 
ATOM      6  N   UNL     1       1.521   2.322  19.223  0.00  0.00    +0.000 NA
ATOM      7  C   UNL     1       2.786   2.627  18.949  0.00  0.00    +0.000 A 
ATOM      8  C   UNL     1       3.553   1.660  18.109  0.00  0.00    +0.000 C 
ATOM      9  C   UNL     1       3.289   3.866  19.512  0.00  0.00    +0.000 A 
BRANCH   4  11
ATOM     10  C   UNL     1       1.710   6.825  20.601  0.00  0.00    +0.000 C 
ATOM     11  N   UNL     1       2.385   5.614  21.031  0.00  0.00    +0.000 N 
ATOM     12  H   UNL     1       2.453   5.522  22.042  0.00  0.00    +0.000 HD
ENDBRANCH   4  11
ENDBRANCH   2   9
ENDBRANCH   1   2
BRANCH   1  13
ATOM     13  C   UNL     1       4.496   6.012  17.602  0.00  0.00    +0.000 C 
ATOM     14  C   UNL     1       3.724   7.328  17.507  0.00  0.00    +0.000 C 
BRANCH  13  15
ATOM     15  C   UNL     1       5.854   6.123  16.904  0.00  0.00    +0.000 C 
ATOM     16  O   UNL     1       6.776   6.820  17.331  0.00  0.00    +0.000 OA
BRANCH  15  17
ATOM     17  C   UNL     1       6.080   5.358  15.642  0.00  0.00    +0.000 A 
ATOM     18  C   UNL     1       7.229   5.535  14.860  0.00  0.00    +0.000 A 
ATOM     19  C   UNL     1       7.387   4.804  13.680  0.00  0.00    +0.000 A 
ATOM     20  C   UNL     1       6.403   3.900  13.290  0.00  0.00    +0.000 A 
ATOM     21  F   UNL     1       6.557   3.207  12.154  0.00  0.00    +0.000 F 
ATOM     22  C   UNL     1       5.265   3.704  14.061  0.00  0.00    +0.000 A 
ATOM     23  C   UNL     1       5.103   4.431  15.243  0.00  0.00    +0.000 A 
ENDBRANCH  15  17
ENDBRANCH  13  15
ENDBRANCH   1  13
TORSDOF 6
ENDMDL
MODEL 2
REMARK VINA RESULT:      -6.7      3.831      5.722
REMARK  Name = 
REMARK  9 active torsions:
REMARK  status: ('A' for Active; 'I' for Inactive)
REMARK    1  A    between atoms: C_1  and  N_2
REMARK    2  A    between atoms: N_2  and  C_3
REMARK    3  A    between atoms: C_6  and  C_7
REMARK    4  A    between atoms: C_8  and  C_9
REMARK    5  A    between atoms: C_9  and  O_11
REMARK    6  A    between atoms: O_11  and  C_12
REMARK    7  A    between atoms: C_12  and  C_13
REMARK    8  A    between atoms: C_12  and  C_14
REMARK    9  A    between atoms: C_14  and  C_16
REMARK                            x       y       z     vdW  Elec       q    Type
REMARK                         _______ _______ _______ _____ _____    ______ ____
ROOT
ATOM      1  O   UNL     1       3.577   6.467  17.249  0.00  0.00    +0.000 OA
ENDROOT
BRANCH   1   2
ATOM      2  C   UNL     1       4.803   6.549  16.642  0.00  0.00    +0.000 C 
ATOM      3  O   UNL     1       4.942   6.927  15.483  0.00  0.00    +0.000 OA
BRANCH   2   9
ATOM      4  C   UNL     1       7.049   6.939  17.781  0.00  0.00    +0.000 A 
ATOM      5  S   UNL     1       8.046   6.032  18.861  0.00  0.00    +0.000 S 
ATOM      6  N   UNL     1       7.124   4.674  18.886  0.00  0.00    +0.000 NA
ATOM      7  C   UNL     1       6.045   4.866  18.131  0.00  0.00    +0.000 A 
ATOM      8  C   UNL     1       5.085   3.729  18.013  0.00  0.00    +0.000 C 
ATOM      9  C   UNL     1       5.928   6.163  17.490  0.00  0.00    +0.000 A 
BRANCH   4  11
ATOM     10  C   UNL     1       8.264   9.048  18.077  0.00  0.00    +0.000 C 
ATOM     11  N   UNL     1       7.350   8.196  17.338  0.00  0.00    +0.000 N 
ATOM     12  H   UNL     1       7.373   8.350  16.332  0.00  0.00    +0.000 HD
ENDBRANCH   4  11
ENDBRANCH   2   9
ENDBRANCH   1   2
BRANCH   1  13
ATOM     13  C   UNL     1       3.280   7.528  18.173  0.00  0.00    +0.000 C 
ATOM     14  C   UNL     1       2.496   8.625  17.451  0.00  0.00    +0.000 C 
BRANCH  13  15
ATOM     15  C   UNL     1       2.463   6.942  19.329  0.00  0.00    +0.000 C 
ATOM     16  O   UNL     1       1.996   7.628  20.238  0.00  0.00    +0.000 OA
BRANCH  15  17
ATOM     17  C   UNL     1       2.221   5.470  19.365  0.00  0.00    +0.000 A 
ATOM     18  C   UNL     1       2.553   4.689  20.480  0.00  0.00    +0.000 A 
ATOM     19  C   UNL     1       2.318   3.311  20.459  0.00  0.00    +0.000 A 
ATOM     20  C   UNL     1       1.751   2.723  19.332  0.00  0.00    +0.000 A 
ATOM     21  F   UNL     1       1.535   1.402  19.317  0.00  0.00    +0.000 F 
ATOM     22  C   UNL     1       1.404   3.487  18.225  0.00  0.00    +0.000 A 
ATOM     23  C   UNL     1       1.635   4.865  18.241  0.00  0.00    +0.000 A 
ENDBRANCH  15  17
ENDBRANCH  13  15
ENDBRANCH   1  13
TORSDOF 6
ENDMDL
MODEL 3
REMARK VINA RESULT:      -6.6      1.137      1.494
REMARK  Name = 
REMARK  9 active torsions:
REMARK  status: ('A' for Active; 'I' for Inactive)
REMARK    1  A    between atoms: C_1  and  N_2
REMARK    2  A    between atoms: N_2  and  C_3
REMARK    3  A    between atoms: C_6  and  C_7
REMARK    4  A    between atoms: C_8  and  C_9
REMARK    5  A    between atoms: C_9  and  O_11
REMARK    6  A    between atoms: O_11  and  C_12
REMARK    7  A    between atoms: C_12  and  C_13
REMARK    8  A    between atoms: C_12  and  C_14
REMARK    9  A    between atoms: C_14  and  C_16
REMARK                            x       y       z     vdW  Elec       q    Type
REMARK                         _______ _______ _______ _____ _____    ______ ____
ROOT
ATOM      1  O   UNL     1       5.104   4.326  17.630  0.00  0.00    +0.000 OA
ENDROOT
BRANCH   1   2
ATOM      2  C   UNL     1       4.845   4.306  18.975  0.00  0.00    +0.000 C 
ATOM      3  O   UNL     1       5.686   4.613  19.814  0.00  0.00    +0.000 OA
BRANCH   2   9
ATOM      4  C   UNL     1       2.528   4.695  19.962  0.00  0.00    +0.000 A 
ATOM      5  S   UNL     1       1.083   3.758  20.097  0.00  0.00    +0.000 S 
ATOM      6  N   UNL     1       1.683   2.376  19.444  0.00  0.00    +0.000 NA
ATOM      7  C   UNL     1       2.947   2.580  19.080  0.00  0.00    +0.000 A 
ATOM      8  C   UNL     1       3.677   1.426  18.477  0.00  0.00    +0.000 C 
ATOM      9  C   UNL     1       3.484   3.905  19.325  0.00  0.00    +0.000 A 
BRANCH   4  11
ATOM     10  C   UNL     1       2.390   7.102  19.521  0.00  0.00    +0.000 C 
ATOM     11  N   UNL     1       2.647   5.981  20.407  0.00  0.00    +0.000 N 
ATOM     12  H   UNL     1       2.414   6.169  21.380  0.00  0.00    +0.000 HD
ENDBRANCH   4  11
ENDBRANCH   2   9
ENDBRANCH   1   2
BRANCH   1  13
ATOM     13  C   UNL     1       6.129   5.247  17.216  0.00  0.00    +0.000 C 
ATOM     14  C   UNL     1       7.468   4.514  17.139  0.00  0.00    +0.000 C 
BRANCH  13  15
ATOM     15  C   UNL     1       5.737   5.818  15.850  0.00  0.00    +0.000 C 
ATOM     16  O   UNL     1       5.059   6.836  15.716  0.00  0.00    +0.000 OA
BRANCH  15  17
ATOM     17  C   UNL     1       6.191   5.109  14.618  0.00  0.00    +0.000 A 
ATOM     18  C   UNL     1       7.385   5.441  13.964  0.00  0.00    +0.000 A 
ATOM     19  C   UNL     1       7.759   4.756  12.805  0.00  0.00    +0.000 A 
ATOM     20  C   UNL     1       6.944   3.741  12.309  0.00  0.00    +0.000 A 
ATOM     21  F   UNL     1       7.306   3.093  11.195  0.00  0.00    +0.000 F 
ATOM     22  C   UNL     1       5.765   3.391  12.954  0.00  0.00    +0.000 A 
ATOM     23  C   UNL     1       5.388   4.072  14.114  0.00  0.00    +0.000 A 
ENDBRANCH  15  17
ENDBRANCH  13  15
ENDBRANCH   1  13
TORSDOF 6
ENDMDL
MODEL 4
REMARK VINA RESULT:      -6.5      3.833      6.357
REMARK  Name = 
REMARK  9 active torsions:
REMARK  status: ('A' for Active; 'I' for Inactive)
REMARK    1  A    between atoms: C_1  and  N_2
REMARK    2  A    between atoms: N_2  and  C_3
REMARK    3  A    between atoms: C_6  and  C_7
REMARK    4  A    between atoms: C_8  and  C_9
REMARK    5  A    between atoms: C_9  and  O_11
REMARK    6  A    between atoms: O_11  and  C_12
REMARK    7  A    between atoms: C_12  and  C_13
REMARK    8  A    between atoms: C_12  and  C_14
REMARK    9  A    between atoms: C_14  and  C_16
REMARK                            x       y       z     vdW  Elec       q    Type
REMARK                         _______ _______ _______ _____ _____    ______ ____
ROOT
ATOM      1  O   UNL     1       4.043   7.033  18.164  0.00  0.00    +0.000 OA
ENDROOT
BRANCH   1   2
ATOM      2  C   UNL     1       5.012   6.100  18.426  0.00  0.00    +0.000 C 
ATOM      3  O   UNL     1       5.250   5.695  19.559  0.00  0.00    +0.000 OA
BRANCH   2   9
ATOM      4  C   UNL     1       5.350   4.556  16.426  0.00  0.00    +0.000 A 
ATOM      5  S   UNL     1       6.512   4.439  15.154  0.00  0.00    +0.000 S 
ATOM      6  N   UNL     1       7.498   5.643  15.678  0.00  0.00    +0.000 NA
ATOM      7  C   UNL     1       6.980   6.182  16.778  0.00  0.00    +0.000 A 
ATOM      8  C   UNL     1       7.747   7.291  17.420  0.00  0.00    +0.000 C 
ATOM      9  C   UNL     1       5.727   5.620  17.245  0.00  0.00    +0.000 A 
BRANCH   4  11
ATOM     10  C   UNL     1       4.231   2.692  17.560  0.00  0.00    +0.000 C 
ATOM     11  N   UNL     1       4.266   3.733  16.548  0.00  0.00    +0.000 N 
ATOM     12  H   UNL     1       3.350   4.121  16.331  0.00  0.00    +0.000 HD
ENDBRANCH   4  11
ENDBRANCH   2   9
ENDBRANCH   1   2
BRANCH   1  13
ATOM     13  C   UNL     1       2.848   6.912  18.956  0.00  0.00    +0.000 C 
ATOM     14  C   UNL     1       1.971   8.146  18.739  0.00  0.00    +0.000 C 
BRANCH  13  15
ATOM     15  C   UNL     1       2.115   5.638  18.527  0.00  0.00    +0.000 C 
ATOM     16  O   UNL     1       1.707   5.450  17.380  0.00  0.00    +0.000 OA
BRANCH  15  17
ATOM     17  C   UNL     1       1.873   4.571  19.542  0.00  0.00    +0.000 A 
ATOM     18  C   UNL     1       1.120   3.425  19.252  0.00  0.00    +0.000 A 
ATOM     19  C   UNL     1       0.912   2.460  20.241  0.00  0.00    +0.000 A 
ATOM     20  C   UNL     1       1.459   2.640  21.509  0.00  0.00    +0.000 A 
ATOM     21  F   UNL     1       1.250   1.715  22.453  0.00  0.00    +0.000 F 
ATOM     22  C   UNL     1       2.219   3.764  21.807  0.00  0.00    +0.000 A 
ATOM     23  C   UNL     1       2.432   4.730  20.820  0.00  0.00    +0.000 A 
ENDBRANCH  15  17
ENDBRANCH  13  15
ENDBRANCH   1  13
TORSDOF 6
ENDMDL
MODEL 5
REMARK VINA RESULT:      -6.5      1.486      1.950
REMARK  Name = 
REMARK  9 active torsions:
REMARK  status: ('A' for Active; 'I' for Inactive)
REMARK    1  A    between atoms: C_1  and  N_2
REMARK    2  A    between atoms: N_2  and  C_3
REMARK    3  A    between atoms: C_6  and  C_7
REMARK    4  A    between atoms: C_8  and  C_9
REMARK    5  A    between atoms: C_9  and  O_11
REMARK    6  A    between atoms: O_11  and  C_12
REMARK    7  A    between atoms: C_12  and  C_13
REMARK    8  A    between atoms: C_12  and  C_14
REMARK    9  A    between atoms: C_14  and  C_16
REMARK                            x       y       z     vdW  Elec       q    Type
REMARK                         _______ _______ _______ _____ _____    ______ ____
ROOT
ATOM      1  O   UNL     1       5.682   6.123  18.277  0.00  0.00    +0.000 OA
ENDROOT
BRANCH   1   2
ATOM      2  C   UNL     1       4.378   6.145  17.858  0.00  0.00    +0.000 C 
ATOM      3  O   UNL     1       4.024   6.714  16.830  0.00  0.00    +0.000 OA
BRANCH   2   9
ATOM      4  C   UNL     1       2.636   5.983  19.712  0.00  0.00    +0.000 A 
ATOM      5  S   UNL     1       1.704   4.705  20.405  0.00  0.00    +0.000 S 
ATOM      6  N   UNL     1       2.372   3.481  19.538  0.00  0.00    +0.000 NA
ATOM      7  C   UNL     1       3.270   3.985  18.695  0.00  0.00    +0.000 A 
ATOM      8  C   UNL     1       4.004   3.020  17.824  0.00  0.00    +0.000 C 
ATOM      9  C   UNL     1       3.448   5.425  18.725  0.00  0.00    +0.000 A 
BRANCH   4  11
ATOM     10  C   UNL     1       1.840   8.259  19.268  0.00  0.00    +0.000 C 
ATOM     11  N   UNL     1       2.540   7.292  20.093  0.00  0.00    +0.000 N 
ATOM     12  H   UNL     1       2.485   7.491  21.090  0.00  0.00    +0.000 HD
ENDBRANCH   4  11
ENDBRANCH   2   9
ENDBRANCH   1   2
BRANCH   1  13
ATOM     13  C   UNL     1       6.655   6.457  17.271  0.00  0.00    +0.000 C 
ATOM     14  C   UNL     1       7.742   7.336  17.891  0.00  0.00    +0.000 C 
BRANCH  13  15
ATOM     15  C   UNL     1       7.248   5.155  16.726  0.00  0.00    +0.000 C 
ATOM     16  O   UNL     1       7.983   4.421  17.388  0.00  0.00    +0.000 OA
BRANCH  15  17
ATOM     17  C   UNL     1       6.930   4.750  15.326  0.00  0.00    +0.000 A 
ATOM     18  C   UNL     1       7.724   5.144  14.239  0.00  0.00    +0.000 A 
ATOM     19  C   UNL     1       7.376   4.750  12.945  0.00  0.00    +0.000 A 
ATOM     20  C   UNL     1       6.246   3.962  12.741  0.00  0.00    +0.000 A 
ATOM     21  F   UNL     1       5.916   3.594  11.497  0.00  0.00    +0.000 F 
ATOM     22  C   UNL     1       5.459   3.553  13.809  0.00  0.00    +0.000 A 
ATOM     23  C   UNL     1       5.802   3.943  15.106  0.00  0.00    +0.000 A 
ENDBRANCH  15  17
ENDBRANCH  13  15
ENDBRANCH   1  13
TORSDOF 6
ENDMDL
MODEL 6
REMARK VINA RESULT:      -6.4      1.535      2.869
REMARK  Name = 
REMARK  9 active torsions:
REMARK  status: ('A' for Active; 'I' for Inactive)
REMARK    1  A    between atoms: C_1  and  N_2
REMARK    2  A    between atoms: N_2  and  C_3
REMARK    3  A    between atoms: C_6  and  C_7
REMARK    4  A    between atoms: C_8  and  C_9
REMARK    5  A    between atoms: C_9  and  O_11
REMARK    6  A    between atoms: O_11  and  C_12
REMARK    7  A    between atoms: C_12  and  C_13
REMARK    8  A    between atoms: C_12  and  C_14
REMARK    9  A    between atoms: C_14  and  C_16
REMARK                            x       y       z     vdW  Elec       q    Type
REMARK                         _______ _______ _______ _____ _____    ______ ____
ROOT
ATOM      1  O   UNL     1       5.399   5.027  18.083  0.00  0.00    +0.000 OA
ENDROOT
BRANCH   1   2
ATOM      2  C   UNL     1       4.102   4.649  17.852  0.00  0.00    +0.000 C 
ATOM      3  O   UNL     1       3.703   4.304  16.745  0.00  0.00    +0.000 OA
BRANCH   2   9
ATOM      4  C   UNL     1       2.960   3.602  19.876  0.00  0.00    +0.000 A 
ATOM      5  S   UNL     1       1.932   4.184  21.136  0.00  0.00    +0.000 S 
ATOM      6  N   UNL     1       1.788   5.721  20.579  0.00  0.00    +0.000 NA
ATOM      7  C   UNL     1       2.518   5.854  19.474  0.00  0.00    +0.000 A 
ATOM      8  C   UNL     1       2.503   7.188  18.803  0.00  0.00    +0.000 C 
ATOM      9  C   UNL     1       3.242   4.676  19.033  0.00  0.00    +0.000 A 
BRANCH   4  11
ATOM     10  C   UNL     1       4.670   1.913  20.356  0.00  0.00    +0.000 C 
ATOM     11  N   UNL     1       3.398   2.311  19.783  0.00  0.00    +0.000 N 
ATOM     12  H   UNL     1       2.697   1.572  19.792  0.00  0.00    +0.000 HD
ENDBRANCH   4  11
ENDBRANCH   2   9
ENDBRANCH   1   2
BRANCH   1  13
ATOM     13  C   UNL     1       6.015   5.783  17.026  0.00  0.00    +0.000 C 
ATOM     14  C   UNL     1       6.625   7.059  17.606  0.00  0.00    +0.000 C 
BRANCH  13  15
ATOM     15  C   UNL     1       7.090   4.908  16.375  0.00  0.00    +0.000 C 
ATOM     16  O   UNL     1       8.011   4.390  17.008  0.00  0.00    +0.000 OA
BRANCH  15  17
ATOM     17  C   UNL     1       7.031   4.673  14.902  0.00  0.00    +0.000 A 
ATOM     18  C   UNL     1       6.119   3.778  14.328  0.00  0.00    +0.000 A 
ATOM     19  C   UNL     1       6.113   3.582  12.944  0.00  0.00    +0.000 A 
ATOM     20  C   UNL     1       7.010   4.283  12.143  0.00  0.00    +0.000 A 
ATOM     21  F   UNL     1       7.003   4.086  10.819  0.00  0.00    +0.000 F 
ATOM     22  C   UNL     1       7.911   5.183  12.696  0.00  0.00    +0.000 A 
ATOM     23  C   UNL     1       7.920   5.383  14.079  0.00  0.00    +0.000 A 
ENDBRANCH  15  17
ENDBRANCH  13  15
ENDBRANCH   1  13
TORSDOF 6
ENDMDL
MODEL 7
REMARK VINA RESULT:      -6.3      2.805      4.151
REMARK  Name = 
REMARK  9 active torsions:
REMARK  status: ('A' for Active; 'I' for Inactive)
REMARK    1  A    between atoms: C_1  and  N_2
REMARK    2  A    between atoms: N_2  and  C_3
REMARK    3  A    between atoms: C_6  and  C_7
REMARK    4  A    between atoms: C_8  and  C_9
REMARK    5  A    between atoms: C_9  and  O_11
REMARK    6  A    between atoms: O_11  and  C_12
REMARK    7  A    between atoms: C_12  and  C_13
REMARK    8  A    between atoms: C_12  and  C_14
REMARK    9  A    between atoms: C_14  and  C_16
REMARK                            x       y       z     vdW  Elec       q    Type
REMARK                         _______ _______ _______ _____ _____    ______ ____
ROOT
ATOM      1  O   UNL     1       3.320   5.747  19.424  0.00  0.00    +0.000 OA
ENDROOT
BRANCH   1   2
ATOM      2  C   UNL     1       2.307   6.501  19.955  0.00  0.00    +0.000 C 
ATOM      3  O   UNL     1       1.655   6.139  20.929  0.00  0.00    +0.000 OA
BRANCH   2   9
ATOM      4  C   UNL     1       1.257   8.812  19.720  0.00  0.00    +0.000 A 
ATOM      5  S   UNL     1       1.379  10.099  18.574  0.00  0.00    +0.000 S 
ATOM      6  N   UNL     1       2.372   9.329  17.518  0.00  0.00    +0.000 NA
ATOM      7  C   UNL     1       2.665   8.123  17.997  0.00  0.00    +0.000 A 
ATOM      8  C   UNL     1       3.550   7.255  17.164  0.00  0.00    +0.000 C 
ATOM      9  C   UNL     1       2.078   7.775  19.277  0.00  0.00    +0.000 A 
BRANCH   4  11
ATOM     10  C   UNL     1       1.024   9.394  22.090  0.00  0.00    +0.000 C 
ATOM     11  N   UNL     1       0.489   8.864  20.848  0.00  0.00    +0.000 N 
ATOM     12  H   UNL     1      -0.510   9.025  20.734  0.00  0.00    +0.000 HD
ENDBRANCH   4  11
ENDBRANCH   2   9
ENDBRANCH   1   2
BRANCH   1  13
ATOM     13  C   UNL     1       3.094   4.327  19.428  0.00  0.00    +0.000 C 
ATOM     14  C   UNL     1       2.068   3.974  18.351  0.00  0.00    +0.000 C 
BRANCH  13  15
ATOM     15  C   UNL     1       4.430   3.628  19.162  0.00  0.00    +0.000 C 
ATOM     16  O   UNL     1       4.862   2.711  19.861  0.00  0.00    +0.000 OA
BRANCH  15  17
ATOM     17  C   UNL     1       5.258   4.076  18.004  0.00  0.00    +0.000 A 
ATOM     18  C   UNL     1       6.443   4.806  18.175  0.00  0.00    +0.000 A 
ATOM     19  C   UNL     1       7.176   5.214  17.058  0.00  0.00    +0.000 A 
ATOM     20  C   UNL     1       6.728   4.889  15.780  0.00  0.00    +0.000 A 
ATOM     21  F   UNL     1       7.432   5.289  14.714  0.00  0.00    +0.000 F 
ATOM     22  C   UNL     1       5.564   4.155  15.596  0.00  0.00    +0.000 A 
ATOM     23  C   UNL     1       4.828   3.743  16.710  0.00  0.00    +0.000 A 
ENDBRANCH  15  17
ENDBRANCH  13  15
ENDBRANCH   1  13
TORSDOF 6
ENDMDL
MODEL 8
REMARK VINA RESULT:      -6.3      3.030      4.312
REMARK  Name = 
REMARK  9 active torsions:
REMARK  status: ('A' for Active; 'I' for Inactive)
REMARK    1  A    between atoms: C_1  and  N_2
REMARK    2  A    between atoms: N_2  and  C_3
REMARK    3  A    between atoms: C_6  and  C_7
REMARK    4  A    between atoms: C_8  and  C_9
REMARK    5  A    between atoms: C_9  and  O_11
REMARK    6  A    between atoms: O_11  and  C_12
REMARK    7  A    between atoms: C_12  and  C_13
REMARK    8  A    between atoms: C_12  and  C_14
REMARK    9  A    between atoms: C_14  and  C_16
REMARK                            x       y       z     vdW  Elec       q    Type
REMARK                         _______ _______ _______ _____ _____    ______ ____
ROOT
ATOM      1  O   UNL     1       2.817   3.201  17.967  0.00  0.00    +0.000 OA
ENDROOT
BRANCH   1   2
ATOM      2  C   UNL     1       1.871   4.186  17.856  0.00  0.00    +0.000 C 
ATOM      3  O   UNL     1       1.100   4.257  16.904  0.00  0.00    +0.000 OA
BRANCH   2   9
ATOM      4  C   UNL     1       1.383   4.879  20.260  0.00  0.00    +0.000 A 
ATOM      5  S   UNL     1       1.620   6.316  21.190  0.00  0.00    +0.000 S 
ATOM      6  N   UNL     1       2.211   7.244  19.971  0.00  0.00    +0.000 NA
ATOM      7  C   UNL     1       2.281   6.512  18.862  0.00  0.00    +0.000 A 
ATOM      8  C   UNL     1       2.782   7.190  17.629  0.00  0.00    +0.000 C 
ATOM      9  C   UNL     1       1.846   5.132  18.969  0.00  0.00    +0.000 A 
BRANCH   4  11
ATOM     10  C   UNL     1       1.627   2.850  21.613  0.00  0.00    +0.000 C 
ATOM     11  N   UNL     1       0.846   3.726  20.759  0.00  0.00    +0.000 N 
ATOM     12  H   UNL     1      -0.149   3.722  20.971  0.00  0.00    +0.000 HD
ENDBRANCH   4  11
ENDBRANCH   2   9
ENDBRANCH   1   2
BRANCH   1  13
ATOM     13  C   UNL     1       4.041   3.596  18.610  0.00  0.00    +0.000 C 
ATOM     14  C   UNL     1       4.583   2.425  19.430  0.00  0.00    +0.000 C 
BRANCH  13  15
ATOM     15  C   UNL     1       5.039   4.015  17.527  0.00  0.00    +0.000 C 
ATOM     16  O   UNL     1       5.052   3.523  16.398  0.00  0.00    +0.000 OA
BRANCH  15  17
ATOM     17  C   UNL     1       6.051   5.064  17.847  0.00  0.00    +0.000 A 
ATOM     18  C   UNL     1       6.943   4.934  18.920  0.00  0.00    +0.000 A 
ATOM     19  C   UNL     1       7.864   5.951  19.186  0.00  0.00    +0.000 A 
ATOM     20  C   UNL     1       7.893   7.086  18.381  0.00  0.00    +0.000 A 
ATOM     21  F   UNL     1       8.773   8.059  18.646  0.00  0.00    +0.000 F 
ATOM     22  C   UNL     1       7.024   7.223  17.306  0.00  0.00    +0.000 A 
ATOM     23  C   UNL     1       6.103   6.208  17.034  0.00  0.00    +0.000 A 
ENDBRANCH  15  17
ENDBRANCH  13  15
ENDBRANCH   1  13
TORSDOF 6
ENDMDL
MODEL 9
REMARK VINA RESULT:      -6.2      1.790      2.627
REMARK  Name = 
REMARK  9 active torsions:
REMARK  status: ('A' for Active; 'I' for Inactive)
REMARK    1  A    between atoms: C_1  and  N_2
REMARK    2  A    between atoms: N_2  and  C_3
REMARK    3  A    between atoms: C_6  and  C_7
REMARK    4  A    between atoms: C_8  and  C_9
REMARK    5  A    between atoms: C_9  and  O_11
REMARK    6  A    between atoms: O_11  and  C_12
REMARK    7  A    between atoms: C_12  and  C_13
REMARK    8  A    between atoms: C_12  and  C_14
REMARK    9  A    between atoms: C_14  and  C_16
REMARK                            x       y       z     vdW  Elec       q    Type
REMARK                         _______ _______ _______ _____ _____    ______ ____
ROOT
ATOM      1  O   UNL     1       4.900   5.713  18.617  0.00  0.00    +0.000 OA
ENDROOT
BRANCH   1   2
ATOM      2  C   UNL     1       3.754   5.297  19.242  0.00  0.00    +0.000 C 
ATOM      3  O   UNL     1       3.149   5.999  20.046  0.00  0.00    +0.000 OA
BRANCH   2   9
ATOM      4  C   UNL     1       3.942   2.756  19.167  0.00  0.00    +0.000 A 
ATOM      5  S   UNL     1       2.975   1.477  18.524  0.00  0.00    +0.000 S 
ATOM      6  N   UNL     1       1.838   2.427  17.816  0.00  0.00    +0.000 NA
ATOM      7  C   UNL     1       2.121   3.703  18.064  0.00  0.00    +0.000 A 
ATOM      8  C   UNL     1       1.205   4.730  17.485  0.00  0.00    +0.000 C 
ATOM      9  C   UNL     1       3.305   3.959  18.863  0.00  0.00    +0.000 A 
BRANCH   4  11
ATOM     10  C   UNL     1       5.238   1.467  20.800  0.00  0.00    +0.000 C 
ATOM     11  N   UNL     1       5.106   2.561  19.855  0.00  0.00    +0.000 N 
ATOM     12  H   UNL     1       5.977   2.804  19.388  0.00  0.00    +0.000 HD
ENDBRANCH   4  11
ENDBRANCH   2   9
ENDBRANCH   1   2
BRANCH   1  13
ATOM     13  C   UNL     1       4.894   5.591  17.183  0.00  0.00    +0.000 C 
ATOM     14  C   UNL     1       4.899   6.986  16.557  0.00  0.00    +0.000 C 
BRANCH  13  15
ATOM     15  C   UNL     1       6.135   4.799  16.764  0.00  0.00    +0.000 C 
ATOM     16  O   UNL     1       6.929   4.314  17.572  0.00  0.00    +0.000 OA
BRANCH  15  17
ATOM     17  C   UNL     1       6.408   4.604  15.310  0.00  0.00    +0.000 A 
ATOM     18  C   UNL     1       5.631   3.752  14.514  0.00  0.00    +0.000 A 
ATOM     19  C   UNL     1       5.936   3.594  13.160  0.00  0.00    +0.000 A 
ATOM     20  C   UNL     1       7.007   4.290  12.607  0.00  0.00    +0.000 A 
ATOM     21  F   UNL     1       7.297   4.129  11.310  0.00  0.00    +0.000 F 
ATOM     22  C   UNL     1       7.778   5.149  13.379  0.00  0.00    +0.000 A 
ATOM     23  C   UNL     1       7.476   5.311  14.734  0.00  0.00    +0.000 A 
ENDBRANCH  15  17
ENDBRANCH  13  15
ENDBRANCH   1  13
TORSDOF 6
ENDMDL
