MODEL 1
REMARK VINA RESULT:      -8.5      0.000      0.000
REMARK  Name = 
REMARK  8 active torsions:
REMARK  status: ('A' for Active; 'I' for Inactive)
REMARK    1  A    between atoms: C_1  and  C_2
REMARK    2  A    between atoms: N_4  and  C_5
REMARK    3  A    between atoms: C_13  and  C_14
REMARK    4  A    between atoms: N_16  and  C_17
REMARK    5  A    between atoms: C_17  and  C_18
REMARK    6  A    between atoms: C_17  and  C_22
REMARK    7  A    between atoms: C_18  and  C_19
REMARK    8  A    between atoms: C_19  and  O_21
REMARK                            x       y       z     vdW  Elec       q    Type
REMARK                         _______ _______ _______ _____ _____    ______ ____
ROOT
ATOM      1  C   UNL     1       5.165   5.668  18.701  0.00  0.00    +0.000 C 
ATOM      2  O   UNL     1       5.649   5.439  19.805  0.00  0.00    +0.000 OA
ATOM      3  N   UNL     1       3.859   6.035  18.506  0.00  0.00    +0.000 N 
ATOM      4  H   UNL     1       3.654   6.515  17.638  0.00  0.00    +0.000 HD
ENDROOT
BRANCH   1  11
ATOM      5  C   UNL     1       7.721   7.513  17.901  0.00  0.00    +0.000 C 
ATOM      6  C   UNL     1       7.085   6.425  17.111  0.00  0.00    +0.000 A 
ATOM      7  N   UNL     1       7.567   6.080  15.904  0.00  0.00    +0.000 NA
ATOM      8  N   UNL     1       6.688   5.149  15.434  0.00  0.00    +0.000 N 
ATOM      9  C   UNL     1       5.822   4.766  16.434  0.00  0.00    +0.000 A 
ATOM     10 CL   UNL     1       4.912   3.313  16.354  0.00  0.00    +0.000 Cl
ATOM     11  C   UNL     1       5.958   5.645  17.484  0.00  0.00    +0.000 A 
BRANCH   8  12
ATOM     12  C   UNL     1       6.715   4.722  14.076  0.00  0.00    +0.000 A 
ATOM     13  C   UNL     1       7.656   5.239  13.182  0.00  0.00    +0.000 A 
ATOM     14  C   UNL     1       7.734   4.717  11.882  0.00  0.00    +0.000 A 
ATOM     15  C   UNL     1       6.849   3.718  11.469  0.00  0.00    +0.000 A 
ATOM     16  C   UNL     1       5.865   3.256  12.337  0.00  0.00    +0.000 A 
ATOM     17  C   UNL     1       5.788   3.768  13.626  0.00  0.00    +0.000 A 
ENDBRANCH   8  12
ENDBRANCH   1  11
BRANCH   3  18
ATOM     18  C   UNL     1       2.898   6.211  19.586  0.00  0.00    +0.000 C 
BRANCH  18  19
ATOM     19  C   UNL     1       2.306   4.893  20.097  0.00  0.00    +0.000 A 
ATOM     20  C   UNL     1       2.405   4.536  21.459  0.00  0.00    +0.000 A 
ATOM     21  C   UNL     1       2.015   3.277  21.921  0.00  0.00    +0.000 A 
ATOM     22  C   UNL     1       1.511   2.335  21.035  0.00  0.00    +0.000 A 
ATOM     23  C   UNL     1       1.356   2.671  19.693  0.00  0.00    +0.000 A 
ATOM     24  C   UNL     1       1.735   3.940  19.228  0.00  0.00    +0.000 A 
ATOM     25 BR   UNL     1       1.431   4.278  17.380  0.00  0.00    +0.000 Br
ENDBRANCH  18  19
BRANCH  18  26
ATOM     26  C   UNL     1       1.795   7.213  19.200  0.00  0.00    +0.000 C 
BRANCH  26  27
ATOM     27  C   UNL     1       1.588   8.300  20.231  0.00  0.00    +0.000 C 
ATOM     28  O   UNL     1       1.229   9.443  19.984  0.00  0.00    +0.000 OA
BRANCH  27  29
ATOM     29  O   UNL     1       1.916   7.913  21.485  0.00  0.00    +0.000 OA
ATOM     30  H   UNL     1       2.364   8.596  22.019  0.00  0.00    +0.000 HD
ENDBRANCH  27  29
ENDBRANCH  26  27
ENDBRANCH  18  26
ENDBRANCH   3  18
TORSDOF 7
ENDMDL
MODEL 2
REMARK VINA RESULT:      -8.3      0.744      1.314
REMARK  Name = 
REMARK  8 active torsions:
REMARK  status: ('A' for Active; 'I' for Inactive)
REMARK    1  A    between atoms: C_1  and  C_2
REMARK    2  A    between atoms: N_4  and  C_5
REMARK    3  A    between atoms: C_13  and  C_14
REMARK    4  A    between atoms: N_16  and  C_17
REMARK    5  A    between atoms: C_17  and  C_18
REMARK    6  A    between atoms: C_17  and  C_22
REMARK    7  A    between atoms: C_18  and  C_19
REMARK    8  A    between atoms: C_19  and  O_21
REMARK                            x       y       z     vdW  Elec       q    Type
REMARK                         _______ _______ _______ _____ _____    ______ ____
ROOT
ATOM      1  C   UNL     1       5.113   5.709  18.636  0.00  0.00    +0.000 C 
ATOM      2  O   UNL     1       5.568   5.516  19.759  0.00  0.00    +0.000 OA
ATOM      3  N   UNL     1       3.808   6.051  18.393  0.00  0.00    +0.000 N 
ATOM      4  H   UNL     1       3.623   6.505  17.507  0.00  0.00    +0.000 HD
ENDROOT
BRANCH   1  11
ATOM      5  C   UNL     1       7.674   7.560  17.867  0.00  0.00    +0.000 C 
ATOM      6  C   UNL     1       7.072   6.448  17.085  0.00  0.00    +0.000 A 
ATOM      7  N   UNL     1       7.592   6.079  15.901  0.00  0.00    +0.000 NA
ATOM      8  N   UNL     1       6.737   5.128  15.428  0.00  0.00    +0.000 N 
ATOM      9  C   UNL     1       5.845   4.761  16.411  0.00  0.00    +0.000 A 
ATOM     10 CL   UNL     1       4.951   3.297  16.339  0.00  0.00    +0.000 Cl
ATOM     11  C   UNL     1       5.942   5.665  17.444  0.00  0.00    +0.000 A 
BRANCH   8  12
ATOM     12  C   UNL     1       6.807   4.671  14.082  0.00  0.00    +0.000 A 
ATOM     13  C   UNL     1       5.980   3.639  13.633  0.00  0.00    +0.000 A 
ATOM     14  C   UNL     1       5.988   3.287  12.274  0.00  0.00    +0.000 A 
ATOM     15  C   UNL     1       6.848   3.933  11.384  0.00  0.00    +0.000 A 
ATOM     16  C   UNL     1       7.724   4.911  11.846  0.00  0.00    +0.000 A 
ATOM     17  C   UNL     1       7.715   5.264  13.190  0.00  0.00    +0.000 A 
ENDBRANCH   8  12
ENDBRANCH   1  11
BRANCH   3  18
ATOM     18  C   UNL     1       2.814   6.242  19.439  0.00  0.00    +0.000 C 
BRANCH  18  19
ATOM     19  C   UNL     1       2.274   4.928  20.015  0.00  0.00    +0.000 A 
ATOM     20  C   UNL     1       2.388   4.641  21.392  0.00  0.00    +0.000 A 
ATOM     21  C   UNL     1       2.047   3.391  21.916  0.00  0.00    +0.000 A 
ATOM     22  C   UNL     1       1.581   2.389  21.077  0.00  0.00    +0.000 A 
ATOM     23  C   UNL     1       1.412   2.654  19.721  0.00  0.00    +0.000 A 
ATOM     24  C   UNL     1       1.741   3.912  19.195  0.00  0.00    +0.000 A 
ATOM     25 BR   UNL     1       1.423   4.149  17.333  0.00  0.00    +0.000 Br
ENDBRANCH  18  19
BRANCH  18  26
ATOM     26  C   UNL     1       1.673   7.163  18.971  0.00  0.00    +0.000 C 
BRANCH  26  27
ATOM     27  C   UNL     1       2.163   8.410  18.268  0.00  0.00    +0.000 C 
ATOM     28  O   UNL     1       2.857   8.420  17.260  0.00  0.00    +0.000 OA
BRANCH  27  29
ATOM     29  O   UNL     1       1.823   9.551  18.909  0.00  0.00    +0.000 OA
ATOM     30  H   UNL     1       1.776   9.474  19.881  0.00  0.00    +0.000 HD
ENDBRANCH  27  29
ENDBRANCH  26  27
ENDBRANCH  18  26
ENDBRANCH   3  18
TORSDOF 7
ENDMDL
MODEL 3
REMARK VINA RESULT:      -7.9      3.541      6.086
REMARK  Name = 
REMARK  8 active torsions:
REMARK  status: ('A' for Active; 'I' for Inactive)
REMARK    1  A    between atoms: C_1  and  C_2
REMARK    2  A    between atoms: N_4  and  C_5
REMARK    3  A    between atoms: C_13  and  C_14
REMARK    4  A    between atoms: N_16  and  C_17
REMARK    5  A    between atoms: C_17  and  C_18
REMARK    6  A    between atoms: C_17  and  C_22
REMARK    7  A    between atoms: C_18  and  C_19
REMARK    8  A    between atoms: C_19  and  O_21
REMARK                            x       y       z     vdW  Elec       q    Type
REMARK                         _______ _______ _______ _____ _____    ______ ____
ROOT
ATOM      1  C   UNL     1       1.584   7.945  20.275  0.00  0.00    +0.000 C 
ATOM      2  O   UNL     1       1.472   8.012  21.495  0.00  0.00    +0.000 OA
ATOM      3  N   UNL     1       1.107   8.900  19.416  0.00  0.00    +0.000 N 
ATOM      4  H   UNL     1       1.531   8.926  18.496  0.00  0.00    +0.000 HD
ENDROOT
BRANCH   1  11
ATOM      5  C   UNL     1       1.588   4.769  20.974  0.00  0.00    +0.000 C 
ATOM      6  C   UNL     1       2.320   5.476  19.889  0.00  0.00    +0.000 A 
ATOM      7  N   UNL     1       3.099   4.796  19.029  0.00  0.00    +0.000 NA
ATOM      8  N   UNL     1       3.687   5.757  18.261  0.00  0.00    +0.000 N 
ATOM      9  C   UNL     1       3.098   6.979  18.497  0.00  0.00    +0.000 A 
ATOM     10 CL   UNL     1       3.246   8.296  17.405  0.00  0.00    +0.000 Cl
ATOM     11  C   UNL     1       2.307   6.870  19.618  0.00  0.00    +0.000 A 
BRANCH   8  12
ATOM     12  C   UNL     1       4.776   5.452  17.396  0.00  0.00    +0.000 A 
ATOM     13  C   UNL     1       4.655   4.466  16.415  0.00  0.00    +0.000 A 
ATOM     14  C   UNL     1       5.703   4.266  15.502  0.00  0.00    +0.000 A 
ATOM     15  C   UNL     1       6.875   5.019  15.599  0.00  0.00    +0.000 A 
ATOM     16  C   UNL     1       7.023   5.951  16.622  0.00  0.00    +0.000 A 
ATOM     17  C   UNL     1       5.986   6.153  17.524  0.00  0.00    +0.000 A 
ENDBRANCH   8  12
ENDBRANCH   1  11
BRANCH   3  18
ATOM     18  C   UNL     1       0.427  10.112  19.850  0.00  0.00    +0.000 C 
BRANCH  18  19
ATOM     19  C   UNL     1      -0.818  10.444  19.020  0.00  0.00    +0.000 A 
ATOM     20  C   UNL     1      -1.013   9.867  17.746  0.00  0.00    +0.000 A 
ATOM     21  C   UNL     1      -2.054  10.269  16.906  0.00  0.00    +0.000 A 
ATOM     22  C   UNL     1      -2.934  11.261  17.314  0.00  0.00    +0.000 A 
ATOM     23  C   UNL     1      -2.799  11.818  18.582  0.00  0.00    +0.000 A 
ATOM     24  C   UNL     1      -1.762  11.406  19.434  0.00  0.00    +0.000 A 
ATOM     25 BR   UNL     1      -1.720  12.221  21.153  0.00  0.00    +0.000 Br
ENDBRANCH  18  19
BRANCH  18  26
ATOM     26  C   UNL     1       1.395  11.308  19.916  0.00  0.00    +0.000 C 
BRANCH  26  27
ATOM     27  C   UNL     1       1.571  12.007  18.587  0.00  0.00    +0.000 C 
ATOM     28  O   UNL     1       1.115  13.108  18.308  0.00  0.00    +0.000 OA
BRANCH  27  29
ATOM     29  O   UNL     1       2.234  11.260  17.676  0.00  0.00    +0.000 OA
ATOM     30  H   UNL     1       1.971  10.320  17.650  0.00  0.00    +0.000 HD
ENDBRANCH  27  29
ENDBRANCH  26  27
ENDBRANCH  18  26
ENDBRANCH   3  18
TORSDOF 7
ENDMDL
MODEL 4
REMARK VINA RESULT:      -7.9      3.603      6.099
REMARK  Name = 
REMARK  8 active torsions:
REMARK  status: ('A' for Active; 'I' for Inactive)
REMARK    1  A    between atoms: C_1  and  C_2
REMARK    2  A    between atoms: N_4  and  C_5
REMARK    3  A    between atoms: C_13  and  C_14
REMARK    4  A    between atoms: N_16  and  C_17
REMARK    5  A    between atoms: C_17  and  C_18
REMARK    6  A    between atoms: C_17  and  C_22
REMARK    7  A    between atoms: C_18  and  C_19
REMARK    8  A    between atoms: C_19  and  O_21
REMARK                            x       y       z     vdW  Elec       q    Type
REMARK                         _______ _______ _______ _____ _____    ______ ____
ROOT
ATOM      1  C   UNL     1       1.610   8.217  20.007  0.00  0.00    +0.000 C 
ATOM      2  O   UNL     1       1.612   8.514  21.197  0.00  0.00    +0.000 OA
ATOM      3  N   UNL     1       1.021   8.982  19.034  0.00  0.00    +0.000 N 
ATOM      4  H   UNL     1       1.355   8.838  18.089  0.00  0.00    +0.000 HD
ENDROOT
BRANCH   1  11
ATOM      5  C   UNL     1       1.270   5.104  20.883  0.00  0.00    +0.000 C 
ATOM      6  C   UNL     1       2.169   5.677  19.847  0.00  0.00    +0.000 A 
ATOM      7  N   UNL     1       2.973   4.883  19.119  0.00  0.00    +0.000 NA
ATOM      8  N   UNL     1       3.719   5.742  18.366  0.00  0.00    +0.000 N 
ATOM      9  C   UNL     1       3.215   7.019  18.465  0.00  0.00    +0.000 A 
ATOM     10 CL   UNL     1       3.589   8.245  17.322  0.00  0.00    +0.000 Cl
ATOM     11  C   UNL     1       2.304   7.047  19.496  0.00  0.00    +0.000 A 
BRANCH   8  12
ATOM     12  C   UNL     1       4.863   5.296  17.646  0.00  0.00    +0.000 A 
ATOM     13  C   UNL     1       4.737   4.771  16.358  0.00  0.00    +0.000 A 
ATOM     14  C   UNL     1       5.890   4.446  15.627  0.00  0.00    +0.000 A 
ATOM     15  C   UNL     1       7.155   4.607  16.198  0.00  0.00    +0.000 A 
ATOM     16  C   UNL     1       7.276   5.062  17.507  0.00  0.00    +0.000 A 
ATOM     17  C   UNL     1       6.136   5.387  18.232  0.00  0.00    +0.000 A 
ENDBRANCH   8  12
ENDBRANCH   1  11
BRANCH   3  18
ATOM     18  C   UNL     1       0.345  10.244  19.297  0.00  0.00    +0.000 C 
BRANCH  18  19
ATOM     19  C   UNL     1      -0.988  10.389  18.553  0.00  0.00    +0.000 A 
ATOM     20  C   UNL     1      -1.212   9.713  17.334  0.00  0.00    +0.000 A 
ATOM     21  C   UNL     1      -2.351   9.948  16.559  0.00  0.00    +0.000 A 
ATOM     22  C   UNL     1      -3.302  10.866  16.981  0.00  0.00    +0.000 A 
ATOM     23  C   UNL     1      -3.135  11.514  18.201  0.00  0.00    +0.000 A 
ATOM     24  C   UNL     1      -1.998  11.271  18.987  0.00  0.00    +0.000 A 
ATOM     25 BR   UNL     1      -1.918  12.195  20.649  0.00  0.00    +0.000 Br
ENDBRANCH  18  19
BRANCH  18  26
ATOM     26  C   UNL     1       1.271  11.445  19.032  0.00  0.00    +0.000 C 
BRANCH  26  27
ATOM     27  C   UNL     1       1.707  12.153  20.295  0.00  0.00    +0.000 C 
ATOM     28  O   UNL     1       2.335  13.203  20.331  0.00  0.00    +0.000 OA
BRANCH  27  29
ATOM     29  O   UNL     1       1.401  11.468  21.421  0.00  0.00    +0.000 OA
ATOM     30  H   UNL     1       2.014  10.740  21.635  0.00  0.00    +0.000 HD
ENDBRANCH  27  29
ENDBRANCH  26  27
ENDBRANCH  18  26
ENDBRANCH   3  18
TORSDOF 7
ENDMDL
MODEL 5
REMARK VINA RESULT:      -7.6      4.108      8.838
REMARK  Name = 
REMARK  8 active torsions:
REMARK  status: ('A' for Active; 'I' for Inactive)
REMARK    1  A    between atoms: C_1  and  C_2
REMARK    2  A    between atoms: N_4  and  C_5
REMARK    3  A    between atoms: C_13  and  C_14
REMARK    4  A    between atoms: N_16  and  C_17
REMARK    5  A    between atoms: C_17  and  C_18
REMARK    6  A    between atoms: C_17  and  C_22
REMARK    7  A    between atoms: C_18  and  C_19
REMARK    8  A    between atoms: C_19  and  O_21
REMARK                            x       y       z     vdW  Elec       q    Type
REMARK                         _______ _______ _______ _____ _____    ______ ____
ROOT
ATOM      1  C   UNL     1       1.796   7.617  20.107  0.00  0.00    +0.000 C 
ATOM      2  O   UNL     1       2.045   7.128  21.204  0.00  0.00    +0.000 OA
ATOM      3  N   UNL     1       2.081   6.996  18.918  0.00  0.00    +0.000 N 
ATOM      4  H   UNL     1       1.550   7.308  18.113  0.00  0.00    +0.000 HD
ENDROOT
BRANCH   1  11
ATOM      5  C   UNL     1       2.058   9.819  17.728  0.00  0.00    +0.000 C 
ATOM      6  C   UNL     1       1.181   9.858  18.929  0.00  0.00    +0.000 A 
ATOM      7  N   UNL     1       0.346  10.890  19.136  0.00  0.00    +0.000 NA
ATOM      8  N   UNL     1      -0.205  10.649  20.361  0.00  0.00    +0.000 N 
ATOM      9  C   UNL     1       0.115   9.378  20.782  0.00  0.00    +0.000 A 
ATOM     10 CL   UNL     1      -0.763   8.573  22.019  0.00  0.00    +0.000 Cl
ATOM     11  C   UNL     1       1.100   8.883  19.959  0.00  0.00    +0.000 A 
BRANCH   8  12
ATOM     12  C   UNL     1      -0.955  11.646  21.046  0.00  0.00    +0.000 A 
ATOM     13  C   UNL     1      -2.037  12.278  20.428  0.00  0.00    +0.000 A 
ATOM     14  C   UNL     1      -2.829  13.172  21.165  0.00  0.00    +0.000 A 
ATOM     15  C   UNL     1      -2.515  13.461  22.495  0.00  0.00    +0.000 A 
ATOM     16  C   UNL     1      -1.394  12.886  23.088  0.00  0.00    +0.000 A 
ATOM     17  C   UNL     1      -0.610  11.998  22.361  0.00  0.00    +0.000 A 
ENDBRANCH   8  12
ENDBRANCH   1  11
BRANCH   3  18
ATOM     18  C   UNL     1       2.695   5.681  18.819  0.00  0.00    +0.000 C 
BRANCH  18  19
ATOM     19  C   UNL     1       4.050   5.692  18.101  0.00  0.00    +0.000 A 
ATOM     20  C   UNL     1       4.390   6.739  17.217  0.00  0.00    +0.000 A 
ATOM     21  C   UNL     1       5.547   6.696  16.434  0.00  0.00    +0.000 A 
ATOM     22  C   UNL     1       6.399   5.604  16.511  0.00  0.00    +0.000 A 
ATOM     23  C   UNL     1       6.118   4.577  17.407  0.00  0.00    +0.000 A 
ATOM     24  C   UNL     1       4.964   4.624  18.205  0.00  0.00    +0.000 A 
ATOM     25 BR   UNL     1       4.724   3.173  19.414  0.00  0.00    +0.000 Br
ENDBRANCH  18  19
BRANCH  18  26
ATOM     26  C   UNL     1       1.734   4.656  18.190  0.00  0.00    +0.000 C 
BRANCH  26  27
ATOM     27  C   UNL     1       1.091   3.739  19.207  0.00  0.00    +0.000 C 
ATOM     28  O   UNL     1       0.656   2.621  18.968  0.00  0.00    +0.000 OA
BRANCH  27  29
ATOM     29  O   UNL     1       0.965   4.305  20.429  0.00  0.00    +0.000 OA
ATOM     30  H   UNL     1       1.799   4.637  20.812  0.00  0.00    +0.000 HD
ENDBRANCH  27  29
ENDBRANCH  26  27
ENDBRANCH  18  26
ENDBRANCH   3  18
TORSDOF 7
ENDMDL
MODEL 6
REMARK VINA RESULT:      -7.6      3.019      7.756
REMARK  Name = 
REMARK  8 active torsions:
REMARK  status: ('A' for Active; 'I' for Inactive)
REMARK    1  A    between atoms: C_1  and  C_2
REMARK    2  A    between atoms: N_4  and  C_5
REMARK    3  A    between atoms: C_13  and  C_14
REMARK    4  A    between atoms: N_16  and  C_17
REMARK    5  A    between atoms: C_17  and  C_18
REMARK    6  A    between atoms: C_17  and  C_22
REMARK    7  A    between atoms: C_18  and  C_19
REMARK    8  A    between atoms: C_19  and  O_21
REMARK                            x       y       z     vdW  Elec       q    Type
REMARK                         _______ _______ _______ _____ _____    ______ ____
ROOT
ATOM      1  C   UNL     1       2.910   5.235  18.344  0.00  0.00    +0.000 C 
ATOM      2  O   UNL     1       2.413   4.915  17.269  0.00  0.00    +0.000 OA
ATOM      3  N   UNL     1       4.077   4.704  18.829  0.00  0.00    +0.000 N 
ATOM      4  H   UNL     1       4.563   5.256  19.526  0.00  0.00    +0.000 HD
ENDROOT
BRANCH   1  11
ATOM      5  C   UNL     1       1.817   5.011  21.398  0.00  0.00    +0.000 C 
ATOM      6  C   UNL     1       1.868   6.212  20.523  0.00  0.00    +0.000 A 
ATOM      7  N   UNL     1       1.441   7.406  20.969  0.00  0.00    +0.000 NA
ATOM      8  N   UNL     1       1.529   8.231  19.887  0.00  0.00    +0.000 N 
ATOM      9  C   UNL     1       2.215   7.607  18.869  0.00  0.00    +0.000 A 
ATOM     10 CL   UNL     1       2.914   8.477  17.564  0.00  0.00    +0.000 Cl
ATOM     11  C   UNL     1       2.341   6.273  19.185  0.00  0.00    +0.000 A 
BRANCH   8  12
ATOM     12  C   UNL     1       0.930   9.523  19.888  0.00  0.00    +0.000 A 
ATOM     13  C   UNL     1       1.012  10.348  21.012  0.00  0.00    +0.000 A 
ATOM     14  C   UNL     1       0.514  11.658  20.946  0.00  0.00    +0.000 A 
ATOM     15  C   UNL     1      -0.097  12.122  19.778  0.00  0.00    +0.000 A 
ATOM     16  C   UNL     1      -0.241  11.276  18.683  0.00  0.00    +0.000 A 
ATOM     17  C   UNL     1       0.253   9.979  18.745  0.00  0.00    +0.000 A 
ENDBRANCH   8  12
ENDBRANCH   1  11
BRANCH   3  18
ATOM     18  C   UNL     1       4.872   3.713  18.118  0.00  0.00    +0.000 C 
BRANCH  18  19
ATOM     19  C   UNL     1       5.538   4.260  16.850  0.00  0.00    +0.000 A 
ATOM     20  C   UNL     1       5.033   3.937  15.572  0.00  0.00    +0.000 A 
ATOM     21  C   UNL     1       5.709   4.292  14.402  0.00  0.00    +0.000 A 
ATOM     22  C   UNL     1       6.910   4.981  14.473  0.00  0.00    +0.000 A 
ATOM     23  C   UNL     1       7.412   5.357  15.716  0.00  0.00    +0.000 A 
ATOM     24  C   UNL     1       6.729   5.014  16.893  0.00  0.00    +0.000 A 
ATOM     25 BR   UNL     1       7.506   5.625  18.519  0.00  0.00    +0.000 Br
ENDBRANCH  18  19
BRANCH  18  26
ATOM     26  C   UNL     1       4.054   2.442  17.822  0.00  0.00    +0.000 C 
BRANCH  26  27
ATOM     27  C   UNL     1       3.217   1.985  18.996  0.00  0.00    +0.000 C 
ATOM     28  O   UNL     1       3.533   2.105  20.172  0.00  0.00    +0.000 OA
BRANCH  27  29
ATOM     29  O   UNL     1       2.086   1.344  18.624  0.00  0.00    +0.000 OA
ATOM     30  H   UNL     1       1.987   1.216  17.661  0.00  0.00    +0.000 HD
ENDBRANCH  27  29
ENDBRANCH  26  27
ENDBRANCH  18  26
ENDBRANCH   3  18
TORSDOF 7
ENDMDL
MODEL 7
REMARK VINA RESULT:      -7.5      3.223      6.048
REMARK  Name = 
REMARK  8 active torsions:
REMARK  status: ('A' for Active; 'I' for Inactive)
REMARK    1  A    between atoms: C_1  and  C_2
REMARK    2  A    between atoms: N_4  and  C_5
REMARK    3  A    between atoms: C_13  and  C_14
REMARK    4  A    between atoms: N_16  and  C_17
REMARK    5  A    between atoms: C_17  and  C_18
REMARK    6  A    between atoms: C_17  and  C_22
REMARK    7  A    between atoms: C_18  and  C_19
REMARK    8  A    between atoms: C_19  and  O_21
REMARK                            x       y       z     vdW  Elec       q    Type
REMARK                         _______ _______ _______ _____ _____    ______ ____
ROOT
ATOM      1  C   UNL     1       1.293   7.492  20.448  0.00  0.00    +0.000 C 
ATOM      2  O   UNL     1       0.569   7.113  21.364  0.00  0.00    +0.000 OA
ATOM      3  N   UNL     1       1.332   8.786  19.997  0.00  0.00    +0.000 N 
ATOM      4  H   UNL     1       2.169   9.059  19.497  0.00  0.00    +0.000 HD
ENDROOT
BRANCH   1  11
ATOM      5  C   UNL     1       2.149   4.460  21.254  0.00  0.00    +0.000 C 
ATOM      6  C   UNL     1       2.629   5.281  20.111  0.00  0.00    +0.000 A 
ATOM      7  N   UNL     1       3.522   4.786  19.236  0.00  0.00    +0.000 NA
ATOM      8  N   UNL     1       3.810   5.830  18.407  0.00  0.00    +0.000 N 
ATOM      9  C   UNL     1       2.933   6.868  18.630  0.00  0.00    +0.000 A 
ATOM     10 CL   UNL     1       2.691   8.127  17.488  0.00  0.00    +0.000 Cl
ATOM     11  C   UNL     1       2.243   6.611  19.793  0.00  0.00    +0.000 A 
BRANCH   8  12
ATOM     12  C   UNL     1       4.905   5.776  17.499  0.00  0.00    +0.000 A 
ATOM     13  C   UNL     1       6.097   6.451  17.775  0.00  0.00    +0.000 A 
ATOM     14  C   UNL     1       7.198   6.288  16.921  0.00  0.00    +0.000 A 
ATOM     15  C   UNL     1       7.093   5.490  15.780  0.00  0.00    +0.000 A 
ATOM     16  C   UNL     1       5.884   4.876  15.467  0.00  0.00    +0.000 A 
ATOM     17  C   UNL     1       4.792   5.034  16.313  0.00  0.00    +0.000 A 
ENDBRANCH   8  12
ENDBRANCH   1  11
BRANCH   3  18
ATOM     18  C   UNL     1       0.534   9.864  20.563  0.00  0.00    +0.000 C 
BRANCH  18  19
ATOM     19  C   UNL     1       0.628  11.172  19.770  0.00  0.00    +0.000 A 
ATOM     20  C   UNL     1       1.619  12.132  20.074  0.00  0.00    +0.000 A 
ATOM     21  C   UNL     1       1.630  13.394  19.476  0.00  0.00    +0.000 A 
ATOM     22  C   UNL     1       0.651  13.737  18.554  0.00  0.00    +0.000 A 
ATOM     23  C   UNL     1      -0.312  12.798  18.197  0.00  0.00    +0.000 A 
ATOM     24  C   UNL     1      -0.319  11.524  18.787  0.00  0.00    +0.000 A 
ATOM     25 BR   UNL     1      -1.667  10.328  18.177  0.00  0.00    +0.000 Br
ENDBRANCH  18  19
BRANCH  18  26
ATOM     26  C   UNL     1       0.857  10.082  22.052  0.00  0.00    +0.000 C 
BRANCH  26  27
ATOM     27  C   UNL     1      -0.376  10.172  22.924  0.00  0.00    +0.000 C 
ATOM     28  O   UNL     1      -0.883  11.213  23.317  0.00  0.00    +0.000 OA
BRANCH  27  29
ATOM     29  O   UNL     1      -0.845   8.963  23.307  0.00  0.00    +0.000 OA
ATOM     30  H   UNL     1      -1.408   8.516  22.647  0.00  0.00    +0.000 HD
ENDBRANCH  27  29
ENDBRANCH  26  27
ENDBRANCH  18  26
ENDBRANCH   3  18
TORSDOF 7
ENDMDL
MODEL 8
REMARK VINA RESULT:      -7.5      4.209      7.319
REMARK  Name = 
REMARK  8 active torsions:
REMARK  status: ('A' for Active; 'I' for Inactive)
REMARK    1  A    between atoms: C_1  and  C_2
REMARK    2  A    between atoms: N_4  and  C_5
REMARK    3  A    between atoms: C_13  and  C_14
REMARK    4  A    between atoms: N_16  and  C_17
REMARK    5  A    between atoms: C_17  and  C_18
REMARK    6  A    between atoms: C_17  and  C_22
REMARK    7  A    between atoms: C_18  and  C_19
REMARK    8  A    between atoms: C_19  and  O_21
REMARK                            x       y       z     vdW  Elec       q    Type
REMARK                         _______ _______ _______ _____ _____    ______ ____
ROOT
ATOM      1  C   UNL     1       1.993   8.986  18.238  0.00  0.00    +0.000 C 
ATOM      2  O   UNL     1       2.366   9.668  17.289  0.00  0.00    +0.000 OA
ATOM      3  N   UNL     1       0.993   9.364  19.097  0.00  0.00    +0.000 N 
ATOM      4  H   UNL     1       0.544   8.618  19.615  0.00  0.00    +0.000 HD
ENDROOT
BRANCH   1  11
ATOM      5  C   UNL     1       4.278   7.350  16.603  0.00  0.00    +0.000 C 
ATOM      6  C   UNL     1       3.536   6.929  17.820  0.00  0.00    +0.000 A 
ATOM      7  N   UNL     1       3.781   5.740  18.398  0.00  0.00    +0.000 NA
ATOM      8  N   UNL     1       2.859   5.644  19.398  0.00  0.00    +0.000 N 
ATOM      9  C   UNL     1       2.220   6.852  19.572  0.00  0.00    +0.000 A 
ATOM     10 CL   UNL     1       1.360   7.238  21.007  0.00  0.00    +0.000 Cl
ATOM     11  C   UNL     1       2.531   7.664  18.505  0.00  0.00    +0.000 A 
BRANCH   8  12
ATOM     12  C   UNL     1       2.631   4.417  20.083  0.00  0.00    +0.000 A 
ATOM     13  C   UNL     1       3.652   3.473  20.218  0.00  0.00    +0.000 A 
ATOM     14  C   UNL     1       3.434   2.326  20.996  0.00  0.00    +0.000 A 
ATOM     15  C   UNL     1       2.193   2.106  21.596  0.00  0.00    +0.000 A 
ATOM     16  C   UNL     1       1.154   3.011  21.402  0.00  0.00    +0.000 A 
ATOM     17  C   UNL     1       1.368   4.150  20.635  0.00  0.00    +0.000 A 
ENDBRANCH   8  12
ENDBRANCH   1  11
BRANCH   3  18
ATOM     18  C   UNL     1       0.247  10.607  18.973  0.00  0.00    +0.000 C 
BRANCH  18  19
ATOM     19  C   UNL     1      -0.010  11.300  20.316  0.00  0.00    +0.000 A 
ATOM     20  C   UNL     1      -0.731  10.648  21.340  0.00  0.00    +0.000 A 
ATOM     21  C   UNL     1      -1.113  11.310  22.509  0.00  0.00    +0.000 A 
ATOM     22  C   UNL     1      -0.786  12.646  22.691  0.00  0.00    +0.000 A 
ATOM     23  C   UNL     1      -0.036  13.306  21.722  0.00  0.00    +0.000 A 
ATOM     24  C   UNL     1       0.361  12.640  20.553  0.00  0.00    +0.000 A 
ATOM     25 BR   UNL     1       1.416  13.650  19.332  0.00  0.00    +0.000 Br
ENDBRANCH  18  19
BRANCH  18  26
ATOM     26  C   UNL     1      -1.060  10.403  18.185  0.00  0.00    +0.000 C 
BRANCH  26  27
ATOM     27  C   UNL     1      -1.859  11.676  18.015  0.00  0.00    +0.000 C 
ATOM     28  O   UNL     1      -2.959  11.885  18.509  0.00  0.00    +0.000 OA
BRANCH  27  29
ATOM     29  O   UNL     1      -1.272  12.566  17.185  0.00  0.00    +0.000 OA
ATOM     30  H   UNL     1      -1.077  12.224  16.291  0.00  0.00    +0.000 HD
ENDBRANCH  27  29
ENDBRANCH  26  27
ENDBRANCH  18  26
ENDBRANCH   3  18
TORSDOF 7
ENDMDL
MODEL 9
REMARK VINA RESULT:      -7.4      4.104      8.832
REMARK  Name = 
REMARK  8 active torsions:
REMARK  status: ('A' for Active; 'I' for Inactive)
REMARK    1  A    between atoms: C_1  and  C_2
REMARK    2  A    between atoms: N_4  and  C_5
REMARK    3  A    between atoms: C_13  and  C_14
REMARK    4  A    between atoms: N_16  and  C_17
REMARK    5  A    between atoms: C_17  and  C_18
REMARK    6  A    between atoms: C_17  and  C_22
REMARK    7  A    between atoms: C_18  and  C_19
REMARK    8  A    between atoms: C_19  and  O_21
REMARK                            x       y       z     vdW  Elec       q    Type
REMARK                         _______ _______ _______ _____ _____    ______ ____
ROOT
ATOM      1  C   UNL     1       1.800   7.589  20.053  0.00  0.00    +0.000 C 
ATOM      2  O   UNL     1       1.963   7.032  21.135  0.00  0.00    +0.000 OA
ATOM      3  N   UNL     1       2.164   7.036  18.853  0.00  0.00    +0.000 N 
ATOM      4  H   UNL     1       1.697   7.403  18.032  0.00  0.00    +0.000 HD
ENDROOT
BRANCH   1  11
ATOM      5  C   UNL     1       2.132   9.849  17.740  0.00  0.00    +0.000 C 
ATOM      6  C   UNL     1       1.242   9.872  18.930  0.00  0.00    +0.000 A 
ATOM      7  N   UNL     1       0.424  10.915  19.157  0.00  0.00    +0.000 NA
ATOM      8  N   UNL     1      -0.146  10.651  20.368  0.00  0.00    +0.000 N 
ATOM      9  C   UNL     1       0.145   9.363  20.758  0.00  0.00    +0.000 A 
ATOM     10 CL   UNL     1      -0.763   8.542  21.962  0.00  0.00    +0.000 Cl
ATOM     11  C   UNL     1       1.130   8.871  19.932  0.00  0.00    +0.000 A 
BRANCH   8  12
ATOM     12  C   UNL     1      -0.885  11.643  21.072  0.00  0.00    +0.000 A 
ATOM     13  C   UNL     1      -0.668  11.865  22.434  0.00  0.00    +0.000 A 
ATOM     14  C   UNL     1      -1.327  12.925  23.075  0.00  0.00    +0.000 A 
ATOM     15  C   UNL     1      -2.226  13.728  22.369  0.00  0.00    +0.000 A 
ATOM     16  C   UNL     1      -2.495  13.461  21.030  0.00  0.00    +0.000 A 
ATOM     17  C   UNL     1      -1.842  12.414  20.391  0.00  0.00    +0.000 A 
ENDBRANCH   8  12
ENDBRANCH   1  11
BRANCH   3  18
ATOM     18  C   UNL     1       2.771   5.719  18.719  0.00  0.00    +0.000 C 
BRANCH  18  19
ATOM     19  C   UNL     1       4.192   5.758  18.146  0.00  0.00    +0.000 A 
ATOM     20  C   UNL     1       4.612   6.827  17.326  0.00  0.00    +0.000 A 
ATOM     21  C   UNL     1       5.843   6.811  16.666  0.00  0.00    +0.000 A 
ATOM     22  C   UNL     1       6.694   5.723  16.807  0.00  0.00    +0.000 A 
ATOM     23  C   UNL     1       6.331   4.674  17.645  0.00  0.00    +0.000 A 
ATOM     24  C   UNL     1       5.100   4.694  18.320  0.00  0.00    +0.000 A 
ATOM     25 BR   UNL     1       4.751   3.214  19.464  0.00  0.00    +0.000 Br
ENDBRANCH  18  19
BRANCH  18  26
ATOM     26  C   UNL     1       1.867   4.762  17.921  0.00  0.00    +0.000 C 
BRANCH  26  27
ATOM     27  C   UNL     1       1.202   3.712  18.783  0.00  0.00    +0.000 C 
ATOM     28  O   UNL     1       0.807   3.891  19.928  0.00  0.00    +0.000 OA
BRANCH  27  29
ATOM     29  O   UNL     1       1.144   2.497  18.193  0.00  0.00    +0.000 OA
ATOM     30  H   UNL     1       0.273   2.059  18.245  0.00  0.00    +0.000 HD
ENDBRANCH  27  29
ENDBRANCH  26  27
ENDBRANCH  18  26
ENDBRANCH   3  18
TORSDOF 7
ENDMDL
