MODEL 1
REMARK VINA RESULT:      -6.7      0.000      0.000
REMARK  Name = 
REMARK  13 active torsions:
REMARK  status: ('A' for Active; 'I' for Inactive)
REMARK    1  A    between atoms: C_1  and  C_2
REMARK    2  A    between atoms: C_2  and  C_3
REMARK    3  A    between atoms: C_3  and  C_4
REMARK    4  A    between atoms: C_4  and  C_5
REMARK    5  A    between atoms: C_5  and  C_6
REMARK    6  A    between atoms: C_6  and  C_7
REMARK    7  A    between atoms: C_7  and  C_8
REMARK    8  A    between atoms: C_8  and  C_9
REMARK    9  A    between atoms: C_9  and  S_10
REMARK   10  A    between atoms: S_10  and  N_13
REMARK   11  A    between atoms: N_13  and  C_14
REMARK   12  A    between atoms: C_17  and  C_18
REMARK   13  A    between atoms: C_18  and  O_20
REMARK                            x       y       z     vdW  Elec       q    Type
REMARK                         _______ _______ _______ _____ _____    ______ ____
ROOT
ATOM      1  S   UNL     1       7.124   4.938  17.987  0.00  0.00    +0.000 S 
ATOM      2  O   UNL     1       8.278   4.125  17.666  0.00  0.00    +0.000 OA
ATOM      3  O   UNL     1       6.637   5.057  19.342  0.00  0.00    +0.000 OA
ENDROOT
BRANCH   1   4
ATOM      4  N   UNL     1       5.893   4.374  16.984  0.00  0.00    +0.000 N 
ATOM      5  H   UNL     1       6.236   3.751  16.250  0.00  0.00    +0.000 HD
BRANCH   4   6
ATOM      6  C   UNL     1       4.628   4.088  17.562  0.00  0.00    +0.000 A 
ATOM      7  C   UNL     1       4.454   2.847  18.158  0.00  0.00    +0.000 A 
ATOM      8  C   UNL     1       3.229   2.522  18.740  0.00  0.00    +0.000 A 
ATOM      9  C   UNL     1       2.166   3.440  18.717  0.00  0.00    +0.000 A 
ATOM     10  C   UNL     1       2.352   4.695  18.119  0.00  0.00    +0.000 A 
ATOM     11  C   UNL     1       3.581   5.017  17.534  0.00  0.00    +0.000 A 
BRANCH   9  12
ATOM     12  C   UNL     1       0.910   3.033  19.400  0.00  0.00    +0.000 C 
ATOM     13  O   UNL     1       0.569   3.486  20.476  0.00  0.00    +0.000 OA
BRANCH  12  14
ATOM     14  O   UNL     1       0.191   2.089  18.755  0.00  0.00    +0.000 OA
ATOM     15  H   UNL     1       0.373   1.165  19.012  0.00  0.00    +0.000 HD
ENDBRANCH  12  14
ENDBRANCH   9  12
ENDBRANCH   4   6
ENDBRANCH   1   4
BRANCH   1  16
ATOM     16  C   UNL     1       7.387   6.572  17.301  0.00  0.00    +0.000 C 
BRANCH  16  17
ATOM     17  C   UNL     1       8.125   7.456  18.295  0.00  0.00    +0.000 C 
BRANCH  17  18
ATOM     18  C   UNL     1       8.113   8.928  17.886  0.00  0.00    +0.000 C 
BRANCH  18  19
ATOM     19  C   UNL     1       8.978   9.751  18.844  0.00  0.00    +0.000 C 
BRANCH  19  20
ATOM     20  C   UNL     1       9.574  10.975  18.153  0.00  0.00    +0.000 C 
BRANCH  20  21
ATOM     21  C   UNL     1       9.292  12.250  18.952  0.00  0.00    +0.000 C 
BRANCH  21  22
ATOM     22  C   UNL     1      10.475  12.603  19.852  0.00  0.00    +0.000 C 
BRANCH  22  24
ATOM     23  C   UNL     1       9.067  12.111  21.875  0.00  0.00    +0.000 C 
ATOM     24  C   UNL     1      10.010  13.105  21.217  0.00  0.00    +0.000 C 
ENDBRANCH  22  24
ENDBRANCH  21  22
ENDBRANCH  20  21
ENDBRANCH  19  20
ENDBRANCH  18  19
ENDBRANCH  17  18
ENDBRANCH  16  17
ENDBRANCH   1  16
TORSDOF 12
ENDMDL
MODEL 2
REMARK VINA RESULT:      -6.6      4.635      7.693
REMARK  Name = 
REMARK  13 active torsions:
REMARK  status: ('A' for Active; 'I' for Inactive)
REMARK    1  A    between atoms: C_1  and  C_2
REMARK    2  A    between atoms: C_2  and  C_3
REMARK    3  A    between atoms: C_3  and  C_4
REMARK    4  A    between atoms: C_4  and  C_5
REMARK    5  A    between atoms: C_5  and  C_6
REMARK    6  A    between atoms: C_6  and  C_7
REMARK    7  A    between atoms: C_7  and  C_8
REMARK    8  A    between atoms: C_8  and  C_9
REMARK    9  A    between atoms: C_9  and  S_10
REMARK   10  A    between atoms: S_10  and  N_13
REMARK   11  A    between atoms: N_13  and  C_14
REMARK   12  A    between atoms: C_17  and  C_18
REMARK   13  A    between atoms: C_18  and  O_20
REMARK                            x       y       z     vdW  Elec       q    Type
REMARK                         _______ _______ _______ _____ _____    ______ ____
ROOT
ATOM      1  S   UNL     1       6.770   6.673  16.996  0.00  0.00    +0.000 S 
ATOM      2  O   UNL     1       5.563   6.822  16.211  0.00  0.00    +0.000 OA
ATOM      3  O   UNL     1       7.706   7.762  17.157  0.00  0.00    +0.000 OA
ENDROOT
BRANCH   1   4
ATOM      4  N   UNL     1       7.558   5.332  16.345  0.00  0.00    +0.000 N 
ATOM      5  H   UNL     1       7.940   4.713  17.063  0.00  0.00    +0.000 HD
BRANCH   4   6
ATOM      6  C   UNL     1       7.025   4.740  15.170  0.00  0.00    +0.000 A 
ATOM      7  C   UNL     1       5.997   3.819  15.318  0.00  0.00    +0.000 A 
ATOM      8  C   UNL     1       5.441   3.213  14.192  0.00  0.00    +0.000 A 
ATOM      9  C   UNL     1       5.923   3.520  12.908  0.00  0.00    +0.000 A 
ATOM     10  C   UNL     1       6.957   4.457  12.767  0.00  0.00    +0.000 A 
ATOM     11  C   UNL     1       7.514   5.062  13.899  0.00  0.00    +0.000 A 
BRANCH   9  12
ATOM     12  C   UNL     1       5.246   2.864  11.760  0.00  0.00    +0.000 C 
ATOM     13  O   UNL     1       5.622   1.807  11.290  0.00  0.00    +0.000 OA
BRANCH  12  14
ATOM     14  O   UNL     1       4.200   3.549  11.247  0.00  0.00    +0.000 OA
ATOM     15  H   UNL     1       3.370   3.047  11.148  0.00  0.00    +0.000 HD
ENDBRANCH  12  14
ENDBRANCH   9  12
ENDBRANCH   4   6
ENDBRANCH   1   4
BRANCH   1  16
ATOM     16  C   UNL     1       6.311   6.037  18.607  0.00  0.00    +0.000 C 
BRANCH  16  17
ATOM     17  C   UNL     1       5.401   4.826  18.463  0.00  0.00    +0.000 C 
BRANCH  17  18
ATOM     18  C   UNL     1       3.923   5.192  18.591  0.00  0.00    +0.000 C 
BRANCH  18  19
ATOM     19  C   UNL     1       3.103   4.465  17.523  0.00  0.00    +0.000 C 
BRANCH  19  20
ATOM     20  C   UNL     1       1.628   4.381  17.907  0.00  0.00    +0.000 C 
BRANCH  20  21
ATOM     21  C   UNL     1       1.391   3.284  18.947  0.00  0.00    +0.000 C 
BRANCH  21  22
ATOM     22  C   UNL     1       0.886   3.878  20.261  0.00  0.00    +0.000 C 
BRANCH  22  24
ATOM     23  C   UNL     1       2.926   2.600  20.986  0.00  0.00    +0.000 C 
ATOM     24  C   UNL     1       1.719   3.400  21.449  0.00  0.00    +0.000 C 
ENDBRANCH  22  24
ENDBRANCH  21  22
ENDBRANCH  20  21
ENDBRANCH  19  20
ENDBRANCH  18  19
ENDBRANCH  17  18
ENDBRANCH  16  17
ENDBRANCH   1  16
TORSDOF 12
ENDMDL
MODEL 3
REMARK VINA RESULT:      -6.6      5.551      7.511
REMARK  Name = 
REMARK  13 active torsions:
REMARK  status: ('A' for Active; 'I' for Inactive)
REMARK    1  A    between atoms: C_1  and  C_2
REMARK    2  A    between atoms: C_2  and  C_3
REMARK    3  A    between atoms: C_3  and  C_4
REMARK    4  A    between atoms: C_4  and  C_5
REMARK    5  A    between atoms: C_5  and  C_6
REMARK    6  A    between atoms: C_6  and  C_7
REMARK    7  A    between atoms: C_7  and  C_8
REMARK    8  A    between atoms: C_8  and  C_9
REMARK    9  A    between atoms: C_9  and  S_10
REMARK   10  A    between atoms: S_10  and  N_13
REMARK   11  A    between atoms: N_13  and  C_14
REMARK   12  A    between atoms: C_17  and  C_18
REMARK   13  A    between atoms: C_18  and  O_20
REMARK                            x       y       z     vdW  Elec       q    Type
REMARK                         _______ _______ _______ _____ _____    ______ ____
ROOT
ATOM      1  S   UNL     1       1.578   3.604  20.800  0.00  0.00    +0.000 S 
ATOM      2  O   UNL     1       0.423   4.146  20.118  0.00  0.00    +0.000 OA
ATOM      3  O   UNL     1       1.456   2.916  22.064  0.00  0.00    +0.000 OA
ENDROOT
BRANCH   1   4
ATOM      4  N   UNL     1       2.649   4.896  20.952  0.00  0.00    +0.000 N 
ATOM      5  H   UNL     1       3.626   4.597  20.994  0.00  0.00    +0.000 HD
BRANCH   4   6
ATOM      6  C   UNL     1       2.351   6.104  20.267  0.00  0.00    +0.000 A 
ATOM      7  C   UNL     1       2.814   6.242  18.966  0.00  0.00    +0.000 A 
ATOM      8  C   UNL     1       2.544   7.410  18.253  0.00  0.00    +0.000 A 
ATOM      9  C   UNL     1       1.816   8.453  18.849  0.00  0.00    +0.000 A 
ATOM     10  C   UNL     1       1.347   8.304  20.162  0.00  0.00    +0.000 A 
ATOM     11  C   UNL     1       1.620   7.132  20.874  0.00  0.00    +0.000 A 
BRANCH   9  12
ATOM     12  C   UNL     1       1.534   9.644  18.005  0.00  0.00    +0.000 C 
ATOM     13  O   UNL     1       2.413  10.360  17.562  0.00  0.00    +0.000 OA
BRANCH  12  14
ATOM     14  O   UNL     1       0.224   9.899  17.798  0.00  0.00    +0.000 OA
ATOM     15  H   UNL     1      -0.047  10.833  17.883  0.00  0.00    +0.000 HD
ENDBRANCH  12  14
ENDBRANCH   9  12
ENDBRANCH   4   6
ENDBRANCH   1   4
BRANCH   1  16
ATOM     16  C   UNL     1       2.473   2.569  19.642  0.00  0.00    +0.000 C 
BRANCH  16  17
ATOM     17  C   UNL     1       1.887   2.702  18.244  0.00  0.00    +0.000 C 
BRANCH  17  18
ATOM     18  C   UNL     1       2.879   3.307  17.252  0.00  0.00    +0.000 C 
BRANCH  18  19
ATOM     19  C   UNL     1       4.314   2.986  17.678  0.00  0.00    +0.000 C 
BRANCH  19  20
ATOM     20  C   UNL     1       5.260   4.147  17.386  0.00  0.00    +0.000 C 
BRANCH  20  21
ATOM     21  C   UNL     1       4.727   5.018  16.245  0.00  0.00    +0.000 C 
BRANCH  21  22
ATOM     22  C   UNL     1       5.781   5.190  15.152  0.00  0.00    +0.000 C 
BRANCH  22  24
ATOM     23  C   UNL     1       5.962   3.767  13.088  0.00  0.00    +0.000 C 
ATOM     24  C   UNL     1       6.223   3.843  14.583  0.00  0.00    +0.000 C 
ENDBRANCH  22  24
ENDBRANCH  21  22
ENDBRANCH  20  21
ENDBRANCH  19  20
ENDBRANCH  18  19
ENDBRANCH  17  18
ENDBRANCH  16  17
ENDBRANCH   1  16
TORSDOF 12
ENDMDL
MODEL 4
REMARK VINA RESULT:      -6.6      4.132      5.148
REMARK  Name = 
REMARK  13 active torsions:
REMARK  status: ('A' for Active; 'I' for Inactive)
REMARK    1  A    between atoms: C_1  and  C_2
REMARK    2  A    between atoms: C_2  and  C_3
REMARK    3  A    between atoms: C_3  and  C_4
REMARK    4  A    between atoms: C_4  and  C_5
REMARK    5  A    between atoms: C_5  and  C_6
REMARK    6  A    between atoms: C_6  and  C_7
REMARK    7  A    between atoms: C_7  and  C_8
REMARK    8  A    between atoms: C_8  and  C_9
REMARK    9  A    between atoms: C_9  and  S_10
REMARK   10  A    between atoms: S_10  and  N_13
REMARK   11  A    between atoms: N_13  and  C_14
REMARK   12  A    between atoms: C_17  and  C_18
REMARK   13  A    between atoms: C_18  and  O_20
REMARK                            x       y       z     vdW  Elec       q    Type
REMARK                         _______ _______ _______ _____ _____    ______ ____
ROOT
ATOM      1  S   UNL     1       6.655   5.614  16.692  0.00  0.00    +0.000 S 
ATOM      2  O   UNL     1       7.369   5.519  15.437  0.00  0.00    +0.000 OA
ATOM      3  O   UNL     1       7.248   6.238  17.853  0.00  0.00    +0.000 OA
ENDROOT
BRANCH   1   4
ATOM      4  N   UNL     1       6.198   4.034  17.062  0.00  0.00    +0.000 N 
ATOM      5  H   UNL     1       6.981   3.460  17.380  0.00  0.00    +0.000 HD
BRANCH   4   6
ATOM      6  C   UNL     1       4.930   3.822  17.664  0.00  0.00    +0.000 A 
ATOM      7  C   UNL     1       3.852   3.558  16.830  0.00  0.00    +0.000 A 
ATOM      8  C   UNL     1       2.587   3.343  17.377  0.00  0.00    +0.000 A 
ATOM      9  C   UNL     1       2.395   3.403  18.767  0.00  0.00    +0.000 A 
ATOM     10  C   UNL     1       3.490   3.664  19.603  0.00  0.00    +0.000 A 
ATOM     11  C   UNL     1       4.756   3.882  19.052  0.00  0.00    +0.000 A 
BRANCH   9  12
ATOM     12  C   UNL     1       1.026   3.117  19.269  0.00  0.00    +0.000 C 
ATOM     13  O   UNL     1       0.313   2.258  18.785  0.00  0.00    +0.000 OA
BRANCH  12  14
ATOM     14  O   UNL     1       0.612   3.909  20.282  0.00  0.00    +0.000 OA
ATOM     15  H   UNL     1      -0.342   3.877  20.486  0.00  0.00    +0.000 HD
ENDBRANCH  12  14
ENDBRANCH   9  12
ENDBRANCH   4   6
ENDBRANCH   1   4
BRANCH   1  16
ATOM     16  C   UNL     1       5.055   6.353  16.368  0.00  0.00    +0.000 C 
BRANCH  16  17
ATOM     17  C   UNL     1       4.639   7.251  17.524  0.00  0.00    +0.000 C 
BRANCH  17  18
ATOM     18  C   UNL     1       3.175   7.054  17.916  0.00  0.00    +0.000 C 
BRANCH  18  19
ATOM     19  C   UNL     1       2.406   8.369  17.768  0.00  0.00    +0.000 C 
BRANCH  19  20
ATOM     20  C   UNL     1       1.556   8.664  19.001  0.00  0.00    +0.000 C 
BRANCH  20  21
ATOM     21  C   UNL     1       1.903   7.714  20.150  0.00  0.00    +0.000 C 
BRANCH  21  22
ATOM     22  C   UNL     1       1.463   8.298  21.492  0.00  0.00    +0.000 C 
BRANCH  22  24
ATOM     23  C   UNL     1      -0.482   9.592  22.420  0.00  0.00    +0.000 C 
ATOM     24  C   UNL     1       0.547   9.505  21.304  0.00  0.00    +0.000 C 
ENDBRANCH  22  24
ENDBRANCH  21  22
ENDBRANCH  20  21
ENDBRANCH  19  20
ENDBRANCH  18  19
ENDBRANCH  17  18
ENDBRANCH  16  17
ENDBRANCH   1  16
TORSDOF 12
ENDMDL
MODEL 5
REMARK VINA RESULT:      -6.6      1.474      1.994
REMARK  Name = 
REMARK  13 active torsions:
REMARK  status: ('A' for Active; 'I' for Inactive)
REMARK    1  A    between atoms: C_1  and  C_2
REMARK    2  A    between atoms: C_2  and  C_3
REMARK    3  A    between atoms: C_3  and  C_4
REMARK    4  A    between atoms: C_4  and  C_5
REMARK    5  A    between atoms: C_5  and  C_6
REMARK    6  A    between atoms: C_6  and  C_7
REMARK    7  A    between atoms: C_7  and  C_8
REMARK    8  A    between atoms: C_8  and  C_9
REMARK    9  A    between atoms: C_9  and  S_10
REMARK   10  A    between atoms: S_10  and  N_13
REMARK   11  A    between atoms: N_13  and  C_14
REMARK   12  A    between atoms: C_17  and  C_18
REMARK   13  A    between atoms: C_18  and  O_20
REMARK                            x       y       z     vdW  Elec       q    Type
REMARK                         _______ _______ _______ _____ _____    ______ ____
ROOT
ATOM      1  S   UNL     1       7.088   4.873  16.816  0.00  0.00    +0.000 S 
ATOM      2  O   UNL     1       7.321   5.408  15.491  0.00  0.00    +0.000 OA
ATOM      3  O   UNL     1       8.134   4.208  17.557  0.00  0.00    +0.000 OA
ENDROOT
BRANCH   1   4
ATOM      4  N   UNL     1       5.761   3.847  16.651  0.00  0.00    +0.000 N 
ATOM      5  H   UNL     1       6.023   2.910  16.335  0.00  0.00    +0.000 HD
BRANCH   4   6
ATOM      6  C   UNL     1       4.699   3.961  17.587  0.00  0.00    +0.000 A 
ATOM      7  C   UNL     1       4.801   3.247  18.773  0.00  0.00    +0.000 A 
ATOM      8  C   UNL     1       3.783   3.329  19.722  0.00  0.00    +0.000 A 
ATOM      9  C   UNL     1       2.649   4.121  19.481  0.00  0.00    +0.000 A 
ATOM     10  C   UNL     1       2.556   4.845  18.283  0.00  0.00    +0.000 A 
ATOM     11  C   UNL     1       3.578   4.759  17.332  0.00  0.00    +0.000 A 
BRANCH   9  12
ATOM     12  C   UNL     1       1.633   4.189  20.563  0.00  0.00    +0.000 C 
ATOM     13  O   UNL     1       1.293   3.216  21.209  0.00  0.00    +0.000 OA
BRANCH  12  14
ATOM     14  O   UNL     1       1.081   5.408  20.752  0.00  0.00    +0.000 OA
ATOM     15  H   UNL     1       0.108   5.428  20.823  0.00  0.00    +0.000 HD
ENDBRANCH  12  14
ENDBRANCH   9  12
ENDBRANCH   4   6
ENDBRANCH   1   4
BRANCH   1  16
ATOM     16  C   UNL     1       6.376   6.173  17.823  0.00  0.00    +0.000 C 
BRANCH  16  17
ATOM     17  C   UNL     1       6.794   7.540  17.302  0.00  0.00    +0.000 C 
BRANCH  17  18
ATOM     18  C   UNL     1       8.198   7.932  17.760  0.00  0.00    +0.000 C 
BRANCH  18  19
ATOM     19  C   UNL     1       8.259   9.433  18.054  0.00  0.00    +0.000 C 
BRANCH  19  20
ATOM     20  C   UNL     1       9.195   9.739  19.221  0.00  0.00    +0.000 C 
BRANCH  20  21
ATOM     21  C   UNL     1       9.520  11.233  19.288  0.00  0.00    +0.000 C 
BRANCH  21  22
ATOM     22  C   UNL     1      10.425  11.647  18.128  0.00  0.00    +0.000 C 
BRANCH  22  24
ATOM     23  C   UNL     1       8.485  13.139  17.556  0.00  0.00    +0.000 C 
ATOM     24  C   UNL     1       9.997  12.987  17.534  0.00  0.00    +0.000 C 
ENDBRANCH  22  24
ENDBRANCH  21  22
ENDBRANCH  20  21
ENDBRANCH  19  20
ENDBRANCH  18  19
ENDBRANCH  17  18
ENDBRANCH  16  17
ENDBRANCH   1  16
TORSDOF 12
ENDMDL
MODEL 6
REMARK VINA RESULT:      -6.5      1.149      1.830
REMARK  Name = 
REMARK  13 active torsions:
REMARK  status: ('A' for Active; 'I' for Inactive)
REMARK    1  A    between atoms: C_1  and  C_2
REMARK    2  A    between atoms: C_2  and  C_3
REMARK    3  A    between atoms: C_3  and  C_4
REMARK    4  A    between atoms: C_4  and  C_5
REMARK    5  A    between atoms: C_5  and  C_6
REMARK    6  A    between atoms: C_6  and  C_7
REMARK    7  A    between atoms: C_7  and  C_8
REMARK    8  A    between atoms: C_8  and  C_9
REMARK    9  A    between atoms: C_9  and  S_10
REMARK   10  A    between atoms: S_10  and  N_13
REMARK   11  A    between atoms: N_13  and  C_14
REMARK   12  A    between atoms: C_17  and  C_18
REMARK   13  A    between atoms: C_18  and  O_20
REMARK                            x       y       z     vdW  Elec       q    Type
REMARK                         _______ _______ _______ _____ _____    ______ ____
ROOT
ATOM      1  S   UNL     1       7.233   4.975  18.100  0.00  0.00    +0.000 S 
ATOM      2  O   UNL     1       8.308   4.065  17.765  0.00  0.00    +0.000 OA
ATOM      3  O   UNL     1       7.010   5.412  19.459  0.00  0.00    +0.000 OA
ENDROOT
BRANCH   1   4
ATOM      4  N   UNL     1       5.837   4.251  17.495  0.00  0.00    +0.000 N 
ATOM      5  H   UNL     1       6.030   3.591  16.738  0.00  0.00    +0.000 HD
BRANCH   4   6
ATOM      6  C   UNL     1       4.793   3.934  18.403  0.00  0.00    +0.000 A 
ATOM      7  C   UNL     1       3.683   4.769  18.432  0.00  0.00    +0.000 A 
ATOM      8  C   UNL     1       2.633   4.497  19.307  0.00  0.00    +0.000 A 
ATOM      9  C   UNL     1       2.695   3.389  20.169  0.00  0.00    +0.000 A 
ATOM     10  C   UNL     1       3.816   2.548  20.130  0.00  0.00    +0.000 A 
ATOM     11  C   UNL     1       4.869   2.824  19.252  0.00  0.00    +0.000 A 
BRANCH   9  12
ATOM     12  C   UNL     1       1.513   3.146  21.038  0.00  0.00    +0.000 C 
ATOM     13  O   UNL     1       1.612   2.803  22.201  0.00  0.00    +0.000 OA
BRANCH  12  14
ATOM     14  O   UNL     1       0.317   3.293  20.428  0.00  0.00    +0.000 OA
ATOM     15  H   UNL     1      -0.435   2.835  20.849  0.00  0.00    +0.000 HD
ENDBRANCH  12  14
ENDBRANCH   9  12
ENDBRANCH   4   6
ENDBRANCH   1   4
BRANCH   1  16
ATOM     16  C   UNL     1       7.357   6.403  17.025  0.00  0.00    +0.000 C 
BRANCH  16  17
ATOM     17  C   UNL     1       7.047   7.678  17.795  0.00  0.00    +0.000 C 
BRANCH  17  18
ATOM     18  C   UNL     1       8.286   8.548  18.003  0.00  0.00    +0.000 C 
BRANCH  18  19
ATOM     19  C   UNL     1       8.000   9.988  17.572  0.00  0.00    +0.000 C 
BRANCH  19  20
ATOM     20  C   UNL     1       9.027  10.961  18.145  0.00  0.00    +0.000 C 
BRANCH  20  21
ATOM     21  C   UNL     1       9.513  10.502  19.522  0.00  0.00    +0.000 C 
BRANCH  21  22
ATOM     22  C   UNL     1       9.794  11.699  20.428  0.00  0.00    +0.000 C 
BRANCH  22  24
ATOM     23  C   UNL     1      12.018  11.591  19.261  0.00  0.00    +0.000 C 
ATOM     24  C   UNL     1      11.291  11.978  20.539  0.00  0.00    +0.000 C 
ENDBRANCH  22  24
ENDBRANCH  21  22
ENDBRANCH  20  21
ENDBRANCH  19  20
ENDBRANCH  18  19
ENDBRANCH  17  18
ENDBRANCH  16  17
ENDBRANCH   1  16
TORSDOF 12
ENDMDL
MODEL 7
REMARK VINA RESULT:      -6.5      1.526      2.223
REMARK  Name = 
REMARK  13 active torsions:
REMARK  status: ('A' for Active; 'I' for Inactive)
REMARK    1  A    between atoms: C_1  and  C_2
REMARK    2  A    between atoms: C_2  and  C_3
REMARK    3  A    between atoms: C_3  and  C_4
REMARK    4  A    between atoms: C_4  and  C_5
REMARK    5  A    between atoms: C_5  and  C_6
REMARK    6  A    between atoms: C_6  and  C_7
REMARK    7  A    between atoms: C_7  and  C_8
REMARK    8  A    between atoms: C_8  and  C_9
REMARK    9  A    between atoms: C_9  and  S_10
REMARK   10  A    between atoms: S_10  and  N_13
REMARK   11  A    between atoms: N_13  and  C_14
REMARK   12  A    between atoms: C_17  and  C_18
REMARK   13  A    between atoms: C_18  and  O_20
REMARK                            x       y       z     vdW  Elec       q    Type
REMARK                         _______ _______ _______ _____ _____    ______ ____
ROOT
ATOM      1  S   UNL     1       6.850   5.602  16.518  0.00  0.00    +0.000 S 
ATOM      2  O   UNL     1       7.575   5.771  15.277  0.00  0.00    +0.000 OA
ATOM      3  O   UNL     1       7.287   4.665  17.527  0.00  0.00    +0.000 OA
ENDROOT
BRANCH   1   4
ATOM      4  N   UNL     1       5.265   5.253  16.062  0.00  0.00    +0.000 N 
ATOM      5  H   UNL     1       5.203   4.864  15.118  0.00  0.00    +0.000 HD
BRANCH   4   6
ATOM      6  C   UNL     1       4.373   4.755  17.047  0.00  0.00    +0.000 A 
ATOM      7  C   UNL     1       3.722   5.676  17.857  0.00  0.00    +0.000 A 
ATOM      8  C   UNL     1       2.836   5.234  18.838  0.00  0.00    +0.000 A 
ATOM      9  C   UNL     1       2.606   3.860  19.020  0.00  0.00    +0.000 A 
ATOM     10  C   UNL     1       3.262   2.936  18.194  0.00  0.00    +0.000 A 
ATOM     11  C   UNL     1       4.152   3.383  17.212  0.00  0.00    +0.000 A 
BRANCH   9  12
ATOM     12  C   UNL     1       1.613   3.476  20.057  0.00  0.00    +0.000 C 
ATOM     13  O   UNL     1       0.595   4.111  20.262  0.00  0.00    +0.000 OA
BRANCH  12  14
ATOM     14  O   UNL     1       1.941   2.388  20.787  0.00  0.00    +0.000 OA
ATOM     15  H   UNL     1       2.293   1.628  20.284  0.00  0.00    +0.000 HD
ENDBRANCH  12  14
ENDBRANCH   9  12
ENDBRANCH   4   6
ENDBRANCH   1   4
BRANCH   1  16
ATOM     16  C   UNL     1       6.631   7.218  17.260  0.00  0.00    +0.000 C 
BRANCH  16  17
ATOM     17  C   UNL     1       7.956   7.746  17.789  0.00  0.00    +0.000 C 
BRANCH  17  18
ATOM     18  C   UNL     1       7.981   9.271  17.880  0.00  0.00    +0.000 C 
BRANCH  18  19
ATOM     19  C   UNL     1       8.977   9.722  18.950  0.00  0.00    +0.000 C 
BRANCH  19  20
ATOM     20  C   UNL     1       9.424  11.165  18.730  0.00  0.00    +0.000 C 
BRANCH  20  21
ATOM     21  C   UNL     1      10.619  11.232  17.776  0.00  0.00    +0.000 C 
BRANCH  21  22
ATOM     22  C   UNL     1      11.836  11.846  18.468  0.00  0.00    +0.000 C 
BRANCH  22  24
ATOM     23  C   UNL     1      11.605  13.693  16.778  0.00  0.00    +0.000 C 
ATOM     24  C   UNL     1      11.916  13.352  18.227  0.00  0.00    +0.000 C 
ENDBRANCH  22  24
ENDBRANCH  21  22
ENDBRANCH  20  21
ENDBRANCH  19  20
ENDBRANCH  18  19
ENDBRANCH  17  18
ENDBRANCH  16  17
ENDBRANCH   1  16
TORSDOF 12
ENDMDL
MODEL 8
REMARK VINA RESULT:      -6.5      4.118      5.122
REMARK  Name = 
REMARK  13 active torsions:
REMARK  status: ('A' for Active; 'I' for Inactive)
REMARK    1  A    between atoms: C_1  and  C_2
REMARK    2  A    between atoms: C_2  and  C_3
REMARK    3  A    between atoms: C_3  and  C_4
REMARK    4  A    between atoms: C_4  and  C_5
REMARK    5  A    between atoms: C_5  and  C_6
REMARK    6  A    between atoms: C_6  and  C_7
REMARK    7  A    between atoms: C_7  and  C_8
REMARK    8  A    between atoms: C_8  and  C_9
REMARK    9  A    between atoms: C_9  and  S_10
REMARK   10  A    between atoms: S_10  and  N_13
REMARK   11  A    between atoms: N_13  and  C_14
REMARK   12  A    between atoms: C_17  and  C_18
REMARK   13  A    between atoms: C_18  and  O_20
REMARK                            x       y       z     vdW  Elec       q    Type
REMARK                         _______ _______ _______ _____ _____    ______ ____
ROOT
ATOM      1  S   UNL     1       6.476   5.836  17.069  0.00  0.00    +0.000 S 
ATOM      2  O   UNL     1       7.324   5.868  15.897  0.00  0.00    +0.000 OA
ATOM      3  O   UNL     1       6.890   6.431  18.318  0.00  0.00    +0.000 OA
ENDROOT
BRANCH   1   4
ATOM      4  N   UNL     1       6.108   4.208  17.304  0.00  0.00    +0.000 N 
ATOM      5  H   UNL     1       6.914   3.661  17.613  0.00  0.00    +0.000 HD
BRANCH   4   6
ATOM      6  C   UNL     1       4.835   3.874  17.836  0.00  0.00    +0.000 A 
ATOM      7  C   UNL     1       3.837   3.503  16.945  0.00  0.00    +0.000 A 
ATOM      8  C   UNL     1       2.570   3.166  17.422  0.00  0.00    +0.000 A 
ATOM      9  C   UNL     1       2.295   3.210  18.798  0.00  0.00    +0.000 A 
ATOM     10  C   UNL     1       3.310   3.580  19.693  0.00  0.00    +0.000 A 
ATOM     11  C   UNL     1       4.578   3.919  19.211  0.00  0.00    +0.000 A 
BRANCH   9  12
ATOM     12  C   UNL     1       0.934   2.792  19.226  0.00  0.00    +0.000 C 
ATOM     13  O   UNL     1       0.184   2.158  18.507  0.00  0.00    +0.000 OA
BRANCH  12  14
ATOM     14  O   UNL     1       0.572   3.203  20.460  0.00  0.00    +0.000 OA
ATOM     15  H   UNL     1       0.747   2.575  21.187  0.00  0.00    +0.000 HD
ENDBRANCH  12  14
ENDBRANCH   9  12
ENDBRANCH   4   6
ENDBRANCH   1   4
BRANCH   1  16
ATOM     16  C   UNL     1       4.866   6.474  16.608  0.00  0.00    +0.000 C 
BRANCH  16  17
ATOM     17  C   UNL     1       4.430   7.568  17.571  0.00  0.00    +0.000 C 
BRANCH  17  18
ATOM     18  C   UNL     1       3.092   7.256  18.239  0.00  0.00    +0.000 C 
BRANCH  18  19
ATOM     19  C   UNL     1       1.957   7.985  17.517  0.00  0.00    +0.000 C 
BRANCH  19  20
ATOM     20  C   UNL     1       1.926   9.469  17.873  0.00  0.00    +0.000 C 
BRANCH  20  21
ATOM     21  C   UNL     1       0.634   9.832  18.609  0.00  0.00    +0.000 C 
BRANCH  21  22
ATOM     22  C   UNL     1       0.922  10.225  20.057  0.00  0.00    +0.000 C 
BRANCH  22  24
ATOM     23  C   UNL     1       0.754   8.107  21.401  0.00  0.00    +0.000 C 
ATOM     24  C   UNL     1       0.073   9.416  21.036  0.00  0.00    +0.000 C 
ENDBRANCH  22  24
ENDBRANCH  21  22
ENDBRANCH  20  21
ENDBRANCH  19  20
ENDBRANCH  18  19
ENDBRANCH  17  18
ENDBRANCH  16  17
ENDBRANCH   1  16
TORSDOF 12
ENDMDL
MODEL 9
REMARK VINA RESULT:      -6.5      1.526      1.925
REMARK  Name = 
REMARK  13 active torsions:
REMARK  status: ('A' for Active; 'I' for Inactive)
REMARK    1  A    between atoms: C_1  and  C_2
REMARK    2  A    between atoms: C_2  and  C_3
REMARK    3  A    between atoms: C_3  and  C_4
REMARK    4  A    between atoms: C_4  and  C_5
REMARK    5  A    between atoms: C_5  and  C_6
REMARK    6  A    between atoms: C_6  and  C_7
REMARK    7  A    between atoms: C_7  and  C_8
REMARK    8  A    between atoms: C_8  and  C_9
REMARK    9  A    between atoms: C_9  and  S_10
REMARK   10  A    between atoms: S_10  and  N_13
REMARK   11  A    between atoms: N_13  and  C_14
REMARK   12  A    between atoms: C_17  and  C_18
REMARK   13  A    between atoms: C_18  and  O_20
REMARK                            x       y       z     vdW  Elec       q    Type
REMARK                         _______ _______ _______ _____ _____    ______ ____
ROOT
ATOM      1  S   UNL     1       5.968   5.305  16.228  0.00  0.00    +0.000 S 
ATOM      2  O   UNL     1       4.886   6.169  16.652  0.00  0.00    +0.000 OA
ATOM      3  O   UNL     1       6.527   5.391  14.899  0.00  0.00    +0.000 OA
ENDROOT
BRANCH   1   4
ATOM      4  N   UNL     1       5.421   3.737  16.519  0.00  0.00    +0.000 N 
ATOM      5  H   UNL     1       6.163   3.039  16.438  0.00  0.00    +0.000 HD
BRANCH   4   6
ATOM      6  C   UNL     1       4.431   3.543  17.517  0.00  0.00    +0.000 A 
ATOM      7  C   UNL     1       4.841   3.532  18.844  0.00  0.00    +0.000 A 
ATOM      8  C   UNL     1       3.903   3.345  19.859  0.00  0.00    +0.000 A 
ATOM      9  C   UNL     1       2.546   3.156  19.546  0.00  0.00    +0.000 A 
ATOM     10  C   UNL     1       2.139   3.174  18.205  0.00  0.00    +0.000 A 
ATOM     11  C   UNL     1       3.082   3.360  17.189  0.00  0.00    +0.000 A 
BRANCH   9  12
ATOM     12  C   UNL     1       1.607   3.009  20.689  0.00  0.00    +0.000 C 
ATOM     13  O   UNL     1       1.973   2.695  21.806  0.00  0.00    +0.000 OA
BRANCH  12  14
ATOM     14  O   UNL     1       0.306   3.210  20.387  0.00  0.00    +0.000 OA
ATOM     15  H   UNL     1      -0.150   2.466  19.950  0.00  0.00    +0.000 HD
ENDBRANCH  12  14
ENDBRANCH   9  12
ENDBRANCH   4   6
ENDBRANCH   1   4
BRANCH   1  16
ATOM     16  C   UNL     1       7.284   5.426  17.438  0.00  0.00    +0.000 C 
BRANCH  16  17
ATOM     17  C   UNL     1       7.258   6.786  18.120  0.00  0.00    +0.000 C 
BRANCH  17  18
ATOM     18  C   UNL     1       8.038   7.843  17.338  0.00  0.00    +0.000 C 
BRANCH  18  19
ATOM     19  C   UNL     1       7.820   9.226  17.957  0.00  0.00    +0.000 C 
BRANCH  19  20
ATOM     20  C   UNL     1       9.030   9.674  18.772  0.00  0.00    +0.000 C 
BRANCH  20  21
ATOM     21  C   UNL     1       9.488  11.073  18.353  0.00  0.00    +0.000 C 
BRANCH  21  22
ATOM     22  C   UNL     1      10.932  11.327  18.787  0.00  0.00    +0.000 C 
BRANCH  22  24
ATOM     23  C   UNL     1      10.183  12.095  21.060  0.00  0.00    +0.000 C 
ATOM     24  C   UNL     1      11.015  12.435  19.834  0.00  0.00    +0.000 C 
ENDBRANCH  22  24
ENDBRANCH  21  22
ENDBRANCH  20  21
ENDBRANCH  19  20
ENDBRANCH  18  19
ENDBRANCH  17  18
ENDBRANCH  16  17
ENDBRANCH   1  16
TORSDOF 12
ENDMDL
