MODEL 1
REMARK VINA RESULT:      -8.5      0.000      0.000
REMARK  Name = 
REMARK  7 active torsions:
REMARK  status: ('A' for Active; 'I' for Inactive)
REMARK    1  A    between atoms: C_1  and  C_2
REMARK    2  A    between atoms: C_2  and  N_3
REMARK    3  A    between atoms: C_4  and  C_6
REMARK    4  A    between atoms: C_8  and  C_9
REMARK    5  A    between atoms: C_9  and  C_10
REMARK    6  A    between atoms: C_18  and  C_19
REMARK    7  A    between atoms: N_21  and  C_22
REMARK                            x       y       z     vdW  Elec       q    Type
REMARK                         _______ _______ _______ _____ _____    ______ ____
ROOT
ATOM      1  C   UNL     1       5.387   5.145  16.161  0.00  0.00    +0.000 A 
ATOM      2  C   UNL     1       4.930   3.882  16.541  0.00  0.00    +0.000 A 
ATOM      3  C   UNL     1       3.884   3.798  17.452  0.00  0.00    +0.000 A 
ATOM      4  N   UNL     1       3.264   4.900  17.945  0.00  0.00    +0.000 NA
ATOM      5  C   UNL     1       3.690   6.120  17.523  0.00  0.00    +0.000 A 
ATOM      6  C   UNL     1       4.751   6.285  16.647  0.00  0.00    +0.000 A 
ENDROOT
BRANCH   5   7
ATOM      7  C   UNL     1       2.971   7.276  18.018  0.00  0.00    +0.000 A 
ATOM      8  C   UNL     1       2.329   7.378  19.233  0.00  0.00    +0.000 A 
ATOM      9  N   UNL     1       1.785   8.623  19.209  0.00  0.00    +0.000 N 
ATOM     10  C   UNL     1       0.975   9.256  20.211  0.00  0.00    +0.000 C 
ATOM     11  N   UNL     1       2.075   9.270  18.067  0.00  0.00    +0.000 NA
ATOM     12  N   UNL     1       2.804   8.449  17.324  0.00  0.00    +0.000 NA
ENDBRANCH   5   7
BRANCH   1  14
ATOM     13  N   UNL     1       6.375   4.620  14.002  0.00  0.00    +0.000 N 
ATOM     14  C   UNL     1       6.535   5.244  15.222  0.00  0.00    +0.000 C 
ATOM     15  O   UNL     1       7.534   5.879  15.538  0.00  0.00    +0.000 OA
ATOM     16  H   UNL     1       5.464   4.273  13.733  0.00  0.00    +0.000 HD
BRANCH  13  18
ATOM     17  C   UNL     1       7.091   3.714  11.837  0.00  0.00    +0.000 C 
ATOM     18  C   UNL     1       7.391   4.675  12.973  0.00  0.00    +0.000 C 
ENDBRANCH  13  18
ENDBRANCH   1  14
BRANCH   3  19
ATOM     19  C   UNL     1       3.385   2.454  17.939  0.00  0.00    +0.000 C 
BRANCH  19  20
ATOM     20  C   UNL     1       2.675   2.524  19.265  0.00  0.00    +0.000 A 
ATOM     21  C   UNL     1       3.387   2.457  20.471  0.00  0.00    +0.000 A 
ATOM     22  C   UNL     1       2.724   2.596  21.694  0.00  0.00    +0.000 A 
ATOM     23  C   UNL     1       1.345   2.808  21.722  0.00  0.00    +0.000 A 
ATOM     24  C   UNL     1       0.626   2.857  20.530  0.00  0.00    +0.000 A 
ATOM     25  C   UNL     1       1.291   2.711  19.318  0.00  0.00    +0.000 A 
ATOM     26  F   UNL     1       0.583   2.756  18.181  0.00  0.00    +0.000 F 
ENDBRANCH  19  20
ENDBRANCH   3  19
TORSDOF 5
ENDMDL
MODEL 2
REMARK VINA RESULT:      -8.4      1.002      1.389
REMARK  Name = 
REMARK  7 active torsions:
REMARK  status: ('A' for Active; 'I' for Inactive)
REMARK    1  A    between atoms: C_1  and  C_2
REMARK    2  A    between atoms: C_2  and  N_3
REMARK    3  A    between atoms: C_4  and  C_6
REMARK    4  A    between atoms: C_8  and  C_9
REMARK    5  A    between atoms: C_9  and  C_10
REMARK    6  A    between atoms: C_18  and  C_19
REMARK    7  A    between atoms: N_21  and  C_22
REMARK                            x       y       z     vdW  Elec       q    Type
REMARK                         _______ _______ _______ _____ _____    ______ ____
ROOT
ATOM      1  C   UNL     1       5.417   5.523  16.258  0.00  0.00    +0.000 A 
ATOM      2  C   UNL     1       4.899   4.261  16.551  0.00  0.00    +0.000 A 
ATOM      3  C   UNL     1       3.767   4.173  17.352  0.00  0.00    +0.000 A 
ATOM      4  N   UNL     1       3.125   5.275  17.817  0.00  0.00    +0.000 NA
ATOM      5  C   UNL     1       3.614   6.497  17.478  0.00  0.00    +0.000 A 
ATOM      6  C   UNL     1       4.760   6.662  16.716  0.00  0.00    +0.000 A 
ENDROOT
BRANCH   5   7
ATOM      7  C   UNL     1       2.873   7.654  17.937  0.00  0.00    +0.000 A 
ATOM      8  C   UNL     1       2.187   7.764  19.127  0.00  0.00    +0.000 A 
ATOM      9  N   UNL     1       1.641   9.006  19.072  0.00  0.00    +0.000 N 
ATOM     10  C   UNL     1       0.792   9.644  20.039  0.00  0.00    +0.000 C 
ATOM     11  N   UNL     1       1.970   9.645  17.936  0.00  0.00    +0.000 NA
ATOM     12  N   UNL     1       2.728   8.820  17.227  0.00  0.00    +0.000 NA
ENDBRANCH   5   7
BRANCH   1  14
ATOM     13  N   UNL     1       6.586   5.083  14.171  0.00  0.00    +0.000 N 
ATOM     14  C   UNL     1       6.654   5.623  15.439  0.00  0.00    +0.000 C 
ATOM     15  O   UNL     1       7.644   6.188  15.888  0.00  0.00    +0.000 OA
ATOM     16  H   UNL     1       5.691   4.799  13.796  0.00  0.00    +0.000 HD
BRANCH  13  18
ATOM     17  C   UNL     1       7.382   4.454  11.938  0.00  0.00    +0.000 C 
ATOM     18  C   UNL     1       7.698   5.152  13.248  0.00  0.00    +0.000 C 
ENDBRANCH  13  18
ENDBRANCH   1  14
BRANCH   3  19
ATOM     19  C   UNL     1       3.196   2.828  17.745  0.00  0.00    +0.000 C 
BRANCH  19  20
ATOM     20  C   UNL     1       2.575   2.819  19.118  0.00  0.00    +0.000 A 
ATOM     21  C   UNL     1       1.189   2.950  19.285  0.00  0.00    +0.000 A 
ATOM     22  C   UNL     1       0.619   2.867  20.559  0.00  0.00    +0.000 A 
ATOM     23  C   UNL     1       1.428   2.649  21.676  0.00  0.00    +0.000 A 
ATOM     24  C   UNL     1       2.807   2.536  21.521  0.00  0.00    +0.000 A 
ATOM     25  C   UNL     1       3.368   2.626  20.252  0.00  0.00    +0.000 A 
ATOM     26  F   UNL     1       4.699   2.520  20.123  0.00  0.00    +0.000 F 
ENDBRANCH  19  20
ENDBRANCH   3  19
TORSDOF 5
ENDMDL
MODEL 3
REMARK VINA RESULT:      -7.9      2.784      5.510
REMARK  Name = 
REMARK  7 active torsions:
REMARK  status: ('A' for Active; 'I' for Inactive)
REMARK    1  A    between atoms: C_1  and  C_2
REMARK    2  A    between atoms: C_2  and  N_3
REMARK    3  A    between atoms: C_4  and  C_6
REMARK    4  A    between atoms: C_8  and  C_9
REMARK    5  A    between atoms: C_9  and  C_10
REMARK    6  A    between atoms: C_18  and  C_19
REMARK    7  A    between atoms: N_21  and  C_22
REMARK                            x       y       z     vdW  Elec       q    Type
REMARK                         _______ _______ _______ _____ _____    ______ ____
ROOT
ATOM      1  C   UNL     1       6.732   6.478  17.504  0.00  0.00    +0.000 A 
ATOM      2  C   UNL     1       5.450   6.357  18.041  0.00  0.00    +0.000 A 
ATOM      3  C   UNL     1       4.461   5.747  17.278  0.00  0.00    +0.000 A 
ATOM      4  N   UNL     1       4.715   5.225  16.052  0.00  0.00    +0.000 NA
ATOM      5  C   UNL     1       5.983   5.306  15.567  0.00  0.00    +0.000 A 
ATOM      6  C   UNL     1       7.011   5.934  16.253  0.00  0.00    +0.000 A 
ENDROOT
BRANCH   5   7
ATOM      7  C   UNL     1       6.238   4.686  14.283  0.00  0.00    +0.000 A 
ATOM      8  C   UNL     1       5.518   3.657  13.716  0.00  0.00    +0.000 A 
ATOM      9  N   UNL     1       6.166   3.414  12.547  0.00  0.00    +0.000 N 
ATOM     10  C   UNL     1       5.866   2.416  11.559  0.00  0.00    +0.000 C 
ATOM     11  N   UNL     1       7.212   4.240  12.377  0.00  0.00    +0.000 NA
ATOM     12  N   UNL     1       7.268   5.029  13.442  0.00  0.00    +0.000 NA
ENDBRANCH   5   7
BRANCH   1  14
ATOM     13  N   UNL     1       7.993   8.500  17.993  0.00  0.00    +0.000 N 
ATOM     14  C   UNL     1       7.783   7.170  18.296  0.00  0.00    +0.000 C 
ATOM     15  O   UNL     1       8.383   6.568  19.178  0.00  0.00    +0.000 OA
ATOM     16  H   UNL     1       7.343   8.984  17.387  0.00  0.00    +0.000 HD
BRANCH  13  18
ATOM     17  C   UNL     1       9.001  10.729  18.181  0.00  0.00    +0.000 C 
ATOM     18  C   UNL     1       8.950   9.309  18.717  0.00  0.00    +0.000 C 
ENDBRANCH  13  18
ENDBRANCH   1  14
BRANCH   3  19
ATOM     19  C   UNL     1       3.041   5.638  17.791  0.00  0.00    +0.000 C 
BRANCH  19  20
ATOM     20  C   UNL     1       2.885   4.644  18.913  0.00  0.00    +0.000 A 
ATOM     21  C   UNL     1       3.366   3.333  18.790  0.00  0.00    +0.000 A 
ATOM     22  C   UNL     1       3.279   2.444  19.864  0.00  0.00    +0.000 A 
ATOM     23  C   UNL     1       2.715   2.857  21.072  0.00  0.00    +0.000 A 
ATOM     24  C   UNL     1       2.218   4.152  21.198  0.00  0.00    +0.000 A 
ATOM     25  C   UNL     1       2.301   5.029  20.123  0.00  0.00    +0.000 A 
ATOM     26  F   UNL     1       1.813   6.271  20.260  0.00  0.00    +0.000 F 
ENDBRANCH  19  20
ENDBRANCH   3  19
TORSDOF 5
ENDMDL
MODEL 4
REMARK VINA RESULT:      -7.9      2.643      5.433
REMARK  Name = 
REMARK  7 active torsions:
REMARK  status: ('A' for Active; 'I' for Inactive)
REMARK    1  A    between atoms: C_1  and  C_2
REMARK    2  A    between atoms: C_2  and  N_3
REMARK    3  A    between atoms: C_4  and  C_6
REMARK    4  A    between atoms: C_8  and  C_9
REMARK    5  A    between atoms: C_9  and  C_10
REMARK    6  A    between atoms: C_18  and  C_19
REMARK    7  A    between atoms: N_21  and  C_22
REMARK                            x       y       z     vdW  Elec       q    Type
REMARK                         _______ _______ _______ _____ _____    ______ ____
ROOT
ATOM      1  C   UNL     1       6.569   6.214  17.452  0.00  0.00    +0.000 A 
ATOM      2  C   UNL     1       5.279   6.095  17.974  0.00  0.00    +0.000 A 
ATOM      3  C   UNL     1       4.295   5.502  17.193  0.00  0.00    +0.000 A 
ATOM      4  N   UNL     1       4.558   4.994  15.962  0.00  0.00    +0.000 NA
ATOM      5  C   UNL     1       5.831   5.073  15.492  0.00  0.00    +0.000 A 
ATOM      6  C   UNL     1       6.856   5.684  16.197  0.00  0.00    +0.000 A 
ENDROOT
BRANCH   5   7
ATOM      7  C   UNL     1       6.096   4.468  14.203  0.00  0.00    +0.000 A 
ATOM      8  C   UNL     1       5.341   3.492  13.589  0.00  0.00    +0.000 A 
ATOM      9  N   UNL     1       6.013   3.239  12.436  0.00  0.00    +0.000 N 
ATOM     10  C   UNL     1       5.693   2.281  11.416  0.00  0.00    +0.000 C 
ATOM     11  N   UNL     1       7.107   4.011  12.319  0.00  0.00    +0.000 NA
ATOM     12  N   UNL     1       7.169   4.772  13.403  0.00  0.00    +0.000 NA
ENDBRANCH   5   7
BRANCH   1  14
ATOM     13  N   UNL     1       7.882   8.202  17.939  0.00  0.00    +0.000 N 
ATOM     14  C   UNL     1       7.616   6.887  18.264  0.00  0.00    +0.000 C 
ATOM     15  O   UNL     1       8.164   6.286  19.179  0.00  0.00    +0.000 OA
ATOM     16  H   UNL     1       7.270   8.693  17.301  0.00  0.00    +0.000 HD
BRANCH  13  18
ATOM     17  C   UNL     1       8.879  10.430  18.185  0.00  0.00    +0.000 C 
ATOM     18  C   UNL     1       8.842   8.994  18.677  0.00  0.00    +0.000 C 
ENDBRANCH  13  18
ENDBRANCH   1  14
BRANCH   3  19
ATOM     19  C   UNL     1       2.869   5.397  17.689  0.00  0.00    +0.000 C 
BRANCH  19  20
ATOM     20  C   UNL     1       2.730   4.569  18.940  0.00  0.00    +0.000 A 
ATOM     21  C   UNL     1       2.443   5.167  20.175  0.00  0.00    +0.000 A 
ATOM     22  C   UNL     1       2.246   4.380  21.314  0.00  0.00    +0.000 A 
ATOM     23  C   UNL     1       2.328   2.990  21.227  0.00  0.00    +0.000 A 
ATOM     24  C   UNL     1       2.630   2.388  20.008  0.00  0.00    +0.000 A 
ATOM     25  C   UNL     1       2.832   3.176  18.881  0.00  0.00    +0.000 A 
ATOM     26  F   UNL     1       3.128   2.580  17.717  0.00  0.00    +0.000 F 
ENDBRANCH  19  20
ENDBRANCH   3  19
TORSDOF 5
ENDMDL
MODEL 5
REMARK VINA RESULT:      -7.8      2.892      3.854
REMARK  Name = 
REMARK  7 active torsions:
REMARK  status: ('A' for Active; 'I' for Inactive)
REMARK    1  A    between atoms: C_1  and  C_2
REMARK    2  A    between atoms: C_2  and  N_3
REMARK    3  A    between atoms: C_4  and  C_6
REMARK    4  A    between atoms: C_8  and  C_9
REMARK    5  A    between atoms: C_9  and  C_10
REMARK    6  A    between atoms: C_18  and  C_19
REMARK    7  A    between atoms: N_21  and  C_22
REMARK                            x       y       z     vdW  Elec       q    Type
REMARK                         _______ _______ _______ _____ _____    ______ ____
ROOT
ATOM      1  C   UNL     1       6.335   4.279  14.720  0.00  0.00    +0.000 A 
ATOM      2  C   UNL     1       5.286   3.588  15.329  0.00  0.00    +0.000 A 
ATOM      3  C   UNL     1       5.011   3.837  16.669  0.00  0.00    +0.000 A 
ATOM      4  N   UNL     1       5.699   4.761  17.387  0.00  0.00    +0.000 NA
ATOM      5  C   UNL     1       6.683   5.460  16.763  0.00  0.00    +0.000 A 
ATOM      6  C   UNL     1       7.038   5.240  15.441  0.00  0.00    +0.000 A 
ENDROOT
BRANCH   5   7
ATOM      7  C   UNL     1       7.357   6.482  17.536  0.00  0.00    +0.000 A 
ATOM      8  C   UNL     1       7.481   7.812  17.197  0.00  0.00    +0.000 A 
ATOM      9  N   UNL     1       8.217   8.338  18.211  0.00  0.00    +0.000 N 
ATOM     10  C   UNL     1       8.677   9.689  18.365  0.00  0.00    +0.000 C 
ATOM     11  N   UNL     1       8.524   7.411  19.135  0.00  0.00    +0.000 NA
ATOM     12  N   UNL     1       8.000   6.262  18.729  0.00  0.00    +0.000 NA
ENDBRANCH   5   7
BRANCH   1  14
ATOM     13  N   UNL     1       6.107   2.837  12.775  0.00  0.00    +0.000 N 
ATOM     14  C   UNL     1       6.663   3.985  13.301  0.00  0.00    +0.000 C 
ATOM     15  O   UNL     1       7.362   4.760  12.660  0.00  0.00    +0.000 OA
ATOM     16  H   UNL     1       5.395   2.342  13.296  0.00  0.00    +0.000 HD
BRANCH  13  18
ATOM     17  C   UNL     1       6.154   0.955  11.202  0.00  0.00    +0.000 C 
ATOM     18  C   UNL     1       6.302   2.454  11.393  0.00  0.00    +0.000 C 
ENDBRANCH  13  18
ENDBRANCH   1  14
BRANCH   3  19
ATOM     19  C   UNL     1       3.920   3.076  17.392  0.00  0.00    +0.000 C 
BRANCH  19  20
ATOM     20  C   UNL     1       3.231   3.888  18.458  0.00  0.00    +0.000 A 
ATOM     21  C   UNL     1       2.561   5.078  18.141  0.00  0.00    +0.000 A 
ATOM     22  C   UNL     1       1.865   5.783  19.127  0.00  0.00    +0.000 A 
ATOM     23  C   UNL     1       1.828   5.303  20.437  0.00  0.00    +0.000 A 
ATOM     24  C   UNL     1       2.506   4.131  20.765  0.00  0.00    +0.000 A 
ATOM     25  C   UNL     1       3.202   3.439  19.781  0.00  0.00    +0.000 A 
ATOM     26  F   UNL     1       3.854   2.316  20.116  0.00  0.00    +0.000 F 
ENDBRANCH  19  20
ENDBRANCH   3  19
TORSDOF 5
ENDMDL
MODEL 6
REMARK VINA RESULT:      -7.8      1.508      5.526
REMARK  Name = 
REMARK  7 active torsions:
REMARK  status: ('A' for Active; 'I' for Inactive)
REMARK    1  A    between atoms: C_1  and  C_2
REMARK    2  A    between atoms: C_2  and  N_3
REMARK    3  A    between atoms: C_4  and  C_6
REMARK    4  A    between atoms: C_8  and  C_9
REMARK    5  A    between atoms: C_9  and  C_10
REMARK    6  A    between atoms: C_18  and  C_19
REMARK    7  A    between atoms: N_21  and  C_22
REMARK                            x       y       z     vdW  Elec       q    Type
REMARK                         _______ _______ _______ _____ _____    ______ ____
ROOT
ATOM      1  C   UNL     1       3.693   6.194  17.516  0.00  0.00    +0.000 A 
ATOM      2  C   UNL     1       3.430   4.980  18.154  0.00  0.00    +0.000 A 
ATOM      3  C   UNL     1       4.023   3.824  17.661  0.00  0.00    +0.000 A 
ATOM      4  N   UNL     1       4.883   3.845  16.611  0.00  0.00    +0.000 NA
ATOM      5  C   UNL     1       5.168   5.044  16.036  0.00  0.00    +0.000 A 
ATOM      6  C   UNL     1       4.586   6.232  16.448  0.00  0.00    +0.000 A 
ENDROOT
BRANCH   5   7
ATOM      7  C   UNL     1       6.136   5.044  14.958  0.00  0.00    +0.000 A 
ATOM      8  C   UNL     1       5.992   4.430  13.733  0.00  0.00    +0.000 A 
ATOM      9  N   UNL     1       7.167   4.687  13.102  0.00  0.00    +0.000 N 
ATOM     10  C   UNL     1       7.585   4.259  11.797  0.00  0.00    +0.000 C 
ATOM     11  N   UNL     1       7.991   5.424  13.866  0.00  0.00    +0.000 NA
ATOM     12  N   UNL     1       7.366   5.649  15.014  0.00  0.00    +0.000 NA
ENDBRANCH   5   7
BRANCH   1  14
ATOM     13  N   UNL     1       2.327   7.305  19.193  0.00  0.00    +0.000 N 
ATOM     14  C   UNL     1       3.028   7.427  18.011  0.00  0.00    +0.000 C 
ATOM     15  O   UNL     1       3.146   8.478  17.393  0.00  0.00    +0.000 OA
ATOM     16  H   UNL     1       2.421   6.463  19.746  0.00  0.00    +0.000 HD
BRANCH  13  18
ATOM     17  C   UNL     1       1.368   8.170  21.279  0.00  0.00    +0.000 C 
ATOM     18  C   UNL     1       1.671   8.435  19.816  0.00  0.00    +0.000 C 
ENDBRANCH  13  18
ENDBRANCH   1  14
BRANCH   3  19
ATOM     19  C   UNL     1       3.729   2.475  18.281  0.00  0.00    +0.000 C 
BRANCH  19  20
ATOM     20  C   UNL     1       2.821   2.554  19.480  0.00  0.00    +0.000 A 
ATOM     21  C   UNL     1       3.338   2.520  20.783  0.00  0.00    +0.000 A 
ATOM     22  C   UNL     1       2.491   2.666  21.885  0.00  0.00    +0.000 A 
ATOM     23  C   UNL     1       1.121   2.852  21.696  0.00  0.00    +0.000 A 
ATOM     24  C   UNL     1       0.595   2.869  20.406  0.00  0.00    +0.000 A 
ATOM     25  C   UNL     1       1.443   2.716  19.315  0.00  0.00    +0.000 A 
ATOM     26  F   UNL     1       0.919   2.729  18.080  0.00  0.00    +0.000 F 
ENDBRANCH  19  20
ENDBRANCH   3  19
TORSDOF 5
ENDMDL
MODEL 7
REMARK VINA RESULT:      -7.8      3.116      6.114
REMARK  Name = 
REMARK  7 active torsions:
REMARK  status: ('A' for Active; 'I' for Inactive)
REMARK    1  A    between atoms: C_1  and  C_2
REMARK    2  A    between atoms: C_2  and  N_3
REMARK    3  A    between atoms: C_4  and  C_6
REMARK    4  A    between atoms: C_8  and  C_9
REMARK    5  A    between atoms: C_9  and  C_10
REMARK    6  A    between atoms: C_18  and  C_19
REMARK    7  A    between atoms: N_21  and  C_22
REMARK                            x       y       z     vdW  Elec       q    Type
REMARK                         _______ _______ _______ _____ _____    ______ ____
ROOT
ATOM      1  C   UNL     1       6.780   6.559  17.473  0.00  0.00    +0.000 A 
ATOM      2  C   UNL     1       5.522   6.367  18.046  0.00  0.00    +0.000 A 
ATOM      3  C   UNL     1       4.550   5.696  17.313  0.00  0.00    +0.000 A 
ATOM      4  N   UNL     1       4.801   5.182  16.082  0.00  0.00    +0.000 NA
ATOM      5  C   UNL     1       6.048   5.334  15.563  0.00  0.00    +0.000 A 
ATOM      6  C   UNL     1       7.056   6.024  16.218  0.00  0.00    +0.000 A 
ENDROOT
BRANCH   5   7
ATOM      7  C   UNL     1       6.304   4.722  14.275  0.00  0.00    +0.000 A 
ATOM      8  C   UNL     1       5.604   3.676  13.715  0.00  0.00    +0.000 A 
ATOM      9  N   UNL     1       6.244   3.449  12.539  0.00  0.00    +0.000 N 
ATOM     10  C   UNL     1       5.958   2.446  11.553  0.00  0.00    +0.000 C 
ATOM     11  N   UNL     1       7.268   4.301  12.358  0.00  0.00    +0.000 NA
ATOM     12  N   UNL     1       7.316   5.090  13.423  0.00  0.00    +0.000 NA
ENDBRANCH   5   7
BRANCH   1  14
ATOM     13  N   UNL     1       7.942   8.650  17.911  0.00  0.00    +0.000 N 
ATOM     14  C   UNL     1       7.810   7.315  18.233  0.00  0.00    +0.000 C 
ATOM     15  O   UNL     1       8.460   6.757  19.108  0.00  0.00    +0.000 OA
ATOM     16  H   UNL     1       7.254   9.092  17.315  0.00  0.00    +0.000 HD
BRANCH  13  18
ATOM     17  C   UNL     1       8.805  10.940  18.078  0.00  0.00    +0.000 C 
ATOM     18  C   UNL     1       8.871   9.518  18.603  0.00  0.00    +0.000 C 
ENDBRANCH  13  18
ENDBRANCH   1  14
BRANCH   3  19
ATOM     19  C   UNL     1       3.153   5.509  17.864  0.00  0.00    +0.000 C 
BRANCH  19  20
ATOM     20  C   UNL     1       2.587   6.754  18.495  0.00  0.00    +0.000 A 
ATOM     21  C   UNL     1       2.339   7.904  17.730  0.00  0.00    +0.000 A 
ATOM     22  C   UNL     1       1.746   9.027  18.313  0.00  0.00    +0.000 A 
ATOM     23  C   UNL     1       1.392   9.012  19.663  0.00  0.00    +0.000 A 
ATOM     24  C   UNL     1       1.651   7.881  20.435  0.00  0.00    +0.000 A 
ATOM     25  C   UNL     1       2.247   6.770  19.850  0.00  0.00    +0.000 A 
ATOM     26  F   UNL     1       2.494   5.692  20.609  0.00  0.00    +0.000 F 
ENDBRANCH  19  20
ENDBRANCH   3  19
TORSDOF 5
ENDMDL
MODEL 8
REMARK VINA RESULT:      -7.8      0.817      1.023
REMARK  Name = 
REMARK  7 active torsions:
REMARK  status: ('A' for Active; 'I' for Inactive)
REMARK    1  A    between atoms: C_1  and  C_2
REMARK    2  A    between atoms: C_2  and  N_3
REMARK    3  A    between atoms: C_4  and  C_6
REMARK    4  A    between atoms: C_8  and  C_9
REMARK    5  A    between atoms: C_9  and  C_10
REMARK    6  A    between atoms: C_18  and  C_19
REMARK    7  A    between atoms: N_21  and  C_22
REMARK                            x       y       z     vdW  Elec       q    Type
REMARK                         _______ _______ _______ _____ _____    ______ ____
ROOT
ATOM      1  C   UNL     1       5.475   4.866  15.970  0.00  0.00    +0.000 A 
ATOM      2  C   UNL     1       5.194   3.627  16.547  0.00  0.00    +0.000 A 
ATOM      3  C   UNL     1       4.311   3.574  17.619  0.00  0.00    +0.000 A 
ATOM      4  N   UNL     1       3.679   4.680  18.089  0.00  0.00    +0.000 NA
ATOM      5  C   UNL     1       3.926   5.870  17.480  0.00  0.00    +0.000 A 
ATOM      6  C   UNL     1       4.823   6.006  16.432  0.00  0.00    +0.000 A 
ENDROOT
BRANCH   5   7
ATOM      7  C   UNL     1       3.191   7.021  17.962  0.00  0.00    +0.000 A 
ATOM      8  C   UNL     1       3.100   8.248  17.342  0.00  0.00    +0.000 A 
ATOM      9  N   UNL     1       2.343   8.987  18.195  0.00  0.00    +0.000 N 
ATOM     10  C   UNL     1       1.952  10.363  18.068  0.00  0.00    +0.000 C 
ATOM     11  N   UNL     1       1.968   8.275  19.271  0.00  0.00    +0.000 NA
ATOM     12  N   UNL     1       2.486   7.061  19.139  0.00  0.00    +0.000 NA
ENDBRANCH   5   7
BRANCH   1  14
ATOM     13  N   UNL     1       6.177   4.147  13.755  0.00  0.00    +0.000 N 
ATOM     14  C   UNL     1       6.453   4.936  14.853  0.00  0.00    +0.000 C 
ATOM     15  O   UNL     1       7.417   5.688  14.927  0.00  0.00    +0.000 OA
ATOM     16  H   UNL     1       5.276   3.694  13.679  0.00  0.00    +0.000 HD
BRANCH  13  18
ATOM     17  C   UNL     1       6.771   2.930  11.710  0.00  0.00    +0.000 C 
ATOM     18  C   UNL     1       7.016   4.152  12.576  0.00  0.00    +0.000 C 
ENDBRANCH  13  18
ENDBRANCH   1  14
BRANCH   3  19
ATOM     19  C   UNL     1       4.013   2.264  18.316  0.00  0.00    +0.000 C 
BRANCH  19  20
ATOM     20  C   UNL     1       3.032   2.399  19.450  0.00  0.00    +0.000 A 
ATOM     21  C   UNL     1       3.467   2.441  20.783  0.00  0.00    +0.000 A 
ATOM     22  C   UNL     1       2.552   2.640  21.820  0.00  0.00    +0.000 A 
ATOM     23  C   UNL     1       1.195   2.803  21.536  0.00  0.00    +0.000 A 
ATOM     24  C   UNL     1       0.751   2.744  20.218  0.00  0.00    +0.000 A 
ATOM     25  C   UNL     1       1.665   2.540  19.191  0.00  0.00    +0.000 A 
ATOM     26  F   UNL     1       1.219   2.481  17.928  0.00  0.00    +0.000 F 
ENDBRANCH  19  20
ENDBRANCH   3  19
TORSDOF 5
ENDMDL
MODEL 9
REMARK VINA RESULT:      -7.8      3.277      4.035
REMARK  Name = 
REMARK  7 active torsions:
REMARK  status: ('A' for Active; 'I' for Inactive)
REMARK    1  A    between atoms: C_1  and  C_2
REMARK    2  A    between atoms: C_2  and  N_3
REMARK    3  A    between atoms: C_4  and  C_6
REMARK    4  A    between atoms: C_8  and  C_9
REMARK    5  A    between atoms: C_9  and  C_10
REMARK    6  A    between atoms: C_18  and  C_19
REMARK    7  A    between atoms: N_21  and  C_22
REMARK                            x       y       z     vdW  Elec       q    Type
REMARK                         _______ _______ _______ _____ _____    ______ ____
ROOT
ATOM      1  C   UNL     1       6.816   5.183  15.681  0.00  0.00    +0.000 A 
ATOM      2  C   UNL     1       6.087   4.404  16.581  0.00  0.00    +0.000 A 
ATOM      3  C   UNL     1       6.049   4.786  17.917  0.00  0.00    +0.000 A 
ATOM      4  N   UNL     1       6.657   5.915  18.362  0.00  0.00    +0.000 NA
ATOM      5  C   UNL     1       7.318   6.689  17.461  0.00  0.00    +0.000 A 
ATOM      6  C   UNL     1       7.431   6.352  16.121  0.00  0.00    +0.000 A 
ENDROOT
BRANCH   5   7
ATOM      7  C   UNL     1       7.903   7.919  17.953  0.00  0.00    +0.000 A 
ATOM      8  C   UNL     1       7.758   9.171  17.397  0.00  0.00    +0.000 A 
ATOM      9  N   UNL     1       8.517   9.969  18.191  0.00  0.00    +0.000 N 
ATOM     10  C   UNL     1       8.759  11.379  18.060  0.00  0.00    +0.000 C 
ATOM     11  N   UNL     1       9.091   9.276  19.190  0.00  0.00    +0.000 NA
ATOM     12  N   UNL     1       8.720   8.010  19.052  0.00  0.00    +0.000 NA
ENDBRANCH   5   7
BRANCH   1  14
ATOM     13  N   UNL     1       6.183   3.625  13.925  0.00  0.00    +0.000 N 
ATOM     14  C   UNL     1       6.898   4.756  14.259  0.00  0.00    +0.000 C 
ATOM     15  O   UNL     1       7.546   5.416  13.457  0.00  0.00    +0.000 OA
ATOM     16  H   UNL     1       5.525   3.235  14.586  0.00  0.00    +0.000 HD
BRANCH  13  18
ATOM     17  C   UNL     1       4.806   3.438  11.903  0.00  0.00    +0.000 C 
ATOM     18  C   UNL     1       6.133   3.123  12.568  0.00  0.00    +0.000 C 
ENDBRANCH  13  18
ENDBRANCH   1  14
BRANCH   3  19
ATOM     19  C   UNL     1       5.320   3.947  18.944  0.00  0.00    +0.000 C 
BRANCH  19  20
ATOM     20  C   UNL     1       3.850   3.793  18.655  0.00  0.00    +0.000 A 
ATOM     21  C   UNL     1       3.055   4.903  18.336  0.00  0.00    +0.000 A 
ATOM     22  C   UNL     1       1.709   4.737  17.999  0.00  0.00    +0.000 A 
ATOM     23  C   UNL     1       1.145   3.460  17.974  0.00  0.00    +0.000 A 
ATOM     24  C   UNL     1       1.922   2.353  18.308  0.00  0.00    +0.000 A 
ATOM     25  C   UNL     1       3.258   2.526  18.648  0.00  0.00    +0.000 A 
ATOM     26  F   UNL     1       3.990   1.450  18.972  0.00  0.00    +0.000 F 
ENDBRANCH  19  20
ENDBRANCH   3  19
TORSDOF 5
ENDMDL
