MODEL 1
REMARK VINA RESULT:      -7.7      0.000      0.000
REMARK  Name = 
REMARK  6 active torsions:
REMARK  status: ('A' for Active; 'I' for Inactive)
REMARK    1  A    between atoms: C_1  and  C_2
REMARK    2  A    between atoms: C_4  and  C_5
REMARK    3  A    between atoms: C_10  and  C_11
REMARK    4  A    between atoms: C_13  and  C_14
REMARK    5  A    between atoms: C_15  and  C_16
REMARK    6  A    between atoms: C_17  and  C_18
REMARK                            x       y       z     vdW  Elec       q    Type
REMARK                         _______ _______ _______ _____ _____    ______ ____
ROOT
ATOM      1  C   UNL     1       1.795  10.739  18.211  0.00  0.00    +0.000 C 
ATOM      2  C   UNL     1       1.419   9.856  19.359  0.00  0.00    +0.000 A 
ATOM      3  C   UNL     1       0.722  10.322  20.449  0.00  0.00    +0.000 A 
ATOM      4  C   UNL     1       0.440   9.404  21.444  0.00  0.00    +0.000 A 
ATOM      5  C   UNL     1      -0.283   9.825  22.689  0.00  0.00    +0.000 C 
ATOM      6  N   UNL     1       0.814   8.108  21.370  0.00  0.00    +0.000 NA
ATOM      7  C   UNL     1       1.514   7.731  20.276  0.00  0.00    +0.000 A 
ATOM      8  N   UNL     1       1.991   6.379  20.183  0.00  0.00    +0.000 N 
ATOM      9  N   UNL     1       1.671   5.414  21.102  0.00  0.00    +0.000 NA
ATOM     10  C   UNL     1       2.296   4.311  20.667  0.00  0.00    +0.000 A 
ATOM     11  C   UNL     1       2.135   3.053  21.441  0.00  0.00    +0.000 C 
ATOM     12  C   UNL     1       3.055   4.541  19.483  0.00  0.00    +0.000 A 
ATOM     13  C   UNL     1       3.905   3.810  18.609  0.00  0.00    +0.000 A 
ATOM     14  C   UNL     1       4.222   2.352  18.804  0.00  0.00    +0.000 C 
ATOM     15  C   UNL     1       4.477   4.529  17.515  0.00  0.00    +0.000 A 
ATOM     16  C   UNL     1       5.412   3.866  16.534  0.00  0.00    +0.000 C 
ATOM     17  C   UNL     1       4.168   5.889  17.352  0.00  0.00    +0.000 A 
ATOM     18  C   UNL     1       4.724   6.745  16.249  0.00  0.00    +0.000 C 
ATOM     19  N   UNL     1       3.355   6.571  18.171  0.00  0.00    +0.000 NA
ATOM     20  C   UNL     1       2.833   5.879  19.197  0.00  0.00    +0.000 A 
ATOM     21  N   UNL     1       1.813   8.577  19.266  0.00  0.00    +0.000 NA
ENDROOT
TORSDOF 0
ENDMDL
MODEL 2
REMARK VINA RESULT:      -7.5      1.085      3.544
REMARK  Name = 
REMARK  6 active torsions:
REMARK  status: ('A' for Active; 'I' for Inactive)
REMARK    1  A    between atoms: C_1  and  C_2
REMARK    2  A    between atoms: C_4  and  C_5
REMARK    3  A    between atoms: C_10  and  C_11
REMARK    4  A    between atoms: C_13  and  C_14
REMARK    5  A    between atoms: C_15  and  C_16
REMARK    6  A    between atoms: C_17  and  C_18
REMARK                            x       y       z     vdW  Elec       q    Type
REMARK                         _______ _______ _______ _____ _____    ______ ____
ROOT
ATOM      1  C   UNL     1      -0.417   8.557  22.057  0.00  0.00    +0.000 C 
ATOM      2  C   UNL     1       0.351   9.073  20.882  0.00  0.00    +0.000 A 
ATOM      3  C   UNL     1       0.253  10.376  20.453  0.00  0.00    +0.000 A 
ATOM      4  C   UNL     1       1.015  10.726  19.352  0.00  0.00    +0.000 A 
ATOM      5  C   UNL     1       0.946  12.113  18.788  0.00  0.00    +0.000 C 
ATOM      6  N   UNL     1       1.825   9.852  18.716  0.00  0.00    +0.000 NA
ATOM      7  C   UNL     1       1.851   8.584  19.185  0.00  0.00    +0.000 A 
ATOM      8  N   UNL     1       2.646   7.601  18.501  0.00  0.00    +0.000 N 
ATOM      9  N   UNL     1       3.477   7.915  17.457  0.00  0.00    +0.000 NA
ATOM     10  C   UNL     1       4.033   6.748  17.104  0.00  0.00    +0.000 A 
ATOM     11  C   UNL     1       5.019   6.740  15.993  0.00  0.00    +0.000 C 
ATOM     12  C   UNL     1       3.556   5.654  17.884  0.00  0.00    +0.000 A 
ATOM     13  C   UNL     1       3.743   4.248  17.964  0.00  0.00    +0.000 A 
ATOM     14  C   UNL     1       4.679   3.492  17.060  0.00  0.00    +0.000 C 
ATOM     15  C   UNL     1       2.980   3.551  18.950  0.00  0.00    +0.000 A 
ATOM     16  C   UNL     1       3.075   2.054  19.115  0.00  0.00    +0.000 C 
ATOM     17  C   UNL     1       2.112   4.275  19.784  0.00  0.00    +0.000 A 
ATOM     18  C   UNL     1       1.251   3.645  20.842  0.00  0.00    +0.000 C 
ATOM     19  N   UNL     1       1.949   5.604  19.714  0.00  0.00    +0.000 NA
ATOM     20  C   UNL     1       2.670   6.240  18.775  0.00  0.00    +0.000 A 
ATOM     21  N   UNL     1       1.139   8.182  20.261  0.00  0.00    +0.000 NA
ENDROOT
TORSDOF 0
ENDMDL
MODEL 3
REMARK VINA RESULT:      -6.4      1.496      7.302
REMARK  Name = 
REMARK  6 active torsions:
REMARK  status: ('A' for Active; 'I' for Inactive)
REMARK    1  A    between atoms: C_1  and  C_2
REMARK    2  A    between atoms: C_4  and  C_5
REMARK    3  A    between atoms: C_10  and  C_11
REMARK    4  A    between atoms: C_13  and  C_14
REMARK    5  A    between atoms: C_15  and  C_16
REMARK    6  A    between atoms: C_17  and  C_18
REMARK                            x       y       z     vdW  Elec       q    Type
REMARK                         _______ _______ _______ _____ _____    ______ ____
ROOT
ATOM      1  C   UNL     1       1.763   4.875  20.560  0.00  0.00    +0.000 C 
ATOM      2  C   UNL     1       2.312   5.847  19.566  0.00  0.00    +0.000 A 
ATOM      3  C   UNL     1       3.233   5.483  18.611  0.00  0.00    +0.000 A 
ATOM      4  C   UNL     1       3.665   6.478  17.752  0.00  0.00    +0.000 A 
ATOM      5  C   UNL     1       4.695   6.186  16.703  0.00  0.00    +0.000 C 
ATOM      6  N   UNL     1       3.216   7.751  17.825  0.00  0.00    +0.000 NA
ATOM      7  C   UNL     1       2.328   8.035  18.804  0.00  0.00    +0.000 A 
ATOM      8  N   UNL     1       1.872   9.389  18.963  0.00  0.00    +0.000 N 
ATOM      9  N   UNL     1       2.208  10.392  18.091  0.00  0.00    +0.000 NA
ATOM     10  C   UNL     1       1.594  11.481  18.575  0.00  0.00    +0.000 A 
ATOM     11  C   UNL     1       1.740  12.762  17.838  0.00  0.00    +0.000 C 
ATOM     12  C   UNL     1       0.877  11.218  19.779  0.00  0.00    +0.000 A 
ATOM     13  C   UNL     1       0.091  11.932  20.722  0.00  0.00    +0.000 A 
ATOM     14  C   UNL     1      -0.202  13.403  20.599  0.00  0.00    +0.000 C 
ATOM     15  C   UNL     1      -0.416  11.190  21.832  0.00  0.00    +0.000 A 
ATOM     16  C   UNL     1      -1.244  11.844  22.911  0.00  0.00    +0.000 C 
ATOM     17  C   UNL     1      -0.131   9.819  21.928  0.00  0.00    +0.000 A 
ATOM     18  C   UNL     1      -0.598   8.945  23.059  0.00  0.00    +0.000 C 
ATOM     19  N   UNL     1       0.600   9.145  21.029  0.00  0.00    +0.000 NA
ATOM     20  C   UNL     1       1.074   9.863  19.996  0.00  0.00    +0.000 A 
ATOM     21  N   UNL     1       1.860   7.107  19.667  0.00  0.00    +0.000 NA
ENDROOT
TORSDOF 0
ENDMDL
MODEL 4
REMARK VINA RESULT:      -6.2      5.629      8.518
REMARK  Name = 
REMARK  6 active torsions:
REMARK  status: ('A' for Active; 'I' for Inactive)
REMARK    1  A    between atoms: C_1  and  C_2
REMARK    2  A    between atoms: C_4  and  C_5
REMARK    3  A    between atoms: C_10  and  C_11
REMARK    4  A    between atoms: C_13  and  C_14
REMARK    5  A    between atoms: C_15  and  C_16
REMARK    6  A    between atoms: C_17  and  C_18
REMARK                            x       y       z     vdW  Elec       q    Type
REMARK                         _______ _______ _______ _____ _____    ______ ____
ROOT
ATOM      1  C   UNL     1      -1.504  14.554  24.174  0.00  0.00    +0.000 C 
ATOM      2  C   UNL     1      -2.780  14.380  23.414  0.00  0.00    +0.000 A 
ATOM      3  C   UNL     1      -3.981  14.869  23.870  0.00  0.00    +0.000 A 
ATOM      4  C   UNL     1      -5.089  14.638  23.073  0.00  0.00    +0.000 A 
ATOM      5  C   UNL     1      -6.448  15.101  23.504  0.00  0.00    +0.000 C 
ATOM      6  N   UNL     1      -5.019  13.972  21.901  0.00  0.00    +0.000 NA
ATOM      7  C   UNL     1      -3.806  13.504  21.531  0.00  0.00    +0.000 A 
ATOM      8  N   UNL     1      -3.693  12.731  20.324  0.00  0.00    +0.000 N 
ATOM      9  N   UNL     1      -4.742  12.542  19.463  0.00  0.00    +0.000 NA
ATOM     10  C   UNL     1      -4.239  11.785  18.477  0.00  0.00    +0.000 A 
ATOM     11  C   UNL     1      -5.129  11.409  17.349  0.00  0.00    +0.000 C 
ATOM     12  C   UNL     1      -2.872  11.442  18.690  0.00  0.00    +0.000 A 
ATOM     13  C   UNL     1      -1.856  10.685  18.048  0.00  0.00    +0.000 A 
ATOM     14  C   UNL     1      -2.072   9.961  16.747  0.00  0.00    +0.000 C 
ATOM     15  C   UNL     1      -0.588  10.621  18.703  0.00  0.00    +0.000 A 
ATOM     16  C   UNL     1       0.561   9.829  18.128  0.00  0.00    +0.000 C 
ATOM     17  C   UNL     1      -0.408  11.304  19.916  0.00  0.00    +0.000 A 
ATOM     18  C   UNL     1       0.876  11.293  20.698  0.00  0.00    +0.000 C 
ATOM     19  N   UNL     1      -1.365  12.028  20.512  0.00  0.00    +0.000 NA
ATOM     20  C   UNL     1      -2.552  12.070  19.885  0.00  0.00    +0.000 A 
ATOM     21  N   UNL     1      -2.685  13.704  22.258  0.00  0.00    +0.000 NA
ENDROOT
TORSDOF 0
ENDMDL
MODEL 5
REMARK VINA RESULT:      -6.2      6.077     10.480
REMARK  Name = 
REMARK  6 active torsions:
REMARK  status: ('A' for Active; 'I' for Inactive)
REMARK    1  A    between atoms: C_1  and  C_2
REMARK    2  A    between atoms: C_4  and  C_5
REMARK    3  A    between atoms: C_10  and  C_11
REMARK    4  A    between atoms: C_13  and  C_14
REMARK    5  A    between atoms: C_15  and  C_16
REMARK    6  A    between atoms: C_17  and  C_18
REMARK                            x       y       z     vdW  Elec       q    Type
REMARK                         _______ _______ _______ _____ _____    ______ ____
ROOT
ATOM      1  C   UNL     1      -0.178  10.198  18.628  0.00  0.00    +0.000 C 
ATOM      2  C   UNL     1      -1.520  10.572  18.084  0.00  0.00    +0.000 A 
ATOM      3  C   UNL     1      -1.890  10.302  16.788  0.00  0.00    +0.000 A 
ATOM      4  C   UNL     1      -3.159  10.702  16.407  0.00  0.00    +0.000 A 
ATOM      5  C   UNL     1      -3.639  10.485  15.004  0.00  0.00    +0.000 C 
ATOM      6  N   UNL     1      -4.012  11.323  17.250  0.00  0.00    +0.000 NA
ATOM      7  C   UNL     1      -3.567  11.572  18.503  0.00  0.00    +0.000 A 
ATOM      8  N   UNL     1      -4.414  12.290  19.416  0.00  0.00    +0.000 N 
ATOM      9  N   UNL     1      -5.705  12.637  19.114  0.00  0.00    +0.000 NA
ATOM     10  C   UNL     1      -6.147  13.278  20.205  0.00  0.00    +0.000 A 
ATOM     11  C   UNL     1      -7.546  13.778  20.214  0.00  0.00    +0.000 C 
ATOM     12  C   UNL     1      -5.152  13.389  21.219  0.00  0.00    +0.000 A 
ATOM     13  C   UNL     1      -5.018  13.949  22.517  0.00  0.00    +0.000 A 
ATOM     14  C   UNL     1      -6.136  14.674  23.217  0.00  0.00    +0.000 C 
ATOM     15  C   UNL     1      -3.746  13.811  23.152  0.00  0.00    +0.000 A 
ATOM     16  C   UNL     1      -3.477  14.384  24.522  0.00  0.00    +0.000 C 
ATOM     17  C   UNL     1      -2.716  13.131  22.483  0.00  0.00    +0.000 A 
ATOM     18  C   UNL     1      -1.336  12.939  23.047  0.00  0.00    +0.000 C 
ATOM     19  N   UNL     1      -2.850  12.591  21.263  0.00  0.00    +0.000 NA
ATOM     20  C   UNL     1      -4.052  12.739  20.680  0.00  0.00    +0.000 A 
ATOM     21  N   UNL     1      -2.344  11.199  18.938  0.00  0.00    +0.000 NA
ENDROOT
TORSDOF 0
ENDMDL
MODEL 6
REMARK VINA RESULT:      -6.1      1.651      6.522
REMARK  Name = 
REMARK  6 active torsions:
REMARK  status: ('A' for Active; 'I' for Inactive)
REMARK    1  A    between atoms: C_1  and  C_2
REMARK    2  A    between atoms: C_4  and  C_5
REMARK    3  A    between atoms: C_10  and  C_11
REMARK    4  A    between atoms: C_13  and  C_14
REMARK    5  A    between atoms: C_15  and  C_16
REMARK    6  A    between atoms: C_17  and  C_18
REMARK                            x       y       z     vdW  Elec       q    Type
REMARK                         _______ _______ _______ _____ _____    ______ ____
ROOT
ATOM      1  C   UNL     1       3.858   7.026  17.517  0.00  0.00    +0.000 C 
ATOM      2  C   UNL     1       2.953   6.768  18.679  0.00  0.00    +0.000 A 
ATOM      3  C   UNL     1       2.694   5.499  19.143  0.00  0.00    +0.000 A 
ATOM      4  C   UNL     1       1.836   5.396  20.223  0.00  0.00    +0.000 A 
ATOM      5  C   UNL     1       1.464   4.053  20.776  0.00  0.00    +0.000 C 
ATOM      6  N   UNL     1       1.272   6.472  20.814  0.00  0.00    +0.000 NA
ATOM      7  C   UNL     1       1.559   7.684  20.287  0.00  0.00    +0.000 A 
ATOM      8  N   UNL     1       0.931   8.853  20.840  0.00  0.00    +0.000 N 
ATOM      9  N   UNL     1       0.138   8.811  21.956  0.00  0.00    +0.000 NA
ATOM     10  C   UNL     1      -0.246  10.082  22.147  0.00  0.00    +0.000 A 
ATOM     11  C   UNL     1      -1.115  10.392  23.311  0.00  0.00    +0.000 C 
ATOM     12  C   UNL     1       0.260  10.964  21.148  0.00  0.00    +0.000 A 
ATOM     13  C   UNL     1       0.185  12.343  20.815  0.00  0.00    +0.000 A 
ATOM     14  C   UNL     1      -0.595  13.341  21.626  0.00  0.00    +0.000 C 
ATOM     15  C   UNL     1       0.885  12.762  19.642  0.00  0.00    +0.000 A 
ATOM     16  C   UNL     1       0.861  14.196  19.175  0.00  0.00    +0.000 C 
ATOM     17  C   UNL     1       1.607  11.814  18.899  0.00  0.00    +0.000 A 
ATOM     18  C   UNL     1       2.365  12.139  17.643  0.00  0.00    +0.000 C 
ATOM     19  N   UNL     1       1.686  10.516  19.224  0.00  0.00    +0.000 NA
ATOM     20  C   UNL     1       1.015  10.141  20.326  0.00  0.00    +0.000 A 
ATOM     21  N   UNL     1       2.396   7.852  19.240  0.00  0.00    +0.000 NA
ENDROOT
TORSDOF 0
ENDMDL
MODEL 7
REMARK VINA RESULT:      -5.9      9.643     12.193
REMARK  Name = 
REMARK  6 active torsions:
REMARK  status: ('A' for Active; 'I' for Inactive)
REMARK    1  A    between atoms: C_1  and  C_2
REMARK    2  A    between atoms: C_4  and  C_5
REMARK    3  A    between atoms: C_10  and  C_11
REMARK    4  A    between atoms: C_13  and  C_14
REMARK    5  A    between atoms: C_15  and  C_16
REMARK    6  A    between atoms: C_17  and  C_18
REMARK                            x       y       z     vdW  Elec       q    Type
REMARK                         _______ _______ _______ _____ _____    ______ ____
ROOT
ATOM      1  C   UNL     1       9.135  10.120  19.046  0.00  0.00    +0.000 C 
ATOM      2  C   UNL     1       9.875  11.410  18.892  0.00  0.00    +0.000 A 
ATOM      3  C   UNL     1      10.676  11.674  17.806  0.00  0.00    +0.000 A 
ATOM      4  C   UNL     1      11.308  12.905  17.784  0.00  0.00    +0.000 A 
ATOM      5  C   UNL     1      12.231  13.269  16.660  0.00  0.00    +0.000 C 
ATOM      6  N   UNL     1      11.159  13.820  18.767  0.00  0.00    +0.000 NA
ATOM      7  C   UNL     1      10.372  13.478  19.811  0.00  0.00    +0.000 A 
ATOM      8  N   UNL     1      10.235  14.392  20.913  0.00  0.00    +0.000 N 
ATOM      9  N   UNL     1      10.775  15.651  20.903  0.00  0.00    +0.000 NA
ATOM     10  C   UNL     1      10.429  16.177  22.087  0.00  0.00    +0.000 A 
ATOM     11  C   UNL     1      10.849  17.568  22.393  0.00  0.00    +0.000 C 
ATOM     12  C   UNL     1       9.689  15.267  22.897  0.00  0.00    +0.000 A 
ATOM     13  C   UNL     1       9.098  15.236  24.188  0.00  0.00    +0.000 A 
ATOM     14  C   UNL     1       9.141  16.403  25.138  0.00  0.00    +0.000 C 
ATOM     15  C   UNL     1       8.453  14.022  24.574  0.00  0.00    +0.000 A 
ATOM     16  C   UNL     1       7.809  13.862  25.929  0.00  0.00    +0.000 C 
ATOM     17  C   UNL     1       8.423  12.945  23.673  0.00  0.00    +0.000 A 
ATOM     18  C   UNL     1       7.788  11.618  23.978  0.00  0.00    +0.000 C 
ATOM     19  N   UNL     1       8.971  12.982  22.450  0.00  0.00    +0.000 NA
ATOM     20  C   UNL     1       9.579  14.131  22.109  0.00  0.00    +0.000 A 
ATOM     21  N   UNL     1       9.720  12.297  19.887  0.00  0.00    +0.000 NA
ENDROOT
TORSDOF 0
ENDMDL
MODEL 8
REMARK VINA RESULT:      -5.8      7.879     10.556
REMARK  Name = 
REMARK  6 active torsions:
REMARK  status: ('A' for Active; 'I' for Inactive)
REMARK    1  A    between atoms: C_1  and  C_2
REMARK    2  A    between atoms: C_4  and  C_5
REMARK    3  A    between atoms: C_10  and  C_11
REMARK    4  A    between atoms: C_13  and  C_14
REMARK    5  A    between atoms: C_15  and  C_16
REMARK    6  A    between atoms: C_17  and  C_18
REMARK                            x       y       z     vdW  Elec       q    Type
REMARK                         _______ _______ _______ _____ _____    ______ ____
ROOT
ATOM      1  C   UNL     1       2.905  12.953  18.209  0.00  0.00    +0.000 C 
ATOM      2  C   UNL     1       3.239  14.401  18.379  0.00  0.00    +0.000 A 
ATOM      3  C   UNL     1       2.271  15.372  18.478  0.00  0.00    +0.000 A 
ATOM      4  C   UNL     1       2.711  16.675  18.629  0.00  0.00    +0.000 A 
ATOM      5  C   UNL     1       1.732  17.808  18.708  0.00  0.00    +0.000 C 
ATOM      6  N   UNL     1       4.021  17.002  18.685  0.00  0.00    +0.000 NA
ATOM      7  C   UNL     1       4.912  15.992  18.559  0.00  0.00    +0.000 A 
ATOM      8  N   UNL     1       6.317  16.298  18.545  0.00  0.00    +0.000 N 
ATOM      9  N   UNL     1       6.804  17.559  18.770  0.00  0.00    +0.000 NA
ATOM     10  C   UNL     1       8.135  17.429  18.678  0.00  0.00    +0.000 A 
ATOM     11  C   UNL     1       8.981  18.631  18.894  0.00  0.00    +0.000 C 
ATOM     12  C   UNL     1       8.537  16.098  18.362  0.00  0.00    +0.000 A 
ATOM     13  C   UNL     1       9.740  15.382  18.123  0.00  0.00    +0.000 A 
ATOM     14  C   UNL     1      11.101  16.023  18.177  0.00  0.00    +0.000 C 
ATOM     15  C   UNL     1       9.614  13.995  17.805  0.00  0.00    +0.000 A 
ATOM     16  C   UNL     1      10.818  13.137  17.509  0.00  0.00    +0.000 C 
ATOM     17  C   UNL     1       8.335  13.417  17.759  0.00  0.00    +0.000 A 
ATOM     18  C   UNL     1       8.083  11.974  17.421  0.00  0.00    +0.000 C 
ATOM     19  N   UNL     1       7.203  14.093  17.999  0.00  0.00    +0.000 NA
ATOM     20  C   UNL     1       7.343  15.397  18.288  0.00  0.00    +0.000 A 
ATOM     21  N   UNL     1       4.547  14.699  18.419  0.00  0.00    +0.000 NA
ENDROOT
TORSDOF 0
ENDMDL
MODEL 9
REMARK VINA RESULT:      -5.8      7.606      9.600
REMARK  Name = 
REMARK  6 active torsions:
REMARK  status: ('A' for Active; 'I' for Inactive)
REMARK    1  A    between atoms: C_1  and  C_2
REMARK    2  A    between atoms: C_4  and  C_5
REMARK    3  A    between atoms: C_10  and  C_11
REMARK    4  A    between atoms: C_13  and  C_14
REMARK    5  A    between atoms: C_15  and  C_16
REMARK    6  A    between atoms: C_17  and  C_18
REMARK                            x       y       z     vdW  Elec       q    Type
REMARK                         _______ _______ _______ _____ _____    ______ ____
ROOT
ATOM      1  C   UNL     1       0.130  14.540  22.439  0.00  0.00    +0.000 C 
ATOM      2  C   UNL     1       0.215  14.000  21.047  0.00  0.00    +0.000 A 
ATOM      3  C   UNL     1       1.354  14.106  20.284  0.00  0.00    +0.000 A 
ATOM      4  C   UNL     1       1.302  13.568  19.011  0.00  0.00    +0.000 A 
ATOM      5  C   UNL     1       2.482  13.668  18.091  0.00  0.00    +0.000 C 
ATOM      6  N   UNL     1       0.200  12.959  18.520  0.00  0.00    +0.000 NA
ATOM      7  C   UNL     1      -0.886  12.913  19.323  0.00  0.00    +0.000 A 
ATOM      8  N   UNL     1      -2.103  12.334  18.821  0.00  0.00    +0.000 N 
ATOM      9  N   UNL     1      -2.182  11.719  17.599  0.00  0.00    +0.000 NA
ATOM     10  C   UNL     1      -3.458  11.317  17.505  0.00  0.00    +0.000 A 
ATOM     11  C   UNL     1      -3.881  10.583  16.285  0.00  0.00    +0.000 C 
ATOM     12  C   UNL     1      -4.236  11.688  18.640  0.00  0.00    +0.000 A 
ATOM     13  C   UNL     1      -5.579  11.573  19.089  0.00  0.00    +0.000 A 
ATOM     14  C   UNL     1      -6.655  10.889  18.289  0.00  0.00    +0.000 C 
ATOM     15  C   UNL     1      -5.889  12.157  20.355  0.00  0.00    +0.000 A 
ATOM     16  C   UNL     1      -7.285  12.119  20.925  0.00  0.00    +0.000 C 
ATOM     17  C   UNL     1      -4.871  12.791  21.085  0.00  0.00    +0.000 A 
ATOM     18  C   UNL     1      -5.085  13.452  22.417  0.00  0.00    +0.000 C 
ATOM     19  N   UNL     1      -3.601  12.885  20.664  0.00  0.00    +0.000 NA
ATOM     20  C   UNL     1      -3.332  12.336  19.468  0.00  0.00    +0.000 A 
ATOM     21  N   UNL     1      -0.896  13.411  20.579  0.00  0.00    +0.000 NA
ENDROOT
TORSDOF 0
ENDMDL
