MODEL 1
REMARK VINA RESULT:      -7.3      0.000      0.000
REMARK  Name = 
REMARK  2 active torsions:
REMARK  status: ('A' for Active; 'I' for Inactive)
REMARK    1  A    between atoms: N_5  and  C_6
REMARK    2  A    between atoms: C_6  and  C_7
REMARK                            x       y       z     vdW  Elec       q    Type
REMARK                         _______ _______ _______ _____ _____    ______ ____
ROOT
ATOM      1  O   UNL     1       8.353   4.425  18.471  0.00  0.00    +0.000 OA
ATOM      2  C   UNL     1       7.376   5.139  18.293  0.00  0.00    +0.000 C 
ATOM      3  C   UNL     1       6.425   5.514  19.404  0.00  0.00    +0.000 C 
ATOM      4  C   UNL     1       5.320   4.452  19.450  0.00  0.00    +0.000 C 
ATOM      5  N   UNL     1       4.068   4.901  18.783  0.00  0.00    +0.000 NA
ATOM      6  C   UNL     1       3.378   3.764  18.132  0.00  0.00    +0.000 C 
ATOM      7  C   UNL     1       4.115   3.225  16.887  0.00  0.00    +0.000 C 
ATOM      8  C   UNL     1       4.211   4.259  15.758  0.00  0.00    +0.000 C 
ATOM      9  C   UNL     1       5.355   3.972  14.774  0.00  0.00    +0.000 C 
ATOM     10  C   UNL     1       6.416   5.084  14.706  0.00  0.00    +0.000 C 
ATOM     11  C   UNL     1       7.460   5.015  15.827  0.00  0.00    +0.000 C 
ATOM     12  N   UNL     1       6.939   5.556  17.056  0.00  0.00    +0.000 N 
ATOM     13  H   UNL     1       6.257   6.307  17.019  0.00  0.00    +0.000 HD
ENDROOT
BRANCH   5  14
ATOM     14  C   UNL     1       3.206   5.549  19.800  0.00  0.00    +0.000 C 
BRANCH  14  15
ATOM     15  C   UNL     1       2.575   6.865  19.391  0.00  0.00    +0.000 A 
ATOM     16  C   UNL     1       2.768   7.384  18.092  0.00  0.00    +0.000 A 
ATOM     17  C   UNL     1       2.241   8.628  17.729  0.00  0.00    +0.000 A 
ATOM     18  C   UNL     1       1.493   9.310  18.664  0.00  0.00    +0.000 A 
ATOM     19  C   UNL     1       1.262   8.805  19.932  0.00  0.00    +0.000 A 
ATOM     20  C   UNL     1       1.813   7.597  20.323  0.00  0.00    +0.000 A 
ATOM     21  C   UNL     1       0.435   9.765  20.697  0.00  0.00    +0.000 C 
ATOM     22  C   UNL     1      -0.028  10.653  19.541  0.00  0.00    +0.000 C 
ATOM     23  O   UNL     1       0.913  10.535  18.447  0.00  0.00    +0.000 OA
ENDBRANCH  14  15
ENDBRANCH   5  14
TORSDOF 2
ENDMDL
MODEL 2
REMARK VINA RESULT:      -6.8      2.266      4.109
REMARK  Name = 
REMARK  2 active torsions:
REMARK  status: ('A' for Active; 'I' for Inactive)
REMARK    1  A    between atoms: N_5  and  C_6
REMARK    2  A    between atoms: C_6  and  C_7
REMARK                            x       y       z     vdW  Elec       q    Type
REMARK                         _______ _______ _______ _____ _____    ______ ____
ROOT
ATOM      1  O   UNL     1       5.226   3.500  17.789  0.00  0.00    +0.000 OA
ATOM      2  C   UNL     1       4.221   4.125  17.481  0.00  0.00    +0.000 C 
ATOM      3  C   UNL     1       4.249   5.591  17.122  0.00  0.00    +0.000 C 
ATOM      4  C   UNL     1       4.040   6.391  18.412  0.00  0.00    +0.000 C 
ATOM      5  N   UNL     1       2.641   6.877  18.562  0.00  0.00    +0.000 NA
ATOM      6  C   UNL     1       2.238   6.897  19.987  0.00  0.00    +0.000 C 
ATOM      7  C   UNL     1       2.054   5.492  20.597  0.00  0.00    +0.000 C 
ATOM      8  C   UNL     1       0.922   4.697  19.932  0.00  0.00    +0.000 C 
ATOM      9  C   UNL     1       1.062   3.179  20.118  0.00  0.00    +0.000 C 
ATOM     10  C   UNL     1       1.210   2.397  18.802  0.00  0.00    +0.000 C 
ATOM     11  C   UNL     1       2.638   2.388  18.243  0.00  0.00    +0.000 C 
ATOM     12  N   UNL     1       2.941   3.624  17.570  0.00  0.00    +0.000 N 
ATOM     13  H   UNL     1       2.197   4.130  17.101  0.00  0.00    +0.000 HD
ENDROOT
BRANCH   5  14
ATOM     14  C   UNL     1       2.549   8.225  17.952  0.00  0.00    +0.000 C 
BRANCH  14  15
ATOM     15  C   UNL     1       1.395   9.088  18.426  0.00  0.00    +0.000 A 
ATOM     16  C   UNL     1       1.415   9.673  19.711  0.00  0.00    +0.000 A 
ATOM     17  C   UNL     1       0.327  10.418  20.178  0.00  0.00    +0.000 A 
ATOM     18  C   UNL     1      -0.745  10.598  19.330  0.00  0.00    +0.000 A 
ATOM     19  C   UNL     1      -0.770  10.061  18.054  0.00  0.00    +0.000 A 
ATOM     20  C   UNL     1       0.278   9.285  17.592  0.00  0.00    +0.000 A 
ATOM     21  C   UNL     1      -2.047  10.423  17.399  0.00  0.00    +0.000 C 
ATOM     22  C   UNL     1      -2.511  11.512  18.367  0.00  0.00    +0.000 C 
ATOM     23  O   UNL     1      -1.875  11.306  19.651  0.00  0.00    +0.000 OA
ENDBRANCH  14  15
ENDBRANCH   5  14
TORSDOF 2
ENDMDL
MODEL 3
REMARK VINA RESULT:      -6.7      2.353      4.014
REMARK  Name = 
REMARK  2 active torsions:
REMARK  status: ('A' for Active; 'I' for Inactive)
REMARK    1  A    between atoms: N_5  and  C_6
REMARK    2  A    between atoms: C_6  and  C_7
REMARK                            x       y       z     vdW  Elec       q    Type
REMARK                         _______ _______ _______ _____ _____    ______ ____
ROOT
ATOM      1  O   UNL     1       4.964   3.411  17.605  0.00  0.00    +0.000 OA
ATOM      2  C   UNL     1       3.980   4.098  17.373  0.00  0.00    +0.000 C 
ATOM      3  C   UNL     1       4.065   5.574  17.072  0.00  0.00    +0.000 C 
ATOM      4  C   UNL     1       3.960   6.329  18.402  0.00  0.00    +0.000 C 
ATOM      5  N   UNL     1       2.596   6.876  18.641  0.00  0.00    +0.000 NA
ATOM      6  C   UNL     1       2.264   6.855  20.084  0.00  0.00    +0.000 C 
ATOM      7  C   UNL     1       2.038   5.436  20.646  0.00  0.00    +0.000 C 
ATOM      8  C   UNL     1       0.836   4.727  20.008  0.00  0.00    +0.000 C 
ATOM      9  C   UNL     1       0.907   3.197  20.126  0.00  0.00    +0.000 C 
ATOM     10  C   UNL     1       0.951   2.466  18.773  0.00  0.00    +0.000 C 
ATOM     11  C   UNL     1       2.347   2.410  18.143  0.00  0.00    +0.000 C 
ATOM     12  N   UNL     1       2.681   3.658  17.506  0.00  0.00    +0.000 N 
ATOM     13  H   UNL     1       1.943   4.219  17.095  0.00  0.00    +0.000 HD
ENDROOT
BRANCH   5  14
ATOM     14  C   UNL     1       2.544   8.251  18.091  0.00  0.00    +0.000 C 
BRANCH  14  15
ATOM     15  C   UNL     1       1.371   9.100  18.542  0.00  0.00    +0.000 A 
ATOM     16  C   UNL     1       0.268   9.314  17.687  0.00  0.00    +0.000 A 
ATOM     17  C   UNL     1      -0.788  10.148  18.072  0.00  0.00    +0.000 A 
ATOM     18  C   UNL     1      -0.737  10.718  19.325  0.00  0.00    +0.000 A 
ATOM     19  C   UNL     1       0.319  10.494  20.192  0.00  0.00    +0.000 A 
ATOM     20  C   UNL     1       1.393   9.709  19.812  0.00  0.00    +0.000 A 
ATOM     21  C   UNL     1       0.086  11.243  21.448  0.00  0.00    +0.000 C 
ATOM     22  C   UNL     1      -1.392  11.585  21.250  0.00  0.00    +0.000 C 
ATOM     23  O   UNL     1      -1.700  11.551  19.836  0.00  0.00    +0.000 OA
ENDBRANCH  14  15
ENDBRANCH   5  14
TORSDOF 2
ENDMDL
MODEL 4
REMARK VINA RESULT:      -6.7      2.348      3.843
REMARK  Name = 
REMARK  2 active torsions:
REMARK  status: ('A' for Active; 'I' for Inactive)
REMARK    1  A    between atoms: N_5  and  C_6
REMARK    2  A    between atoms: C_6  and  C_7
REMARK                            x       y       z     vdW  Elec       q    Type
REMARK                         _______ _______ _______ _____ _____    ______ ____
ROOT
ATOM      1  O   UNL     1       5.782   3.595  18.939  0.00  0.00    +0.000 OA
ATOM      2  C   UNL     1       4.794   4.091  18.417  0.00  0.00    +0.000 C 
ATOM      3  C   UNL     1       4.646   5.577  18.197  0.00  0.00    +0.000 C 
ATOM      4  C   UNL     1       3.969   6.167  19.440  0.00  0.00    +0.000 C 
ATOM      5  N   UNL     1       2.514   6.408  19.237  0.00  0.00    +0.000 NA
ATOM      6  C   UNL     1       1.761   6.187  20.493  0.00  0.00    +0.000 C 
ATOM      7  C   UNL     1       1.686   4.704  20.916  0.00  0.00    +0.000 C 
ATOM      8  C   UNL     1       0.929   3.835  19.904  0.00  0.00    +0.000 C 
ATOM      9  C   UNL     1       1.291   2.345  20.001  0.00  0.00    +0.000 C 
ATOM     10  C   UNL     1       1.912   1.767  18.717  0.00  0.00    +0.000 C 
ATOM     11  C   UNL     1       3.412   2.048  18.574  0.00  0.00    +0.000 C 
ATOM     12  N   UNL     1       3.648   3.391  18.111  0.00  0.00    +0.000 N 
ATOM     13  H   UNL     1       2.971   3.831  17.497  0.00  0.00    +0.000 HD
ENDROOT
BRANCH   5  14
ATOM     14  C   UNL     1       2.338   7.791  18.735  0.00  0.00    +0.000 C 
BRANCH  14  15
ATOM     15  C   UNL     1       1.409   8.676  19.544  0.00  0.00    +0.000 A 
ATOM     16  C   UNL     1       0.599   9.641  18.908  0.00  0.00    +0.000 A 
ATOM     17  C   UNL     1      -0.212  10.503  19.655  0.00  0.00    +0.000 A 
ATOM     18  C   UNL     1      -0.227  10.352  21.024  0.00  0.00    +0.000 A 
ATOM     19  C   UNL     1       0.534   9.390  21.666  0.00  0.00    +0.000 A 
ATOM     20  C   UNL     1       1.376   8.558  20.948  0.00  0.00    +0.000 A 
ATOM     21  C   UNL     1       0.307   9.482  23.126  0.00  0.00    +0.000 C 
ATOM     22  C   UNL     1      -0.938  10.370  23.116  0.00  0.00    +0.000 C 
ATOM     23  O   UNL     1      -0.974  11.121  21.879  0.00  0.00    +0.000 OA
ENDBRANCH  14  15
ENDBRANCH   5  14
TORSDOF 2
ENDMDL
MODEL 5
REMARK VINA RESULT:      -6.6      3.251      6.716
REMARK  Name = 
REMARK  2 active torsions:
REMARK  status: ('A' for Active; 'I' for Inactive)
REMARK    1  A    between atoms: N_5  and  C_6
REMARK    2  A    between atoms: C_6  and  C_7
REMARK                            x       y       z     vdW  Elec       q    Type
REMARK                         _______ _______ _______ _____ _____    ______ ____
ROOT
ATOM      1  O   UNL     1       5.148   2.641  20.473  0.00  0.00    +0.000 OA
ATOM      2  C   UNL     1       4.956   2.878  19.289  0.00  0.00    +0.000 C 
ATOM      3  C   UNL     1       5.812   3.838  18.499  0.00  0.00    +0.000 C 
ATOM      4  C   UNL     1       5.181   5.230  18.615  0.00  0.00    +0.000 C 
ATOM      5  N   UNL     1       4.383   5.597  17.413  0.00  0.00    +0.000 NA
ATOM      6  C   UNL     1       3.217   6.431  17.787  0.00  0.00    +0.000 C 
ATOM      7  C   UNL     1       2.125   5.657  18.554  0.00  0.00    +0.000 C 
ATOM      8  C   UNL     1       1.491   4.537  17.720  0.00  0.00    +0.000 C 
ATOM      9  C   UNL     1       0.833   3.445  18.577  0.00  0.00    +0.000 C 
ATOM     10  C   UNL     1       1.448   2.047  18.393  0.00  0.00    +0.000 C 
ATOM     11  C   UNL     1       2.724   1.819  19.211  0.00  0.00    +0.000 C 
ATOM     12  N   UNL     1       3.865   2.430  18.578  0.00  0.00    +0.000 N 
ATOM     13  H   UNL     1       3.895   2.496  17.566  0.00  0.00    +0.000 HD
ENDROOT
BRANCH   5  14
ATOM     14  C   UNL     1       5.273   6.304  16.462  0.00  0.00    +0.000 C 
BRANCH  14  15
ATOM     15  C   UNL     1       5.776   5.482  15.291  0.00  0.00    +0.000 A 
ATOM     16  C   UNL     1       7.157   5.415  15.000  0.00  0.00    +0.000 A 
ATOM     17  C   UNL     1       7.621   4.710  13.884  0.00  0.00    +0.000 A 
ATOM     18  C   UNL     1       6.695   4.052  13.104  0.00  0.00    +0.000 A 
ATOM     19  C   UNL     1       5.341   4.077  13.391  0.00  0.00    +0.000 A 
ATOM     20  C   UNL     1       4.859   4.805  14.464  0.00  0.00    +0.000 A 
ATOM     21  C   UNL     1       4.612   3.285  12.374  0.00  0.00    +0.000 C 
ATOM     22  C   UNL     1       5.801   2.557  11.744  0.00  0.00    +0.000 C 
ATOM     23  O   UNL     1       7.006   3.322  11.985  0.00  0.00    +0.000 OA
ENDBRANCH  14  15
ENDBRANCH   5  14
TORSDOF 2
ENDMDL
MODEL 6
REMARK VINA RESULT:      -6.5      0.883      1.541
REMARK  Name = 
REMARK  2 active torsions:
REMARK  status: ('A' for Active; 'I' for Inactive)
REMARK    1  A    between atoms: N_5  and  C_6
REMARK    2  A    between atoms: C_6  and  C_7
REMARK                            x       y       z     vdW  Elec       q    Type
REMARK                         _______ _______ _______ _____ _____    ______ ____
ROOT
ATOM      1  O   UNL     1       8.037   4.734  18.723  0.00  0.00    +0.000 OA
ATOM      2  C   UNL     1       6.952   5.258  18.520  0.00  0.00    +0.000 C 
ATOM      3  C   UNL     1       5.860   5.304  19.561  0.00  0.00    +0.000 C 
ATOM      4  C   UNL     1       4.997   4.049  19.388  0.00  0.00    +0.000 C 
ATOM      5  N   UNL     1       3.736   4.321  18.646  0.00  0.00    +0.000 NA
ATOM      6  C   UNL     1       3.348   3.157  17.817  0.00  0.00    +0.000 C 
ATOM      7  C   UNL     1       4.274   2.926  16.605  0.00  0.00    +0.000 C 
ATOM      8  C   UNL     1       4.244   4.086  15.602  0.00  0.00    +0.000 C 
ATOM      9  C   UNL     1       5.497   4.149  14.715  0.00  0.00    +0.000 C 
ATOM     10  C   UNL     1       6.308   5.447  14.867  0.00  0.00    +0.000 C 
ATOM     11  C   UNL     1       7.252   5.450  16.075  0.00  0.00    +0.000 C 
ATOM     12  N   UNL     1       6.536   5.727  17.293  0.00  0.00    +0.000 N 
ATOM     13  H   UNL     1       5.720   6.328  17.264  0.00  0.00    +0.000 HD
ENDROOT
BRANCH   5  14
ATOM     14  C   UNL     1       2.682   4.661  19.632  0.00  0.00    +0.000 C 
BRANCH  14  15
ATOM     15  C   UNL     1       2.273   6.120  19.687  0.00  0.00    +0.000 A 
ATOM     16  C   UNL     1       1.733   6.672  20.870  0.00  0.00    +0.000 A 
ATOM     17  C   UNL     1       1.296   8.000  20.908  0.00  0.00    +0.000 A 
ATOM     18  C   UNL     1       1.447   8.764  19.771  0.00  0.00    +0.000 A 
ATOM     19  C   UNL     1       2.004   8.253  18.611  0.00  0.00    +0.000 A 
ATOM     20  C   UNL     1       2.402   6.929  18.541  0.00  0.00    +0.000 A 
ATOM     21  C   UNL     1       2.025   9.308  17.574  0.00  0.00    +0.000 C 
ATOM     22  C   UNL     1       1.741  10.520  18.463  0.00  0.00    +0.000 C 
ATOM     23  O   UNL     1       1.067  10.077  19.665  0.00  0.00    +0.000 OA
ENDBRANCH  14  15
ENDBRANCH   5  14
TORSDOF 2
ENDMDL
MODEL 7
REMARK VINA RESULT:      -6.4      2.637      5.895
REMARK  Name = 
REMARK  2 active torsions:
REMARK  status: ('A' for Active; 'I' for Inactive)
REMARK    1  A    between atoms: N_5  and  C_6
REMARK    2  A    between atoms: C_6  and  C_7
REMARK                            x       y       z     vdW  Elec       q    Type
REMARK                         _______ _______ _______ _____ _____    ______ ____
ROOT
ATOM      1  O   UNL     1       1.630   6.786  19.970  0.00  0.00    +0.000 OA
ATOM      2  C   UNL     1       2.661   6.139  19.861  0.00  0.00    +0.000 C 
ATOM      3  C   UNL     1       3.719   6.455  18.831  0.00  0.00    +0.000 C 
ATOM      4  C   UNL     1       3.388   5.660  17.563  0.00  0.00    +0.000 C 
ATOM      5  N   UNL     1       4.213   4.428  17.431  0.00  0.00    +0.000 NA
ATOM      6  C   UNL     1       3.441   3.342  16.783  0.00  0.00    +0.000 C 
ATOM      7  C   UNL     1       2.319   2.767  17.673  0.00  0.00    +0.000 C 
ATOM      8  C   UNL     1       2.853   2.096  18.945  0.00  0.00    +0.000 C 
ATOM      9  C   UNL     1       1.805   2.009  20.065  0.00  0.00    +0.000 C 
ATOM     10  C   UNL     1       2.194   2.767  21.347  0.00  0.00    +0.000 C 
ATOM     11  C   UNL     1       1.902   4.271  21.290  0.00  0.00    +0.000 C 
ATOM     12  N   UNL     1       2.916   4.969  20.542  0.00  0.00    +0.000 N 
ATOM     13  H   UNL     1       3.868   4.619  20.548  0.00  0.00    +0.000 HD
ENDROOT
BRANCH   5  14
ATOM     14  C   UNL     1       5.430   4.765  16.656  0.00  0.00    +0.000 C 
BRANCH  14  15
ATOM     15  C   UNL     1       6.412   5.698  17.338  0.00  0.00    +0.000 A 
ATOM     16  C   UNL     1       7.264   5.224  18.360  0.00  0.00    +0.000 A 
ATOM     17  C   UNL     1       8.127   6.093  19.037  0.00  0.00    +0.000 A 
ATOM     18  C   UNL     1       8.150   7.414  18.646  0.00  0.00    +0.000 A 
ATOM     19  C   UNL     1       7.348   7.893  17.624  0.00  0.00    +0.000 A 
ATOM     20  C   UNL     1       6.457   7.058  16.974  0.00  0.00    +0.000 A 
ATOM     21  C   UNL     1       7.597   9.341  17.446  0.00  0.00    +0.000 C 
ATOM     22  C   UNL     1       8.886   9.462  18.261  0.00  0.00    +0.000 C 
ATOM     23  O   UNL     1       8.946   8.375  19.216  0.00  0.00    +0.000 OA
ENDBRANCH  14  15
ENDBRANCH   5  14
TORSDOF 2
ENDMDL
MODEL 8
REMARK VINA RESULT:      -6.3      3.249      6.412
REMARK  Name = 
REMARK  2 active torsions:
REMARK  status: ('A' for Active; 'I' for Inactive)
REMARK    1  A    between atoms: N_5  and  C_6
REMARK    2  A    between atoms: C_6  and  C_7
REMARK                            x       y       z     vdW  Elec       q    Type
REMARK                         _______ _______ _______ _____ _____    ______ ____
ROOT
ATOM      1  O   UNL     1       5.017   1.929  20.410  0.00  0.00    +0.000 OA
ATOM      2  C   UNL     1       4.658   2.512  19.397  0.00  0.00    +0.000 C 
ATOM      3  C   UNL     1       5.484   3.591  18.739  0.00  0.00    +0.000 C 
ATOM      4  C   UNL     1       5.070   4.934  19.351  0.00  0.00    +0.000 C 
ATOM      5  N   UNL     1       4.133   5.693  18.479  0.00  0.00    +0.000 NA
ATOM      6  C   UNL     1       3.168   6.471  19.290  0.00  0.00    +0.000 C 
ATOM      7  C   UNL     1       2.131   5.594  20.023  0.00  0.00    +0.000 C 
ATOM      8  C   UNL     1       1.223   4.816  19.063  0.00  0.00    +0.000 C 
ATOM      9  C   UNL     1       0.584   3.577  19.709  0.00  0.00    +0.000 C 
ATOM     10  C   UNL     1       0.971   2.249  19.034  0.00  0.00    +0.000 C 
ATOM     11  C   UNL     1       2.327   1.696  19.487  0.00  0.00    +0.000 C 
ATOM     12  N   UNL     1       3.412   2.375  18.826  0.00  0.00    +0.000 N 
ATOM     13  H   UNL     1       3.277   2.729  17.885  0.00  0.00    +0.000 HD
ENDROOT
BRANCH   5  14
ATOM     14  C   UNL     1       4.932   6.575  17.594  0.00  0.00    +0.000 C 
BRANCH  14  15
ATOM     15  C   UNL     1       5.616   5.894  16.424  0.00  0.00    +0.000 A 
ATOM     16  C   UNL     1       7.022   5.928  16.294  0.00  0.00    +0.000 A 
ATOM     17  C   UNL     1       7.654   5.357  15.184  0.00  0.00    +0.000 A 
ATOM     18  C   UNL     1       6.867   4.725  14.246  0.00  0.00    +0.000 A 
ATOM     19  C   UNL     1       5.490   4.650  14.372  0.00  0.00    +0.000 A 
ATOM     20  C   UNL     1       4.844   5.248  15.439  0.00  0.00    +0.000 A 
ATOM     21  C   UNL     1       4.934   3.919  13.212  0.00  0.00    +0.000 C 
ATOM     22  C   UNL     1       6.230   3.317  12.666  0.00  0.00    +0.000 C 
ATOM     23  O   UNL     1       7.349   4.120  13.113  0.00  0.00    +0.000 OA
ENDBRANCH  14  15
ENDBRANCH   5  14
TORSDOF 2
ENDMDL
MODEL 9
REMARK VINA RESULT:      -6.2      2.778      6.985
REMARK  Name = 
REMARK  2 active torsions:
REMARK  status: ('A' for Active; 'I' for Inactive)
REMARK    1  A    between atoms: N_5  and  C_6
REMARK    2  A    between atoms: C_6  and  C_7
REMARK                            x       y       z     vdW  Elec       q    Type
REMARK                         _______ _______ _______ _____ _____    ______ ____
ROOT
ATOM      1  O   UNL     1       2.109   7.210  19.521  0.00  0.00    +0.000 OA
ATOM      2  C   UNL     1       2.880   6.286  19.739  0.00  0.00    +0.000 C 
ATOM      3  C   UNL     1       4.275   6.234  19.166  0.00  0.00    +0.000 C 
ATOM      4  C   UNL     1       4.198   5.513  17.815  0.00  0.00    +0.000 C 
ATOM      5  N   UNL     1       4.624   4.090  17.902  0.00  0.00    +0.000 NA
ATOM      6  C   UNL     1       3.851   3.248  16.959  0.00  0.00    +0.000 C 
ATOM      7  C   UNL     1       2.373   3.065  17.363  0.00  0.00    +0.000 C 
ATOM      8  C   UNL     1       2.207   2.326  18.697  0.00  0.00    +0.000 C 
ATOM      9  C   UNL     1       0.855   2.599  19.373  0.00  0.00    +0.000 C 
ATOM     10  C   UNL     1       0.968   3.267  20.754  0.00  0.00    +0.000 C 
ATOM     11  C   UNL     1       1.162   4.787  20.693  0.00  0.00    +0.000 C 
ATOM     12  N   UNL     1       2.530   5.124  20.391  0.00  0.00    +0.000 N 
ATOM     13  H   UNL     1       3.274   4.513  20.708  0.00  0.00    +0.000 HD
ENDROOT
BRANCH   5  14
ATOM     14  C   UNL     1       6.078   4.022  17.624  0.00  0.00    +0.000 C 
BRANCH  14  15
ATOM     15  C   UNL     1       6.491   4.291  16.190  0.00  0.00    +0.000 A 
ATOM     16  C   UNL     1       7.425   5.307  15.889  0.00  0.00    +0.000 A 
ATOM     17  C   UNL     1       7.762   5.601  14.563  0.00  0.00    +0.000 A 
ATOM     18  C   UNL     1       7.188   4.843  13.566  0.00  0.00    +0.000 A 
ATOM     19  C   UNL     1       6.296   3.820  13.841  0.00  0.00    +0.000 A 
ATOM     20  C   UNL     1       5.917   3.544  15.143  0.00  0.00    +0.000 A 
ATOM     21  C   UNL     1       5.855   3.203  12.571  0.00  0.00    +0.000 C 
ATOM     22  C   UNL     1       6.910   3.801  11.638  0.00  0.00    +0.000 C 
ATOM     23  O   UNL     1       7.427   5.017  12.227  0.00  0.00    +0.000 OA
ENDBRANCH  14  15
ENDBRANCH   5  14
TORSDOF 2
ENDMDL
