MODEL 1
REMARK VINA RESULT:      -8.9      0.000      0.000
REMARK  Name = 
REMARK  6 active torsions:
REMARK  status: ('A' for Active; 'I' for Inactive)
REMARK    1  A    between atoms: C_1  and  O_2
REMARK    2  A    between atoms: O_2  and  C_3
REMARK    3  A    between atoms: C_6  and  S_7
REMARK    4  A    between atoms: S_7  and  N_10
REMARK    5  A    between atoms: C_16  and  C_17
REMARK    6  A    between atoms: C_20  and  C_21
REMARK                            x       y       z     vdW  Elec       q    Type
REMARK                         _______ _______ _______ _____ _____    ______ ____
ROOT
ATOM      1  N   UNL     1       5.381   5.452  17.972  0.00  0.00    +0.000 N 
ATOM      2  C   UNL     1       5.769   4.548  18.989  0.00  0.00    +0.000 A 
ATOM      3  C   UNL     1       4.614   3.798  18.975  0.00  0.00    +0.000 A 
ATOM      4  C   UNL     1       3.703   4.813  19.322  0.00  0.00    +0.000 A 
ATOM      5  C   UNL     1       2.657   4.797  20.271  0.00  0.00    +0.000 A 
ATOM      6  C   UNL     1       1.918   5.929  20.633  0.00  0.00    +0.000 A 
ATOM      7  C   UNL     1       2.095   7.139  19.963  0.00  0.00    +0.000 A 
ATOM      8  C   UNL     1       3.117   7.141  18.819  0.00  0.00    +0.000 A 
ATOM      9  C   UNL     1       4.084   5.981  18.582  0.00  0.00    +0.000 A 
ENDROOT
BRANCH   7  10
ATOM     10  C   UNL     1       1.275   8.365  20.576  0.00  0.00    +0.000 A 
ATOM     11  C   UNL     1       0.885   9.489  19.818  0.00  0.00    +0.000 A 
ATOM     12  C   UNL     1       0.228  10.628  20.385  0.00  0.00    +0.000 A 
ATOM     13  C   UNL     1      -0.111  10.705  21.753  0.00  0.00    +0.000 A 
ATOM     14  C   UNL     1       0.185   9.574  22.514  0.00  0.00    +0.000 A 
ATOM     15  F   UNL     1      -0.106   9.593  23.820  0.00  0.00    +0.000 F 
ATOM     16  C   UNL     1       0.837   8.433  21.943  0.00  0.00    +0.000 A 
BRANCH  13  17
ATOM     17  C   UNL     1      -0.729  11.854  22.308  0.00  0.00    +0.000 C 
ATOM     18  N   UNL     1      -1.277  12.810  22.766  0.00  0.00    +0.000 NA
ENDBRANCH  13  17
ENDBRANCH   7  10
BRANCH   1  19
ATOM     19  S   UNL     1       6.832   5.553  16.804  0.00  0.00    +0.000 S 
ATOM     20  O   UNL     1       7.851   4.706  17.376  0.00  0.00    +0.000 OA
ATOM     21  O   UNL     1       7.066   6.976  16.666  0.00  0.00    +0.000 OA
BRANCH  19  25
ATOM     22  C   UNL     1       5.877   3.659  12.485  0.00  0.00    +0.000 A 
ATOM     23  C   UNL     1       4.991   3.705  13.566  0.00  0.00    +0.000 A 
ATOM     24  C   UNL     1       5.280   4.348  14.799  0.00  0.00    +0.000 A 
ATOM     25  C   UNL     1       6.505   4.974  15.020  0.00  0.00    +0.000 A 
ATOM     26  C   UNL     1       7.443   4.911  13.930  0.00  0.00    +0.000 A 
ATOM     27  C   UNL     1       7.119   4.264  12.666  0.00  0.00    +0.000 A 
BRANCH  22  29
ATOM     28  C   UNL     1       4.031   2.943  11.083  0.00  0.00    +0.000 C 
ATOM     29  O   UNL     1       5.428   2.969  11.386  0.00  0.00    +0.000 OA
ENDBRANCH  22  29
ENDBRANCH  19  25
ENDBRANCH   1  19
TORSDOF 5
ENDMDL
MODEL 2
REMARK VINA RESULT:      -8.7      0.884      1.242
REMARK  Name = 
REMARK  6 active torsions:
REMARK  status: ('A' for Active; 'I' for Inactive)
REMARK    1  A    between atoms: C_1  and  O_2
REMARK    2  A    between atoms: O_2  and  C_3
REMARK    3  A    between atoms: C_6  and  S_7
REMARK    4  A    between atoms: S_7  and  N_10
REMARK    5  A    between atoms: C_16  and  C_17
REMARK    6  A    between atoms: C_20  and  C_21
REMARK                            x       y       z     vdW  Elec       q    Type
REMARK                         _______ _______ _______ _____ _____    ______ ____
ROOT
ATOM      1  N   UNL     1       5.305   5.512  18.003  0.00  0.00    +0.000 N 
ATOM      2  C   UNL     1       5.663   4.573  18.999  0.00  0.00    +0.000 A 
ATOM      3  C   UNL     1       4.492   3.849  18.953  0.00  0.00    +0.000 A 
ATOM      4  C   UNL     1       3.600   4.874  19.319  0.00  0.00    +0.000 A 
ATOM      5  C   UNL     1       2.545   4.856  20.257  0.00  0.00    +0.000 A 
ATOM      6  C   UNL     1       1.827   5.993  20.643  0.00  0.00    +0.000 A 
ATOM      7  C   UNL     1       2.036   7.217  20.008  0.00  0.00    +0.000 A 
ATOM      8  C   UNL     1       3.069   7.227  18.873  0.00  0.00    +0.000 A 
ATOM      9  C   UNL     1       4.014   6.053  18.615  0.00  0.00    +0.000 A 
ENDROOT
BRANCH   7  10
ATOM     10  C   UNL     1       1.237   8.443  20.645  0.00  0.00    +0.000 A 
ATOM     11  C   UNL     1       1.057   8.608  22.035  0.00  0.00    +0.000 A 
ATOM     12  C   UNL     1       0.266   9.658  22.603  0.00  0.00    +0.000 A 
ATOM     13  C   UNL     1      -0.379  10.635  21.815  0.00  0.00    +0.000 A 
ATOM     14  C   UNL     1      -0.151  10.550  20.441  0.00  0.00    +0.000 A 
ATOM     15  F   UNL     1      -0.743  11.446  19.643  0.00  0.00    +0.000 F 
ATOM     16  C   UNL     1       0.646   9.503  19.875  0.00  0.00    +0.000 A 
BRANCH  13  17
ATOM     17  C   UNL     1      -1.188  11.647  22.390  0.00  0.00    +0.000 C 
ATOM     18  N   UNL     1      -1.887  12.498  22.849  0.00  0.00    +0.000 NA
ENDBRANCH  13  17
ENDBRANCH   7  10
BRANCH   1  19
ATOM     19  S   UNL     1       6.770   5.612  16.852  0.00  0.00    +0.000 S 
ATOM     20  O   UNL     1       7.790   4.785  17.448  0.00  0.00    +0.000 OA
ATOM     21  O   UNL     1       6.990   7.036  16.696  0.00  0.00    +0.000 OA
BRANCH  19  25
ATOM     22  C   UNL     1       5.903   3.644  12.547  0.00  0.00    +0.000 A 
ATOM     23  C   UNL     1       5.012   3.666  13.625  0.00  0.00    +0.000 A 
ATOM     24  C   UNL     1       5.272   4.331  14.853  0.00  0.00    +0.000 A 
ATOM     25  C   UNL     1       6.471   5.005  15.071  0.00  0.00    +0.000 A 
ATOM     26  C   UNL     1       7.415   4.968  13.985  0.00  0.00    +0.000 A 
ATOM     27  C   UNL     1       7.120   4.298  12.726  0.00  0.00    +0.000 A 
BRANCH  22  29
ATOM     28  C   UNL     1       4.107   2.947  11.072  0.00  0.00    +0.000 C 
ATOM     29  O   UNL     1       5.485   2.927  11.453  0.00  0.00    +0.000 OA
ENDBRANCH  22  29
ENDBRANCH  19  25
ENDBRANCH   1  19
TORSDOF 5
ENDMDL
MODEL 3
REMARK VINA RESULT:      -8.6      0.988      1.071
REMARK  Name = 
REMARK  6 active torsions:
REMARK  status: ('A' for Active; 'I' for Inactive)
REMARK    1  A    between atoms: C_1  and  O_2
REMARK    2  A    between atoms: O_2  and  C_3
REMARK    3  A    between atoms: C_6  and  S_7
REMARK    4  A    between atoms: S_7  and  N_10
REMARK    5  A    between atoms: C_16  and  C_17
REMARK    6  A    between atoms: C_20  and  C_21
REMARK                            x       y       z     vdW  Elec       q    Type
REMARK                         _______ _______ _______ _____ _____    ______ ____
ROOT
ATOM      1  N   UNL     1       5.620   5.506  17.780  0.00  0.00    +0.000 N 
ATOM      2  C   UNL     1       6.058   4.926  18.993  0.00  0.00    +0.000 A 
ATOM      3  C   UNL     1       4.959   4.118  19.181  0.00  0.00    +0.000 A 
ATOM      4  C   UNL     1       3.975   5.120  19.260  0.00  0.00    +0.000 A 
ATOM      5  C   UNL     1       2.921   5.275  20.188  0.00  0.00    +0.000 A 
ATOM      6  C   UNL     1       2.101   6.407  20.251  0.00  0.00    +0.000 A 
ATOM      7  C   UNL     1       2.200   7.413  19.290  0.00  0.00    +0.000 A 
ATOM      8  C   UNL     1       3.233   7.192  18.177  0.00  0.00    +0.000 A 
ATOM      9  C   UNL     1       4.282   6.081  18.241  0.00  0.00    +0.000 A 
ENDROOT
BRANCH   7  10
ATOM     10  C   UNL     1       1.289   8.694  19.571  0.00  0.00    +0.000 A 
ATOM     11  C   UNL     1       0.960   9.640  18.578  0.00  0.00    +0.000 A 
ATOM     12  C   UNL     1       0.217  10.834  18.848  0.00  0.00    +0.000 A 
ATOM     13  C   UNL     1      -0.273  11.149  20.134  0.00  0.00    +0.000 A 
ATOM     14  C   UNL     1      -0.037  10.192  21.121  0.00  0.00    +0.000 A 
ATOM     15  F   UNL     1      -0.472  10.440  22.362  0.00  0.00    +0.000 F 
ATOM     16  C   UNL     1       0.701   8.995  20.847  0.00  0.00    +0.000 A 
BRANCH  13  17
ATOM     17  C   UNL     1      -0.975  12.352  20.394  0.00  0.00    +0.000 C 
ATOM     18  N   UNL     1      -1.569  13.357  20.643  0.00  0.00    +0.000 NA
ENDBRANCH  13  17
ENDBRANCH   7  10
BRANCH   1  19
ATOM     19  S   UNL     1       7.074   5.405  16.616  0.00  0.00    +0.000 S 
ATOM     20  O   UNL     1       7.989   4.467  17.218  0.00  0.00    +0.000 OA
ATOM     21  O   UNL     1       7.468   6.787  16.434  0.00  0.00    +0.000 OA
BRANCH  19  25
ATOM     22  C   UNL     1       6.010   3.464  12.343  0.00  0.00    +0.000 A 
ATOM     23  C   UNL     1       5.193   3.429  13.478  0.00  0.00    +0.000 A 
ATOM     24  C   UNL     1       5.505   4.086  14.697  0.00  0.00    +0.000 A 
ATOM     25  C   UNL     1       6.684   4.812  14.848  0.00  0.00    +0.000 A 
ATOM     26  C   UNL     1       7.554   4.835  13.701  0.00  0.00    +0.000 A 
ATOM     27  C   UNL     1       7.206   4.171  12.453  0.00  0.00    +0.000 A 
BRANCH  22  29
ATOM     28  C   UNL     1       5.858   1.353  11.157  0.00  0.00    +0.000 C 
ATOM     29  O   UNL     1       5.552   2.745  11.266  0.00  0.00    +0.000 OA
ENDBRANCH  22  29
ENDBRANCH  19  25
ENDBRANCH   1  19
TORSDOF 5
ENDMDL
MODEL 4
REMARK VINA RESULT:      -8.0      1.535      1.840
REMARK  Name = 
REMARK  6 active torsions:
REMARK  status: ('A' for Active; 'I' for Inactive)
REMARK    1  A    between atoms: C_1  and  O_2
REMARK    2  A    between atoms: O_2  and  C_3
REMARK    3  A    between atoms: C_6  and  S_7
REMARK    4  A    between atoms: S_7  and  N_10
REMARK    5  A    between atoms: C_16  and  C_17
REMARK    6  A    between atoms: C_20  and  C_21
REMARK                            x       y       z     vdW  Elec       q    Type
REMARK                         _______ _______ _______ _____ _____    ______ ____
ROOT
ATOM      1  N   UNL     1       5.485   5.865  17.650  0.00  0.00    +0.000 N 
ATOM      2  C   UNL     1       5.818   5.377  18.936  0.00  0.00    +0.000 A 
ATOM      3  C   UNL     1       4.630   4.717  19.160  0.00  0.00    +0.000 A 
ATOM      4  C   UNL     1       3.761   5.822  19.091  0.00  0.00    +0.000 A 
ATOM      5  C   UNL     1       2.703   6.190  19.951  0.00  0.00    +0.000 A 
ATOM      6  C   UNL     1       2.012   7.403  19.858  0.00  0.00    +0.000 A 
ATOM      7  C   UNL     1       2.252   8.281  18.802  0.00  0.00    +0.000 A 
ATOM      8  C   UNL     1       3.288   7.830  17.764  0.00  0.00    +0.000 A 
ATOM      9  C   UNL     1       4.205   6.627  17.990  0.00  0.00    +0.000 A 
ENDROOT
BRANCH   7  10
ATOM     10  C   UNL     1       1.481   9.675  18.907  0.00  0.00    +0.000 A 
ATOM     11  C   UNL     1       1.951  10.864  18.311  0.00  0.00    +0.000 A 
ATOM     12  C   UNL     1       1.307  12.132  18.478  0.00  0.00    +0.000 A 
ATOM     13  C   UNL     1       0.126  12.291  19.235  0.00  0.00    +0.000 A 
ATOM     14  C   UNL     1      -0.412  11.118  19.767  0.00  0.00    +0.000 A 
ATOM     15  F   UNL     1      -1.528  11.209  20.501  0.00  0.00    +0.000 F 
ATOM     16  C   UNL     1       0.230   9.850  19.594  0.00  0.00    +0.000 A 
BRANCH  13  17
ATOM     17  C   UNL     1      -0.481  13.558  19.421  0.00  0.00    +0.000 C 
ATOM     18  N   UNL     1      -0.981  14.625  19.607  0.00  0.00    +0.000 NA
ENDBRANCH  13  17
ENDBRANCH   7  10
BRANCH   1  19
ATOM     19  S   UNL     1       6.954   5.482  16.567  0.00  0.00    +0.000 S 
ATOM     20  O   UNL     1       7.676   4.435  17.248  0.00  0.00    +0.000 OA
ATOM     21  O   UNL     1       7.576   6.774  16.358  0.00  0.00    +0.000 OA
BRANCH  19  25
ATOM     22  C   UNL     1       5.815   3.545  12.312  0.00  0.00    +0.000 A 
ATOM     23  C   UNL     1       4.969   3.619  13.424  0.00  0.00    +0.000 A 
ATOM     24  C   UNL     1       5.313   4.274  14.636  0.00  0.00    +0.000 A 
ATOM     25  C   UNL     1       6.553   4.884  14.804  0.00  0.00    +0.000 A 
ATOM     26  C   UNL     1       7.451   4.792  13.682  0.00  0.00    +0.000 A 
ATOM     27  C   UNL     1       7.071   4.133  12.439  0.00  0.00    +0.000 A 
BRANCH  22  29
ATOM     28  C   UNL     1       3.929   2.944  10.909  0.00  0.00    +0.000 C 
ATOM     29  O   UNL     1       5.316   2.846  11.240  0.00  0.00    +0.000 OA
ENDBRANCH  22  29
ENDBRANCH  19  25
ENDBRANCH   1  19
TORSDOF 5
ENDMDL
MODEL 5
REMARK VINA RESULT:      -8.0      6.032     10.993
REMARK  Name = 
REMARK  6 active torsions:
REMARK  status: ('A' for Active; 'I' for Inactive)
REMARK    1  A    between atoms: C_1  and  O_2
REMARK    2  A    between atoms: O_2  and  C_3
REMARK    3  A    between atoms: C_6  and  S_7
REMARK    4  A    between atoms: S_7  and  N_10
REMARK    5  A    between atoms: C_16  and  C_17
REMARK    6  A    between atoms: C_20  and  C_21
REMARK                            x       y       z     vdW  Elec       q    Type
REMARK                         _______ _______ _______ _____ _____    ______ ____
ROOT
ATOM      1  N   UNL     1       0.330  11.208  20.783  0.00  0.00    +0.000 N 
ATOM      2  C   UNL     1       1.212  12.096  20.124  0.00  0.00    +0.000 A 
ATOM      3  C   UNL     1       0.838  11.759  18.842  0.00  0.00    +0.000 A 
ATOM      4  C   UNL     1       1.192  10.398  18.873  0.00  0.00    +0.000 A 
ATOM      5  C   UNL     1       1.905   9.632  17.925  0.00  0.00    +0.000 A 
ATOM      6  C   UNL     1       2.330   8.317  18.147  0.00  0.00    +0.000 A 
ATOM      7  C   UNL     1       1.947   7.631  19.299  0.00  0.00    +0.000 A 
ATOM      8  C   UNL     1       1.038   8.390  20.274  0.00  0.00    +0.000 A 
ATOM      9  C   UNL     1       0.773   9.891  20.147  0.00  0.00    +0.000 A 
ENDROOT
BRANCH   7  10
ATOM     10  C   UNL     1       2.615   6.190  19.468  0.00  0.00    +0.000 A 
ATOM     11  C   UNL     1       2.020   5.146  20.206  0.00  0.00    +0.000 A 
ATOM     12  C   UNL     1       2.658   3.884  20.432  0.00  0.00    +0.000 A 
ATOM     13  C   UNL     1       3.930   3.571  19.907  0.00  0.00    +0.000 A 
ATOM     14  C   UNL     1       4.509   4.552  19.101  0.00  0.00    +0.000 A 
ATOM     15  F   UNL     1       5.719   4.314  18.582  0.00  0.00    +0.000 F 
ATOM     16  C   UNL     1       3.867   5.811  18.871  0.00  0.00    +0.000 A 
BRANCH  13  17
ATOM     17  C   UNL     1       4.565   2.331  20.168  0.00  0.00    +0.000 C 
ATOM     18  N   UNL     1       5.116   1.301  20.410  0.00  0.00    +0.000 NA
ENDBRANCH  13  17
ENDBRANCH   7  10
BRANCH   1  19
ATOM     19  S   UNL     1      -0.502  12.215  22.115  0.00  0.00    +0.000 S 
ATOM     20  O   UNL     1       0.246  13.446  22.195  0.00  0.00    +0.000 OA
ATOM     21  O   UNL     1      -0.544  11.317  23.252  0.00  0.00    +0.000 OA
BRANCH  19  25
ATOM     22  C   UNL     1      -5.237  12.922  21.637  0.00  0.00    +0.000 A 
ATOM     23  C   UNL     1      -4.543  12.857  22.850  0.00  0.00    +0.000 A 
ATOM     24  C   UNL     1      -3.132  12.731  22.948  0.00  0.00    +0.000 A 
ATOM     25  C   UNL     1      -2.332  12.644  21.811  0.00  0.00    +0.000 A 
ATOM     26  C   UNL     1      -3.030  12.678  20.552  0.00  0.00    +0.000 A 
ATOM     27  C   UNL     1      -4.477  12.828  20.474  0.00  0.00    +0.000 A 
BRANCH  22  29
ATOM     28  C   UNL     1      -7.265  12.489  22.898  0.00  0.00    +0.000 C 
ATOM     29  O   UNL     1      -6.603  13.017  21.746  0.00  0.00    +0.000 OA
ENDBRANCH  22  29
ENDBRANCH  19  25
ENDBRANCH   1  19
TORSDOF 5
ENDMDL
MODEL 6
REMARK VINA RESULT:      -7.9      1.172      1.698
REMARK  Name = 
REMARK  6 active torsions:
REMARK  status: ('A' for Active; 'I' for Inactive)
REMARK    1  A    between atoms: C_1  and  O_2
REMARK    2  A    between atoms: O_2  and  C_3
REMARK    3  A    between atoms: C_6  and  S_7
REMARK    4  A    between atoms: S_7  and  N_10
REMARK    5  A    between atoms: C_16  and  C_17
REMARK    6  A    between atoms: C_20  and  C_21
REMARK                            x       y       z     vdW  Elec       q    Type
REMARK                         _______ _______ _______ _____ _____    ______ ____
ROOT
ATOM      1  N   UNL     1       4.980   5.800  18.309  0.00  0.00    +0.000 N 
ATOM      2  C   UNL     1       5.335   4.838  19.284  0.00  0.00    +0.000 A 
ATOM      3  C   UNL     1       4.168   4.109  19.210  0.00  0.00    +0.000 A 
ATOM      4  C   UNL     1       3.267   5.119  19.593  0.00  0.00    +0.000 A 
ATOM      5  C   UNL     1       2.203   5.071  20.520  0.00  0.00    +0.000 A 
ATOM      6  C   UNL     1       1.475   6.195  20.928  0.00  0.00    +0.000 A 
ATOM      7  C   UNL     1       1.683   7.435  20.326  0.00  0.00    +0.000 A 
ATOM      8  C   UNL     1       2.726   7.480  19.201  0.00  0.00    +0.000 A 
ATOM      9  C   UNL     1       3.680   6.318  18.922  0.00  0.00    +0.000 A 
ENDROOT
BRANCH   7  10
ATOM     10  C   UNL     1       0.871   8.640  20.986  0.00  0.00    +0.000 A 
ATOM     11  C   UNL     1       0.745   8.814  22.380  0.00  0.00    +0.000 A 
ATOM     12  C   UNL     1      -0.057   9.842  22.973  0.00  0.00    +0.000 A 
ATOM     13  C   UNL     1      -0.767  10.789  22.205  0.00  0.00    +0.000 A 
ATOM     14  C   UNL     1      -0.595  10.697  20.823  0.00  0.00    +0.000 A 
ATOM     15  F   UNL     1      -1.251  11.565  20.044  0.00  0.00    +0.000 F 
ATOM     16  C   UNL     1       0.211   9.672  20.233  0.00  0.00    +0.000 A 
BRANCH  13  17
ATOM     17  C   UNL     1      -1.585  11.779  22.805  0.00  0.00    +0.000 C 
ATOM     18  N   UNL     1      -2.290  12.614  23.284  0.00  0.00    +0.000 NA
ENDBRANCH  13  17
ENDBRANCH   7  10
BRANCH   1  19
ATOM     19  S   UNL     1       6.454   5.937  17.175  0.00  0.00    +0.000 S 
ATOM     20  O   UNL     1       7.586   5.492  17.952  0.00  0.00    +0.000 OA
ATOM     21  O   UNL     1       6.396   7.304  16.696  0.00  0.00    +0.000 OA
BRANCH  19  25
ATOM     22  C   UNL     1       6.308   3.730  12.901  0.00  0.00    +0.000 A 
ATOM     23  C   UNL     1       7.327   4.580  13.343  0.00  0.00    +0.000 A 
ATOM     24  C   UNL     1       7.377   5.147  14.644  0.00  0.00    +0.000 A 
ATOM     25  C   UNL     1       6.377   4.898  15.580  0.00  0.00    +0.000 A 
ATOM     26  C   UNL     1       5.302   4.050  15.136  0.00  0.00    +0.000 A 
ATOM     27  C   UNL     1       5.281   3.462  13.803  0.00  0.00    +0.000 A 
BRANCH  22  29
ATOM     28  C   UNL     1       6.274   1.915  11.291  0.00  0.00    +0.000 C 
ATOM     29  O   UNL     1       6.420   3.303  11.601  0.00  0.00    +0.000 OA
ENDBRANCH  22  29
ENDBRANCH  19  25
ENDBRANCH   1  19
TORSDOF 5
ENDMDL
MODEL 7
REMARK VINA RESULT:      -7.8      6.052     10.912
REMARK  Name = 
REMARK  6 active torsions:
REMARK  status: ('A' for Active; 'I' for Inactive)
REMARK    1  A    between atoms: C_1  and  O_2
REMARK    2  A    between atoms: O_2  and  C_3
REMARK    3  A    between atoms: C_6  and  S_7
REMARK    4  A    between atoms: S_7  and  N_10
REMARK    5  A    between atoms: C_16  and  C_17
REMARK    6  A    between atoms: C_20  and  C_21
REMARK                            x       y       z     vdW  Elec       q    Type
REMARK                         _______ _______ _______ _____ _____    ______ ____
ROOT
ATOM      1  N   UNL     1       0.256  11.088  20.859  0.00  0.00    +0.000 N 
ATOM      2  C   UNL     1       1.126  11.993  20.207  0.00  0.00    +0.000 A 
ATOM      3  C   UNL     1       0.758  11.660  18.922  0.00  0.00    +0.000 A 
ATOM      4  C   UNL     1       1.132  10.303  18.944  0.00  0.00    +0.000 A 
ATOM      5  C   UNL     1       1.857   9.554  17.992  0.00  0.00    +0.000 A 
ATOM      6  C   UNL     1       2.300   8.244  18.205  0.00  0.00    +0.000 A 
ATOM      7  C   UNL     1       1.926   7.544  19.353  0.00  0.00    +0.000 A 
ATOM      8  C   UNL     1       1.005   8.284  20.332  0.00  0.00    +0.000 A 
ATOM      9  C   UNL     1       0.718   9.782  20.215  0.00  0.00    +0.000 A 
ENDROOT
BRANCH   7  10
ATOM     10  C   UNL     1       2.614   6.113  19.512  0.00  0.00    +0.000 A 
ATOM     11  C   UNL     1       2.005   5.035  20.188  0.00  0.00    +0.000 A 
ATOM     12  C   UNL     1       2.657   3.779  20.408  0.00  0.00    +0.000 A 
ATOM     13  C   UNL     1       3.960   3.507  19.939  0.00  0.00    +0.000 A 
ATOM     14  C   UNL     1       4.558   4.523  19.193  0.00  0.00    +0.000 A 
ATOM     15  F   UNL     1       5.798   4.325  18.730  0.00  0.00    +0.000 F 
ATOM     16  C   UNL     1       3.902   5.776  18.969  0.00  0.00    +0.000 A 
BRANCH  13  17
ATOM     17  C   UNL     1       4.606   2.272  20.196  0.00  0.00    +0.000 C 
ATOM     18  N   UNL     1       5.171   1.239  20.390  0.00  0.00    +0.000 NA
ENDBRANCH  13  17
ENDBRANCH   7  10
BRANCH   1  19
ATOM     19  S   UNL     1      -0.592  12.074  22.196  0.00  0.00    +0.000 S 
ATOM     20  O   UNL     1       0.084  13.348  22.226  0.00  0.00    +0.000 OA
ATOM     21  O   UNL     1      -0.544  11.201  23.352  0.00  0.00    +0.000 OA
BRANCH  19  25
ATOM     22  C   UNL     1      -5.168  13.264  21.307  0.00  0.00    +0.000 A 
ATOM     23  C   UNL     1      -4.173  13.083  20.341  0.00  0.00    +0.000 A 
ATOM     24  C   UNL     1      -2.854  12.649  20.637  0.00  0.00    +0.000 A 
ATOM     25  C   UNL     1      -2.453  12.388  21.944  0.00  0.00    +0.000 A 
ATOM     26  C   UNL     1      -3.454  12.598  22.958  0.00  0.00    +0.000 A 
ATOM     27  C   UNL     1      -4.808  13.024  22.631  0.00  0.00    +0.000 A 
BRANCH  22  29
ATOM     28  C   UNL     1      -7.033  13.007  19.777  0.00  0.00    +0.000 C 
ATOM     29  O   UNL     1      -6.375  13.714  20.831  0.00  0.00    +0.000 OA
ENDBRANCH  22  29
ENDBRANCH  19  25
ENDBRANCH   1  19
TORSDOF 5
ENDMDL
MODEL 8
REMARK VINA RESULT:      -7.7      6.012     10.968
REMARK  Name = 
REMARK  6 active torsions:
REMARK  status: ('A' for Active; 'I' for Inactive)
REMARK    1  A    between atoms: C_1  and  O_2
REMARK    2  A    between atoms: O_2  and  C_3
REMARK    3  A    between atoms: C_6  and  S_7
REMARK    4  A    between atoms: S_7  and  N_10
REMARK    5  A    between atoms: C_16  and  C_17
REMARK    6  A    between atoms: C_20  and  C_21
REMARK                            x       y       z     vdW  Elec       q    Type
REMARK                         _______ _______ _______ _____ _____    ______ ____
ROOT
ATOM      1  N   UNL     1       0.167  11.184  20.856  0.00  0.00    +0.000 N 
ATOM      2  C   UNL     1       0.986  12.079  20.128  0.00  0.00    +0.000 A 
ATOM      3  C   UNL     1       0.588  11.665  18.876  0.00  0.00    +0.000 A 
ATOM      4  C   UNL     1       1.005  10.324  18.957  0.00  0.00    +0.000 A 
ATOM      5  C   UNL     1       1.724   9.547  18.022  0.00  0.00    +0.000 A 
ATOM      6  C   UNL     1       2.214   8.264  18.290  0.00  0.00    +0.000 A 
ATOM      7  C   UNL     1       1.900   7.616  19.484  0.00  0.00    +0.000 A 
ATOM      8  C   UNL     1       0.987   8.380  20.453  0.00  0.00    +0.000 A 
ATOM      9  C   UNL     1       0.650   9.860  20.266  0.00  0.00    +0.000 A 
ENDROOT
BRANCH   7  10
ATOM     10  C   UNL     1       2.637   6.217  19.696  0.00  0.00    +0.000 A 
ATOM     11  C   UNL     1       3.909   5.925  19.160  0.00  0.00    +0.000 A 
ATOM     12  C   UNL     1       4.532   4.641  19.274  0.00  0.00    +0.000 A 
ATOM     13  C   UNL     1       3.933   3.564  19.962  0.00  0.00    +0.000 A 
ATOM     14  C   UNL     1       2.712   3.845  20.577  0.00  0.00    +0.000 A 
ATOM     15  F   UNL     1       2.093   2.859  21.237  0.00  0.00    +0.000 F 
ATOM     16  C   UNL     1       2.093   5.131  20.467  0.00  0.00    +0.000 A 
BRANCH  13  17
ATOM     17  C   UNL     1       4.546   2.288  20.037  0.00  0.00    +0.000 C 
ATOM     18  N   UNL     1       5.040   1.206  20.120  0.00  0.00    +0.000 NA
ENDBRANCH  13  17
ENDBRANCH   7  10
BRANCH   1  19
ATOM     19  S   UNL     1      -0.669  12.215  22.167  0.00  0.00    +0.000 S 
ATOM     20  O   UNL     1      -0.034  13.509  22.106  0.00  0.00    +0.000 OA
ATOM     21  O   UNL     1      -0.557  11.408  23.365  0.00  0.00    +0.000 OA
BRANCH  19  25
ATOM     22  C   UNL     1      -5.308  13.244  21.410  0.00  0.00    +0.000 A 
ATOM     23  C   UNL     1      -4.325  13.146  20.420  0.00  0.00    +0.000 A 
ATOM     24  C   UNL     1      -2.983  12.757  20.673  0.00  0.00    +0.000 A 
ATOM     25  C   UNL     1      -2.546  12.459  21.961  0.00  0.00    +0.000 A 
ATOM     26  C   UNL     1      -3.535  12.583  23.000  0.00  0.00    +0.000 A 
ATOM     27  C   UNL     1      -4.912  12.963  22.716  0.00  0.00    +0.000 A 
BRANCH  22  29
ATOM     28  C   UNL     1      -7.714  12.933  21.351  0.00  0.00    +0.000 C 
ATOM     29  O   UNL     1      -6.542  13.660  20.974  0.00  0.00    +0.000 OA
ENDBRANCH  22  29
ENDBRANCH  19  25
ENDBRANCH   1  19
TORSDOF 5
ENDMDL
MODEL 9
REMARK VINA RESULT:      -7.7      5.176     10.900
REMARK  Name = 
REMARK  6 active torsions:
REMARK  status: ('A' for Active; 'I' for Inactive)
REMARK    1  A    between atoms: C_1  and  O_2
REMARK    2  A    between atoms: O_2  and  C_3
REMARK    3  A    between atoms: C_6  and  S_7
REMARK    4  A    between atoms: S_7  and  N_10
REMARK    5  A    between atoms: C_16  and  C_17
REMARK    6  A    between atoms: C_20  and  C_21
REMARK                            x       y       z     vdW  Elec       q    Type
REMARK                         _______ _______ _______ _____ _____    ______ ____
ROOT
ATOM      1  N   UNL     1       0.196  10.381  19.650  0.00  0.00    +0.000 N 
ATOM      2  C   UNL     1      -0.757   9.562  20.299  0.00  0.00    +0.000 A 
ATOM      3  C   UNL     1       0.074   9.134  21.311  0.00  0.00    +0.000 A 
ATOM      4  C   UNL     1       1.050   8.495  20.524  0.00  0.00    +0.000 A 
ATOM      5  C   UNL     1       1.649   7.227  20.688  0.00  0.00    +0.000 A 
ATOM      6  C   UNL     1       2.497   6.639  19.743  0.00  0.00    +0.000 A 
ATOM      7  C   UNL     1       2.908   7.350  18.615  0.00  0.00    +0.000 A 
ATOM      8  C   UNL     1       2.395   8.790  18.494  0.00  0.00    +0.000 A 
ATOM      9  C   UNL     1       1.291   9.345  19.394  0.00  0.00    +0.000 A 
ENDROOT
BRANCH   7  10
ATOM     10  C   UNL     1       3.767   6.501  17.571  0.00  0.00    +0.000 A 
ATOM     11  C   UNL     1       4.507   7.088  16.523  0.00  0.00    +0.000 A 
ATOM     12  C   UNL     1       5.205   6.324  15.533  0.00  0.00    +0.000 A 
ATOM     13  C   UNL     1       5.233   4.913  15.542  0.00  0.00    +0.000 A 
ATOM     14  C   UNL     1       4.581   4.303  16.615  0.00  0.00    +0.000 A 
ATOM     15  F   UNL     1       4.567   2.966  16.672  0.00  0.00    +0.000 F 
ATOM     16  C   UNL     1       3.888   5.069  17.607  0.00  0.00    +0.000 A 
BRANCH  13  17
ATOM     17  C   UNL     1       5.898   4.169  14.536  0.00  0.00    +0.000 C 
ATOM     18  N   UNL     1       6.439   3.519  13.694  0.00  0.00    +0.000 NA
ENDBRANCH  13  17
ENDBRANCH   7  10
BRANCH   1  19
ATOM     19  S   UNL     1      -0.665  12.004  19.328  0.00  0.00    +0.000 S 
ATOM     20  O   UNL     1      -1.195  11.904  17.990  0.00  0.00    +0.000 OA
ATOM     21  O   UNL     1       0.343  12.997  19.636  0.00  0.00    +0.000 OA
BRANCH  19  25
ATOM     22  C   UNL     1      -4.202  12.658  22.525  0.00  0.00    +0.000 A 
ATOM     23  C   UNL     1      -2.870  12.366  22.835  0.00  0.00    +0.000 A 
ATOM     24  C   UNL     1      -1.837  12.262  21.866  0.00  0.00    +0.000 A 
ATOM     25  C   UNL     1      -2.097  12.433  20.509  0.00  0.00    +0.000 A 
ATOM     26  C   UNL     1      -3.468  12.704  20.165  0.00  0.00    +0.000 A 
ATOM     27  C   UNL     1      -4.510  12.826  21.176  0.00  0.00    +0.000 A 
BRANCH  22  29
ATOM     28  C   UNL     1      -4.575  12.403  24.908  0.00  0.00    +0.000 C 
ATOM     29  O   UNL     1      -5.062  12.689  23.595  0.00  0.00    +0.000 OA
ENDBRANCH  22  29
ENDBRANCH  19  25
ENDBRANCH   1  19
TORSDOF 5
ENDMDL
