MODEL 1
REMARK VINA RESULT:      -7.9      0.000      0.000
REMARK  Name = 
REMARK  5 active torsions:
REMARK  status: ('A' for Active; 'I' for Inactive)
REMARK    1  A    between atoms: C_1  and  N_2
REMARK    2  A    between atoms: N_5  and  C_6
REMARK    3  A    between atoms: C_9  and  S_10
REMARK    4  A    between atoms: S_10  and  O_13
REMARK    5  A    between atoms: O_13  and  C_14
REMARK                            x       y       z     vdW  Elec       q    Type
REMARK                         _______ _______ _______ _____ _____    ______ ____
ROOT
ATOM      1  C   UNL     1       2.874   6.670  18.455  0.00  0.00    +0.000 A 
ATOM      2  C   UNL     1       2.574   7.885  17.818  0.00  0.00    +0.000 A 
ATOM      3  C   UNL     1       1.896   8.916  18.481  0.00  0.00    +0.000 A 
ATOM      4  C   UNL     1       1.531   8.751  19.812  0.00  0.00    +0.000 A 
ATOM      5  C   UNL     1       1.838   7.564  20.480  0.00  0.00    +0.000 A 
ATOM      6  C   UNL     1       2.502   6.533  19.802  0.00  0.00    +0.000 A 
ENDROOT
BRANCH   1  11
ATOM      7  C   UNL     1       6.046   4.083  15.643  0.00  0.00    +0.000 C 
ATOM      8  N   UNL     1       4.837   4.421  16.352  0.00  0.00    +0.000 N 
ATOM      9  C   UNL     1       4.038   3.444  17.040  0.00  0.00    +0.000 C 
ATOM     10  C   UNL     1       2.912   4.284  17.619  0.00  0.00    +0.000 C 
ATOM     11  N   UNL     1       3.500   5.601  17.760  0.00  0.00    +0.000 N 
ATOM     12  C   UNL     1       4.653   5.687  16.938  0.00  0.00    +0.000 C 
ATOM     13  O   UNL     1       5.399   6.635  16.755  0.00  0.00    +0.000 OA
ENDBRANCH   1  11
BRANCH   4  14
ATOM     14  S   UNL     1       0.464   9.947  20.587  0.00  0.00    +0.000 S 
ATOM     15  O   UNL     1      -0.774   9.265  20.916  0.00  0.00    +0.000 OA
ATOM     16  O   UNL     1       1.259  10.567  21.638  0.00  0.00    +0.000 OA
BRANCH  14  17
ATOM     17  O   UNL     1       0.148  11.070  19.442  0.00  0.00    +0.000 OA
BRANCH  17  18
ATOM     18  C   UNL     1      -1.113  11.137  18.881  0.00  0.00    +0.000 A 
ATOM     19  C   UNL     1      -1.453  10.426  17.723  0.00  0.00    +0.000 A 
ATOM     20  C   UNL     1      -2.731  10.528  17.164  0.00  0.00    +0.000 A 
ATOM     21 CL   UNL     1      -3.035   9.653  15.706  0.00  0.00    +0.000 Cl
ATOM     22  C   UNL     1      -3.699  11.318  17.784  0.00  0.00    +0.000 A 
ATOM     23 CL   UNL     1      -5.297  11.483  17.150  0.00  0.00    +0.000 Cl
ATOM     24  C   UNL     1      -3.385  12.004  18.961  0.00  0.00    +0.000 A 
ATOM     25  C   UNL     1      -2.095  11.915  19.504  0.00  0.00    +0.000 A 
ATOM     26 CL   UNL     1      -1.758  12.799  20.948  0.00  0.00    +0.000 Cl
ENDBRANCH  17  18
ENDBRANCH  14  17
ENDBRANCH   4  14
TORSDOF 4
ENDMDL
MODEL 2
REMARK VINA RESULT:      -7.7      3.108      3.695
REMARK  Name = 
REMARK  5 active torsions:
REMARK  status: ('A' for Active; 'I' for Inactive)
REMARK    1  A    between atoms: C_1  and  N_2
REMARK    2  A    between atoms: N_5  and  C_6
REMARK    3  A    between atoms: C_9  and  S_10
REMARK    4  A    between atoms: S_10  and  O_13
REMARK    5  A    between atoms: O_13  and  C_14
REMARK                            x       y       z     vdW  Elec       q    Type
REMARK                         _______ _______ _______ _____ _____    ______ ____
ROOT
ATOM      1  C   UNL     1       2.571   6.900  18.987  0.00  0.00    +0.000 A 
ATOM      2  C   UNL     1       2.514   7.822  17.931  0.00  0.00    +0.000 A 
ATOM      3  C   UNL     1       1.869   9.059  18.066  0.00  0.00    +0.000 A 
ATOM      4  C   UNL     1       1.293   9.401  19.285  0.00  0.00    +0.000 A 
ATOM      5  C   UNL     1       1.357   8.515  20.362  0.00  0.00    +0.000 A 
ATOM      6  C   UNL     1       1.989   7.274  20.209  0.00  0.00    +0.000 A 
ENDROOT
BRANCH   1  11
ATOM      7  C   UNL     1       3.224   2.107  17.862  0.00  0.00    +0.000 C 
ATOM      8  N   UNL     1       3.450   3.393  18.474  0.00  0.00    +0.000 N 
ATOM      9  C   UNL     1       4.765   3.920  18.717  0.00  0.00    +0.000 C 
ATOM     10  C   UNL     1       4.470   5.270  19.349  0.00  0.00    +0.000 C 
ATOM     11  N   UNL     1       3.165   5.620  18.825  0.00  0.00    +0.000 N 
ATOM     12  C   UNL     1       2.530   4.449  18.336  0.00  0.00    +0.000 C 
ATOM     13  O   UNL     1       1.418   4.321  17.853  0.00  0.00    +0.000 OA
ENDBRANCH   1  11
BRANCH   4  14
ATOM     14  S   UNL     1       0.270  10.853  19.398  0.00  0.00    +0.000 S 
ATOM     15  O   UNL     1       0.812  11.830  18.472  0.00  0.00    +0.000 OA
ATOM     16  O   UNL     1      -1.101  10.386  19.248  0.00  0.00    +0.000 OA
BRANCH  14  17
ATOM     17  O   UNL     1       0.465  11.418  20.919  0.00  0.00    +0.000 OA
BRANCH  17  18
ATOM     18  C   UNL     1      -0.611  11.969  21.587  0.00  0.00    +0.000 A 
ATOM     19  C   UNL     1      -1.196  13.178  21.187  0.00  0.00    +0.000 A 
ATOM     20  C   UNL     1      -2.272  13.726  21.893  0.00  0.00    +0.000 A 
ATOM     21 CL   UNL     1      -2.890  15.246  21.353  0.00  0.00    +0.000 Cl
ATOM     22  C   UNL     1      -2.801  13.045  22.991  0.00  0.00    +0.000 A 
ATOM     23 CL   UNL     1      -4.132  13.661  23.902  0.00  0.00    +0.000 Cl
ATOM     24  C   UNL     1      -2.251  11.820  23.377  0.00  0.00    +0.000 A 
ATOM     25  C   UNL     1      -1.158  11.287  22.678  0.00  0.00    +0.000 A 
ATOM     26 CL   UNL     1      -0.507   9.780  23.213  0.00  0.00    +0.000 Cl
ENDBRANCH  17  18
ENDBRANCH  14  17
ENDBRANCH   4  14
TORSDOF 4
ENDMDL
MODEL 3
REMARK VINA RESULT:      -7.6      3.315      4.021
REMARK  Name = 
REMARK  5 active torsions:
REMARK  status: ('A' for Active; 'I' for Inactive)
REMARK    1  A    between atoms: C_1  and  N_2
REMARK    2  A    between atoms: N_5  and  C_6
REMARK    3  A    between atoms: C_9  and  S_10
REMARK    4  A    between atoms: S_10  and  O_13
REMARK    5  A    between atoms: O_13  and  C_14
REMARK                            x       y       z     vdW  Elec       q    Type
REMARK                         _______ _______ _______ _____ _____    ______ ____
ROOT
ATOM      1  C   UNL     1       2.545   6.846  18.996  0.00  0.00    +0.000 A 
ATOM      2  C   UNL     1       1.993   7.239  20.225  0.00  0.00    +0.000 A 
ATOM      3  C   UNL     1       1.398   8.495  20.398  0.00  0.00    +0.000 A 
ATOM      4  C   UNL     1       1.324   9.372  19.322  0.00  0.00    +0.000 A 
ATOM      5  C   UNL     1       1.842   9.000  18.079  0.00  0.00    +0.000 A 
ATOM      6  C   UNL     1       2.449   7.747  17.923  0.00  0.00    +0.000 A 
ENDROOT
BRANCH   1  11
ATOM      7  C   UNL     1       3.449   2.079  17.936  0.00  0.00    +0.000 C 
ATOM      8  N   UNL     1       3.613   3.386  18.521  0.00  0.00    +0.000 N 
ATOM      9  C   UNL     1       4.900   3.992  18.726  0.00  0.00    +0.000 C 
ATOM     10  C   UNL     1       4.543   5.334  19.342  0.00  0.00    +0.000 C 
ATOM     11  N   UNL     1       3.208   5.599  18.842  0.00  0.00    +0.000 N 
ATOM     12  C   UNL     1       2.631   4.385  18.387  0.00  0.00    +0.000 C 
ATOM     13  O   UNL     1       1.518   4.186  17.931  0.00  0.00    +0.000 OA
ENDBRANCH   1  11
BRANCH   4  14
ATOM     14  S   UNL     1       0.795  11.050  19.588  0.00  0.00    +0.000 S 
ATOM     15  O   UNL     1       1.757  11.912  18.926  0.00  0.00    +0.000 OA
ATOM     16  O   UNL     1      -0.608  11.090  19.203  0.00  0.00    +0.000 OA
BRANCH  14  17
ATOM     17  O   UNL     1       0.900  11.300  21.200  0.00  0.00    +0.000 OA
BRANCH  17  18
ATOM     18  C   UNL     1      -0.141  11.919  21.865  0.00  0.00    +0.000 A 
ATOM     19  C   UNL     1      -0.417  13.284  21.712  0.00  0.00    +0.000 A 
ATOM     20  C   UNL     1      -1.464  13.890  22.414  0.00  0.00    +0.000 A 
ATOM     21 CL   UNL     1      -1.690  15.589  22.197  0.00  0.00    +0.000 Cl
ATOM     22  C   UNL     1      -2.274  13.123  23.252  0.00  0.00    +0.000 A 
ATOM     23 CL   UNL     1      -3.586  13.807  24.141  0.00  0.00    +0.000 Cl
ATOM     24  C   UNL     1      -2.033  11.753  23.385  0.00  0.00    +0.000 A 
ATOM     25  C   UNL     1      -0.968  11.155  22.696  0.00  0.00    +0.000 A 
ATOM     26 CL   UNL     1      -0.705   9.463  22.914  0.00  0.00    +0.000 Cl
ENDBRANCH  17  18
ENDBRANCH  14  17
ENDBRANCH   4  14
TORSDOF 4
ENDMDL
MODEL 4
REMARK VINA RESULT:      -7.6      0.714      1.178
REMARK  Name = 
REMARK  5 active torsions:
REMARK  status: ('A' for Active; 'I' for Inactive)
REMARK    1  A    between atoms: C_1  and  N_2
REMARK    2  A    between atoms: N_5  and  C_6
REMARK    3  A    between atoms: C_9  and  S_10
REMARK    4  A    between atoms: S_10  and  O_13
REMARK    5  A    between atoms: O_13  and  C_14
REMARK                            x       y       z     vdW  Elec       q    Type
REMARK                         _______ _______ _______ _____ _____    ______ ____
ROOT
ATOM      1  C   UNL     1       2.913   6.379  18.652  0.00  0.00    +0.000 A 
ATOM      2  C   UNL     1       2.358   6.035  19.894  0.00  0.00    +0.000 A 
ATOM      3  C   UNL     1       1.609   6.949  20.646  0.00  0.00    +0.000 A 
ATOM      4  C   UNL     1       1.382   8.226  20.144  0.00  0.00    +0.000 A 
ATOM      5  C   UNL     1       1.899   8.589  18.899  0.00  0.00    +0.000 A 
ATOM      6  C   UNL     1       2.660   7.672  18.163  0.00  0.00    +0.000 A 
ENDROOT
BRANCH   1  11
ATOM      7  C   UNL     1       6.724   4.440  16.128  0.00  0.00    +0.000 C 
ATOM      8  N   UNL     1       5.384   4.608  16.629  0.00  0.00    +0.000 N 
ATOM      9  C   UNL     1       4.534   3.498  16.967  0.00  0.00    +0.000 C 
ATOM     10  C   UNL     1       3.265   4.185  17.446  0.00  0.00    +0.000 C 
ATOM     11  N   UNL     1       3.728   5.473  17.924  0.00  0.00    +0.000 N 
ATOM     12  C   UNL     1       5.009   5.741  17.375  0.00  0.00    +0.000 C 
ATOM     13  O   UNL     1       5.712   6.728  17.508  0.00  0.00    +0.000 OA
ENDBRANCH   1  11
BRANCH   4  14
ATOM     14  S   UNL     1       0.645   9.465  21.188  0.00  0.00    +0.000 S 
ATOM     15  O   UNL     1      -0.664   8.972  21.576  0.00  0.00    +0.000 OA
ATOM     16  O   UNL     1       1.641   9.773  22.203  0.00  0.00    +0.000 OA
BRANCH  14  17
ATOM     17  O   UNL     1       0.442  10.782  20.240  0.00  0.00    +0.000 OA
BRANCH  17  18
ATOM     18  C   UNL     1      -0.775  10.998  19.624  0.00  0.00    +0.000 A 
ATOM     19  C   UNL     1      -1.143  10.335  18.445  0.00  0.00    +0.000 A 
ATOM     20  C   UNL     1      -2.372  10.588  17.829  0.00  0.00    +0.000 A 
ATOM     21 CL   UNL     1      -2.710   9.759  16.352  0.00  0.00    +0.000 Cl
ATOM     22  C   UNL     1      -3.269  11.485  18.412  0.00  0.00    +0.000 A 
ATOM     23 CL   UNL     1      -4.805  11.838  17.708  0.00  0.00    +0.000 Cl
ATOM     24  C   UNL     1      -2.931  12.126  19.607  0.00  0.00    +0.000 A 
ATOM     25  C   UNL     1      -1.687  11.884  20.208  0.00  0.00    +0.000 A 
ATOM     26 CL   UNL     1      -1.316  12.718  21.672  0.00  0.00    +0.000 Cl
ENDBRANCH  17  18
ENDBRANCH  14  17
ENDBRANCH   4  14
TORSDOF 4
ENDMDL
MODEL 5
REMARK VINA RESULT:      -7.6      1.139      2.155
REMARK  Name = 
REMARK  5 active torsions:
REMARK  status: ('A' for Active; 'I' for Inactive)
REMARK    1  A    between atoms: C_1  and  N_2
REMARK    2  A    between atoms: N_5  and  C_6
REMARK    3  A    between atoms: C_9  and  S_10
REMARK    4  A    between atoms: S_10  and  O_13
REMARK    5  A    between atoms: O_13  and  C_14
REMARK                            x       y       z     vdW  Elec       q    Type
REMARK                         _______ _______ _______ _____ _____    ______ ____
ROOT
ATOM      1  C   UNL     1       2.393   7.129  18.662  0.00  0.00    +0.000 A 
ATOM      2  C   UNL     1       2.111   8.282  17.913  0.00  0.00    +0.000 A 
ATOM      3  C   UNL     1       1.522   9.413  18.493  0.00  0.00    +0.000 A 
ATOM      4  C   UNL     1       1.232   9.412  19.853  0.00  0.00    +0.000 A 
ATOM      5  C   UNL     1       1.525   8.290  20.630  0.00  0.00    +0.000 A 
ATOM      6  C   UNL     1       2.098   7.158  20.035  0.00  0.00    +0.000 A 
ENDROOT
BRANCH   1  11
ATOM      7  C   UNL     1       5.448   4.016  16.288  0.00  0.00    +0.000 C 
ATOM      8  N   UNL     1       4.228   4.555  16.835  0.00  0.00    +0.000 N 
ATOM      9  C   UNL     1       3.205   3.729  17.418  0.00  0.00    +0.000 C 
ATOM     10  C   UNL     1       2.160   4.747  17.846  0.00  0.00    +0.000 C 
ATOM     11  N   UNL     1       2.926   5.960  18.057  0.00  0.00    +0.000 N 
ATOM     12  C   UNL     1       4.173   5.846  17.389  0.00  0.00    +0.000 C 
ATOM     13  O   UNL     1       5.075   6.662  17.301  0.00  0.00    +0.000 OA
ENDBRANCH   1  11
BRANCH   4  14
ATOM     14  S   UNL     1       0.271  10.739  20.549  0.00  0.00    +0.000 S 
ATOM     15  O   UNL     1      -0.798  10.132  21.321  0.00  0.00    +0.000 OA
ATOM     16  O   UNL     1       1.226  11.626  21.195  0.00  0.00    +0.000 OA
BRANCH  14  17
ATOM     17  O   UNL     1      -0.392  11.523  19.276  0.00  0.00    +0.000 OA
BRANCH  17  18
ATOM     18  C   UNL     1      -1.760  11.703  19.222  0.00  0.00    +0.000 A 
ATOM     19  C   UNL     1      -2.431  12.586  20.079  0.00  0.00    +0.000 A 
ATOM     20  C   UNL     1      -3.820  12.734  20.017  0.00  0.00    +0.000 A 
ATOM     21 CL   UNL     1      -4.558  13.808  21.151  0.00  0.00    +0.000 Cl
ATOM     22  C   UNL     1      -4.553  12.023  19.066  0.00  0.00    +0.000 A 
ATOM     23 CL   UNL     1      -6.268  12.164  18.932  0.00  0.00    +0.000 Cl
ATOM     24  C   UNL     1      -3.892  11.167  18.180  0.00  0.00    +0.000 A 
ATOM     25  C   UNL     1      -2.502  11.006  18.261  0.00  0.00    +0.000 A 
ATOM     26 CL   UNL     1      -1.742   9.920  17.156  0.00  0.00    +0.000 Cl
ENDBRANCH  17  18
ENDBRANCH  14  17
ENDBRANCH   4  14
TORSDOF 4
ENDMDL
MODEL 6
REMARK VINA RESULT:      -7.4      1.625      2.194
REMARK  Name = 
REMARK  5 active torsions:
REMARK  status: ('A' for Active; 'I' for Inactive)
REMARK    1  A    between atoms: C_1  and  N_2
REMARK    2  A    between atoms: N_5  and  C_6
REMARK    3  A    between atoms: C_9  and  S_10
REMARK    4  A    between atoms: S_10  and  O_13
REMARK    5  A    between atoms: O_13  and  C_14
REMARK                            x       y       z     vdW  Elec       q    Type
REMARK                         _______ _______ _______ _____ _____    ______ ____
ROOT
ATOM      1  C   UNL     1       2.535   6.745  19.184  0.00  0.00    +0.000 A 
ATOM      2  C   UNL     1       1.907   7.056  20.400  0.00  0.00    +0.000 A 
ATOM      3  C   UNL     1       1.307   8.301  20.624  0.00  0.00    +0.000 A 
ATOM      4  C   UNL     1       1.304   9.252  19.609  0.00  0.00    +0.000 A 
ATOM      5  C   UNL     1       1.897   8.963  18.378  0.00  0.00    +0.000 A 
ATOM      6  C   UNL     1       2.510   7.720  18.173  0.00  0.00    +0.000 A 
ENDROOT
BRANCH   1  11
ATOM      7  C   UNL     1       3.401   1.952  18.219  0.00  0.00    +0.000 C 
ATOM      8  N   UNL     1       3.617   3.291  18.708  0.00  0.00    +0.000 N 
ATOM      9  C   UNL     1       4.902   3.934  18.675  0.00  0.00    +0.000 C 
ATOM     10  C   UNL     1       4.606   5.298  19.276  0.00  0.00    +0.000 C 
ATOM     11  N   UNL     1       3.202   5.507  18.985  0.00  0.00    +0.000 N 
ATOM     12  C   UNL     1       2.597   4.259  18.686  0.00  0.00    +0.000 C 
ATOM     13  O   UNL     1       1.432   4.012  18.424  0.00  0.00    +0.000 OA
ENDBRANCH   1  11
BRANCH   4  14
ATOM     14  S   UNL     1       0.764  10.912  19.958  0.00  0.00    +0.000 S 
ATOM     15  O   UNL     1       1.548  11.387  21.083  0.00  0.00    +0.000 OA
ATOM     16  O   UNL     1       0.806  11.619  18.687  0.00  0.00    +0.000 OA
BRANCH  14  17
ATOM     17  O   UNL     1      -0.795  10.782  20.432  0.00  0.00    +0.000 OA
BRANCH  17  18
ATOM     18  C   UNL     1      -1.808  11.020  19.523  0.00  0.00    +0.000 A 
ATOM     19  C   UNL     1      -1.918  10.303  18.325  0.00  0.00    +0.000 A 
ATOM     20  C   UNL     1      -2.941  10.578  17.412  0.00  0.00    +0.000 A 
ATOM     21 CL   UNL     1      -2.961   9.674  15.940  0.00  0.00    +0.000 Cl
ATOM     22  C   UNL     1      -3.892  11.556  17.708  0.00  0.00    +0.000 A 
ATOM     23 CL   UNL     1      -5.182  11.942  16.629  0.00  0.00    +0.000 Cl
ATOM     24  C   UNL     1      -3.814  12.254  18.916  0.00  0.00    +0.000 A 
ATOM     25  C   UNL     1      -2.774  11.988  19.818  0.00  0.00    +0.000 A 
ATOM     26 CL   UNL     1      -2.718  12.895  21.286  0.00  0.00    +0.000 Cl
ENDBRANCH  17  18
ENDBRANCH  14  17
ENDBRANCH   4  14
TORSDOF 4
ENDMDL
MODEL 7
REMARK VINA RESULT:      -7.4      1.633      2.656
REMARK  Name = 
REMARK  5 active torsions:
REMARK  status: ('A' for Active; 'I' for Inactive)
REMARK    1  A    between atoms: C_1  and  N_2
REMARK    2  A    between atoms: N_5  and  C_6
REMARK    3  A    between atoms: C_9  and  S_10
REMARK    4  A    between atoms: S_10  and  O_13
REMARK    5  A    between atoms: O_13  and  C_14
REMARK                            x       y       z     vdW  Elec       q    Type
REMARK                         _______ _______ _______ _____ _____    ______ ____
ROOT
ATOM      1  C   UNL     1       2.419   6.954  18.710  0.00  0.00    +0.000 A 
ATOM      2  C   UNL     1       2.184   8.035  17.845  0.00  0.00    +0.000 A 
ATOM      3  C   UNL     1       1.596   9.224  18.294  0.00  0.00    +0.000 A 
ATOM      4  C   UNL     1       1.259   9.357  19.637  0.00  0.00    +0.000 A 
ATOM      5  C   UNL     1       1.504   8.309  20.526  0.00  0.00    +0.000 A 
ATOM      6  C   UNL     1       2.077   7.118  20.062  0.00  0.00    +0.000 A 
ENDROOT
BRANCH   1  11
ATOM      7  C   UNL     1       2.966   2.121  17.707  0.00  0.00    +0.000 C 
ATOM      8  N   UNL     1       3.312   3.507  17.904  0.00  0.00    +0.000 N 
ATOM      9  C   UNL     1       4.293   4.185  17.101  0.00  0.00    +0.000 C 
ATOM     10  C   UNL     1       4.283   5.590  17.681  0.00  0.00    +0.000 C 
ATOM     11  N   UNL     1       2.951   5.725  18.237  0.00  0.00    +0.000 N 
ATOM     12  C   UNL     1       2.387   4.435  18.414  0.00  0.00    +0.000 C 
ATOM     13  O   UNL     1       1.305   4.127  18.884  0.00  0.00    +0.000 OA
ENDBRANCH   1  11
BRANCH   4  14
ATOM     14  S   UNL     1       0.298  10.757  20.168  0.00  0.00    +0.000 S 
ATOM     15  O   UNL     1      -0.677  10.267  21.126  0.00  0.00    +0.000 OA
ATOM     16  O   UNL     1       1.262  11.775  20.561  0.00  0.00    +0.000 OA
BRANCH  14  17
ATOM     17  O   UNL     1      -0.500  11.280  18.841  0.00  0.00    +0.000 OA
BRANCH  17  18
ATOM     18  C   UNL     1      -1.856  11.536  18.914  0.00  0.00    +0.000 A 
ATOM     19  C   UNL     1      -2.398  12.416  19.860  0.00  0.00    +0.000 A 
ATOM     20  C   UNL     1      -3.777  12.641  19.927  0.00  0.00    +0.000 A 
ATOM     21 CL   UNL     1      -4.352  13.704  21.161  0.00  0.00    +0.000 Cl
ATOM     22  C   UNL     1      -4.628  12.011  19.017  0.00  0.00    +0.000 A 
ATOM     23 CL   UNL     1      -6.338  12.250  19.041  0.00  0.00    +0.000 Cl
ATOM     24  C   UNL     1      -4.096  11.159  18.045  0.00  0.00    +0.000 A 
ATOM     25  C   UNL     1      -2.715  10.921  17.997  0.00  0.00    +0.000 A 
ATOM     26 CL   UNL     1      -2.117   9.844  16.788  0.00  0.00    +0.000 Cl
ENDBRANCH  17  18
ENDBRANCH  14  17
ENDBRANCH   4  14
TORSDOF 4
ENDMDL
MODEL 8
REMARK VINA RESULT:      -7.3      1.057      2.327
REMARK  Name = 
REMARK  5 active torsions:
REMARK  status: ('A' for Active; 'I' for Inactive)
REMARK    1  A    between atoms: C_1  and  N_2
REMARK    2  A    between atoms: N_5  and  C_6
REMARK    3  A    between atoms: C_9  and  S_10
REMARK    4  A    between atoms: S_10  and  O_13
REMARK    5  A    between atoms: O_13  and  C_14
REMARK                            x       y       z     vdW  Elec       q    Type
REMARK                         _______ _______ _______ _____ _____    ______ ____
ROOT
ATOM      1  C   UNL     1       2.706   7.000  18.560  0.00  0.00    +0.000 A 
ATOM      2  C   UNL     1       2.292   6.933  19.900  0.00  0.00    +0.000 A 
ATOM      3  C   UNL     1       1.546   7.960  20.492  0.00  0.00    +0.000 A 
ATOM      4  C   UNL     1       1.176   9.065  19.733  0.00  0.00    +0.000 A 
ATOM      5  C   UNL     1       1.551   9.147  18.390  0.00  0.00    +0.000 A 
ATOM      6  C   UNL     1       2.312   8.122  17.813  0.00  0.00    +0.000 A 
ENDROOT
BRANCH   1  11
ATOM      7  C   UNL     1       6.499   4.696  16.331  0.00  0.00    +0.000 C 
ATOM      8  N   UNL     1       5.164   4.933  16.822  0.00  0.00    +0.000 N 
ATOM      9  C   UNL     1       4.335   3.890  17.360  0.00  0.00    +0.000 C 
ATOM     10  C   UNL     1       3.066   4.635  17.739  0.00  0.00    +0.000 C 
ATOM     11  N   UNL     1       3.520   5.990  17.982  0.00  0.00    +0.000 N 
ATOM     12  C   UNL     1       4.788   6.173  17.371  0.00  0.00    +0.000 C 
ATOM     13  O   UNL     1       5.480   7.176  17.321  0.00  0.00    +0.000 OA
ENDBRANCH   1  11
BRANCH   4  14
ATOM     14  S   UNL     1       0.443  10.476  20.531  0.00  0.00    +0.000 S 
ATOM     15  O   UNL     1      -0.655   9.984  21.344  0.00  0.00    +0.000 OA
ATOM     16  O   UNL     1       1.544  11.200  21.150  0.00  0.00    +0.000 OA
BRANCH  14  17
ATOM     17  O   UNL     1      -0.176  11.396  19.329  0.00  0.00    +0.000 OA
BRANCH  17  18
ATOM     18  C   UNL     1      -1.531  11.664  19.302  0.00  0.00    +0.000 A 
ATOM     19  C   UNL     1      -2.131  12.562  20.195  0.00  0.00    +0.000 A 
ATOM     20  C   UNL     1      -3.509  12.799  20.160  0.00  0.00    +0.000 A 
ATOM     21 CL   UNL     1      -4.161  13.884  21.336  0.00  0.00    +0.000 Cl
ATOM     22  C   UNL     1      -4.299  12.165  19.200  0.00  0.00    +0.000 A 
ATOM     23 CL   UNL     1      -6.003  12.418  19.098  0.00  0.00    +0.000 Cl
ATOM     24  C   UNL     1      -3.707  11.295  18.280  0.00  0.00    +0.000 A 
ATOM     25  C   UNL     1      -2.328  11.044  18.334  0.00  0.00    +0.000 A 
ATOM     26 CL   UNL     1      -1.656   9.946  17.185  0.00  0.00    +0.000 Cl
ENDBRANCH  17  18
ENDBRANCH  14  17
ENDBRANCH   4  14
TORSDOF 4
ENDMDL
MODEL 9
REMARK VINA RESULT:      -7.3      4.813      8.677
REMARK  Name = 
REMARK  5 active torsions:
REMARK  status: ('A' for Active; 'I' for Inactive)
REMARK    1  A    between atoms: C_1  and  N_2
REMARK    2  A    between atoms: N_5  and  C_6
REMARK    3  A    between atoms: C_9  and  S_10
REMARK    4  A    between atoms: S_10  and  O_13
REMARK    5  A    between atoms: O_13  and  C_14
REMARK                            x       y       z     vdW  Elec       q    Type
REMARK                         _______ _______ _______ _____ _____    ______ ____
ROOT
ATOM      1  C   UNL     1       1.984   7.321  19.735  0.00  0.00    +0.000 A 
ATOM      2  C   UNL     1       2.194   6.165  20.502  0.00  0.00    +0.000 A 
ATOM      3  C   UNL     1       2.724   4.995  19.942  0.00  0.00    +0.000 A 
ATOM      4  C   UNL     1       3.081   4.979  18.598  0.00  0.00    +0.000 A 
ATOM      5  C   UNL     1       2.909   6.123  17.816  0.00  0.00    +0.000 A 
ATOM      6  C   UNL     1       2.361   7.281  18.382  0.00  0.00    +0.000 A 
ENDROOT
BRANCH   1  11
ATOM      7  C   UNL     1      -0.196  11.763  20.158  0.00  0.00    +0.000 C 
ATOM      8  N   UNL     1       0.533  10.576  20.530  0.00  0.00    +0.000 N 
ATOM      9  C   UNL     1       0.398   9.951  21.817  0.00  0.00    +0.000 C 
ATOM     10  C   UNL     1       1.340   8.763  21.710  0.00  0.00    +0.000 C 
ATOM     11  N   UNL     1       1.383   8.483  20.288  0.00  0.00    +0.000 N 
ATOM     12  C   UNL     1       0.931   9.623  19.575  0.00  0.00    +0.000 C 
ATOM     13  O   UNL     1       0.852   9.795  18.370  0.00  0.00    +0.000 OA
ENDBRANCH   1  11
BRANCH   4  14
ATOM     14  S   UNL     1       3.525   3.440  17.823  0.00  0.00    +0.000 S 
ATOM     15  O   UNL     1       3.887   2.517  18.884  0.00  0.00    +0.000 OA
ATOM     16  O   UNL     1       2.432   3.121  16.918  0.00  0.00    +0.000 OA
BRANCH  14  17
ATOM     17  O   UNL     1       4.862   3.757  16.936  0.00  0.00    +0.000 OA
BRANCH  17  18
ATOM     18  C   UNL     1       5.739   4.741  17.350  0.00  0.00    +0.000 A 
ATOM     19  C   UNL     1       6.454   4.645  18.551  0.00  0.00    +0.000 A 
ATOM     20  C   UNL     1       7.319   5.665  18.958  0.00  0.00    +0.000 A 
ATOM     21 CL   UNL     1       8.115   5.477  20.479  0.00  0.00    +0.000 Cl
ATOM     22  C   UNL     1       7.509   6.782  18.141  0.00  0.00    +0.000 A 
ATOM     23 CL   UNL     1       8.567   8.073  18.580  0.00  0.00    +0.000 Cl
ATOM     24  C   UNL     1       6.830   6.873  16.923  0.00  0.00    +0.000 A 
ATOM     25  C   UNL     1       5.946   5.857  16.532  0.00  0.00    +0.000 A 
ATOM     26 CL   UNL     1       5.120   6.032  15.027  0.00  0.00    +0.000 Cl
ENDBRANCH  17  18
ENDBRANCH  14  17
ENDBRANCH   4  14
TORSDOF 4
ENDMDL
