MODEL 1
REMARK VINA RESULT:      -7.2      0.000      0.000
REMARK  Name = 
REMARK  3 active torsions:
REMARK  status: ('A' for Active; 'I' for Inactive)
REMARK    1  A    between atoms: C_1  and  C_2
REMARK    2  A    between atoms: N_18  and  C_19
REMARK    3  A    between atoms: C_29  and  C_30
REMARK                            x       y       z     vdW  Elec       q    Type
REMARK                         _______ _______ _______ _____ _____    ______ ____
ROOT
ATOM      1  C   UNL     1       0.734  18.570  20.457  0.00  0.00    +0.000 C 
ATOM      2  C   UNL     1       2.210  18.457  20.820  0.00  0.00    +0.000 C 
ATOM      3  C   UNL     1       2.492  17.498  21.994  0.00  0.00    +0.000 C 
ATOM      4  N   UNL     1       2.598  16.113  21.552  0.00  0.00    +0.000 N 
ATOM      5  C   UNL     1       1.585  15.211  21.824  0.00  0.00    +0.000 A 
ATOM      6  N   UNL     1       0.518  15.631  22.508  0.00  0.00    +0.000 NA
ATOM      7  C   UNL     1      -0.475  14.766  22.734  0.00  0.00    +0.000 A 
ATOM      8  N   UNL     1      -1.613  15.193  23.389  0.00  0.00    +0.000 N 
ATOM      9  C   UNL     1      -1.587  16.333  24.311  0.00  0.00    +0.000 C 
ATOM     10  C   UNL     1      -2.614  16.025  25.425  0.00  0.00    +0.000 C 
ATOM     11  O   UNL     1      -3.937  15.768  24.891  0.00  0.00    +0.000 OA
ATOM     12  C   UNL     1      -3.903  14.674  23.959  0.00  0.00    +0.000 C 
ATOM     13  C   UNL     1      -2.943  14.976  22.797  0.00  0.00    +0.000 C 
ATOM     14  C   UNL     1      -0.354  13.420  22.365  0.00  0.00    +0.000 A 
ATOM     15  C   UNL     1      -1.310  12.424  22.651  0.00  0.00    +0.000 A 
ATOM     16  C   UNL     1      -1.139  11.127  22.241  0.00  0.00    +0.000 A 
ATOM     17  C   UNL     1       0.025  10.818  21.584  0.00  0.00    +0.000 A 
ATOM     18  N   UNL     1       0.113   9.500  21.085  0.00  0.00    +0.000 N 
ATOM     19  N   UNL     1       0.970  11.764  21.338  0.00  0.00    +0.000 NA
ATOM     20  C   UNL     1       0.798  13.052  21.702  0.00  0.00    +0.000 A 
ATOM     21  N   UNL     1       1.740  13.941  21.414  0.00  0.00    +0.000 NA
ATOM     22  C   UNL     1       3.508  15.882  20.435  0.00  0.00    +0.000 C 
ATOM     23  C   UNL     1       3.227  16.857  19.270  0.00  0.00    +0.000 C 
ATOM     24  C   UNL     1       2.115  16.392  18.334  0.00  0.00    +0.000 C 
ATOM     25  O   UNL     1       3.046  18.226  19.673  0.00  0.00    +0.000 OA
ATOM     26  H   UNL     1      -0.225   8.807  21.740  0.00  0.00    +0.000 HD
ENDROOT
BRANCH  18  27
ATOM     27  C   UNL     1       0.961   9.007  20.084  0.00  0.00    +0.000 A 
ATOM     28  C   UNL     1       1.087   9.653  18.847  0.00  0.00    +0.000 A 
ATOM     29  C   UNL     1       1.925   9.157  17.861  0.00  0.00    +0.000 A 
ATOM     30  C   UNL     1       2.631   7.982  18.083  0.00  0.00    +0.000 A 
ATOM     31  C   UNL     1       2.480   7.293  19.281  0.00  0.00    +0.000 A 
ATOM     32  C   UNL     1       1.638   7.795  20.276  0.00  0.00    +0.000 A 
ENDBRANCH  18  27
TORSDOF 1
ENDMDL
MODEL 2
REMARK VINA RESULT:      -7.0      5.296     10.223
REMARK  Name = 
REMARK  3 active torsions:
REMARK  status: ('A' for Active; 'I' for Inactive)
REMARK    1  A    between atoms: C_1  and  C_2
REMARK    2  A    between atoms: N_18  and  C_19
REMARK    3  A    between atoms: C_29  and  C_30
REMARK                            x       y       z     vdW  Elec       q    Type
REMARK                         _______ _______ _______ _____ _____    ______ ____
ROOT
ATOM      1  C   UNL     1       7.165   4.321  17.857  0.00  0.00    +0.000 C 
ATOM      2  C   UNL     1       6.928   4.740  16.411  0.00  0.00    +0.000 C 
ATOM      3  C   UNL     1       5.439   4.839  16.026  0.00  0.00    +0.000 C 
ATOM      4  N   UNL     1       4.868   6.130  16.388  0.00  0.00    +0.000 N 
ATOM      5  C   UNL     1       3.996   6.237  17.456  0.00  0.00    +0.000 A 
ATOM      6  N   UNL     1       3.679   5.134  18.139  0.00  0.00    +0.000 NA
ATOM      7  C   UNL     1       2.868   5.249  19.194  0.00  0.00    +0.000 A 
ATOM      8  N   UNL     1       2.572   4.133  19.949  0.00  0.00    +0.000 N 
ATOM      9  C   UNL     1       2.631   2.782  19.381  0.00  0.00    +0.000 C 
ATOM     10  C   UNL     1       1.518   1.962  20.070  0.00  0.00    +0.000 C 
ATOM     11  O   UNL     1       1.650   1.966  21.514  0.00  0.00    +0.000 OA
ATOM     12  C   UNL     1       1.633   3.312  22.019  0.00  0.00    +0.000 C 
ATOM     13  C   UNL     1       2.775   4.139  21.408  0.00  0.00    +0.000 C 
ATOM     14  C   UNL     1       2.268   6.476  19.510  0.00  0.00    +0.000 A 
ATOM     15  C   UNL     1       1.329   6.663  20.544  0.00  0.00    +0.000 A 
ATOM     16  C   UNL     1       0.796   7.897  20.815  0.00  0.00    +0.000 A 
ATOM     17  C   UNL     1       1.173   8.941  20.007  0.00  0.00    +0.000 A 
ATOM     18  N   UNL     1       0.688  10.210  20.387  0.00  0.00    +0.000 N 
ATOM     19  N   UNL     1       2.050   8.761  18.983  0.00  0.00    +0.000 NA
ATOM     20  C   UNL     1       2.609   7.560  18.730  0.00  0.00    +0.000 A 
ATOM     21  N   UNL     1       3.480   7.446  17.734  0.00  0.00    +0.000 NA
ATOM     22  C   UNL     1       5.622   7.294  15.934  0.00  0.00    +0.000 C 
ATOM     23  C   UNL     1       7.116   7.179  16.312  0.00  0.00    +0.000 C 
ATOM     24  C   UNL     1       7.429   7.649  17.729  0.00  0.00    +0.000 C 
ATOM     25  O   UNL     1       7.699   5.893  16.035  0.00  0.00    +0.000 OA
ATOM     26  H   UNL     1      -0.284  10.194  20.667  0.00  0.00    +0.000 HD
ENDROOT
BRANCH  18  27
ATOM     27  C   UNL     1       1.178  11.471  20.018  0.00  0.00    +0.000 A 
ATOM     28  C   UNL     1       1.236  12.531  20.932  0.00  0.00    +0.000 A 
ATOM     29  C   UNL     1       1.718  13.775  20.558  0.00  0.00    +0.000 A 
ATOM     30  C   UNL     1       2.122  13.993  19.248  0.00  0.00    +0.000 A 
ATOM     31  C   UNL     1       2.023  12.972  18.309  0.00  0.00    +0.000 A 
ATOM     32  C   UNL     1       1.540  11.718  18.686  0.00  0.00    +0.000 A 
ENDBRANCH  18  27
TORSDOF 1
ENDMDL
MODEL 3
REMARK VINA RESULT:      -6.8      5.872      9.745
REMARK  Name = 
REMARK  3 active torsions:
REMARK  status: ('A' for Active; 'I' for Inactive)
REMARK    1  A    between atoms: C_1  and  C_2
REMARK    2  A    between atoms: N_18  and  C_19
REMARK    3  A    between atoms: C_29  and  C_30
REMARK                            x       y       z     vdW  Elec       q    Type
REMARK                         _______ _______ _______ _____ _____    ______ ____
ROOT
ATOM      1  C   UNL     1       8.776  12.270  24.688  0.00  0.00    +0.000 C 
ATOM      2  C   UNL     1       8.633  13.654  25.310  0.00  0.00    +0.000 C 
ATOM      3  C   UNL     1       8.958  14.809  24.342  0.00  0.00    +0.000 C 
ATOM      4  N   UNL     1       7.810  15.170  23.520  0.00  0.00    +0.000 N 
ATOM      5  C   UNL     1       7.776  14.834  22.179  0.00  0.00    +0.000 A 
ATOM      6  N   UNL     1       8.818  14.186  21.652  0.00  0.00    +0.000 NA
ATOM      7  C   UNL     1       8.762  13.829  20.366  0.00  0.00    +0.000 A 
ATOM      8  N   UNL     1       9.802  13.108  19.815  0.00  0.00    +0.000 N 
ATOM      9  C   UNL     1      11.161  13.179  20.361  0.00  0.00    +0.000 C 
ATOM     10  C   UNL     1      12.128  13.040  19.162  0.00  0.00    +0.000 C 
ATOM     11  O   UNL     1      11.891  11.824  18.409  0.00  0.00    +0.000 OA
ATOM     12  C   UNL     1      10.535  11.778  17.935  0.00  0.00    +0.000 C 
ATOM     13  C   UNL     1       9.544  11.842  19.108  0.00  0.00    +0.000 C 
ATOM     14  C   UNL     1       7.690  14.225  19.555  0.00  0.00    +0.000 A 
ATOM     15  C   UNL     1       7.599  13.974  18.171  0.00  0.00    +0.000 A 
ATOM     16  C   UNL     1       6.510  14.371  17.440  0.00  0.00    +0.000 A 
ATOM     17  C   UNL     1       5.526  15.070  18.095  0.00  0.00    +0.000 A 
ATOM     18  N   UNL     1       4.376  15.364  17.333  0.00  0.00    +0.000 N 
ATOM     19  N   UNL     1       5.624  15.349  19.423  0.00  0.00    +0.000 NA
ATOM     20  C   UNL     1       6.673  14.932  20.161  0.00  0.00    +0.000 A 
ATOM     21  N   UNL     1       6.705  15.209  21.459  0.00  0.00    +0.000 NA
ATOM     22  C   UNL     1       6.571  15.410  24.251  0.00  0.00    +0.000 C 
ATOM     23  C   UNL     1       6.260  14.254  25.228  0.00  0.00    +0.000 C 
ATOM     24  C   UNL     1       5.537  13.078  24.578  0.00  0.00    +0.000 C 
ATOM     25  O   UNL     1       7.388  13.820  26.010  0.00  0.00    +0.000 OA
ATOM     26  H   UNL     1       4.593  15.676  16.395  0.00  0.00    +0.000 HD
ENDROOT
BRANCH  18  27
ATOM     27  C   UNL     1       3.097  15.708  17.792  0.00  0.00    +0.000 A 
ATOM     28  C   UNL     1       2.255  14.762  18.392  0.00  0.00    +0.000 A 
ATOM     29  C   UNL     1       0.991  15.109  18.839  0.00  0.00    +0.000 A 
ATOM     30  C   UNL     1       0.529  16.407  18.664  0.00  0.00    +0.000 A 
ATOM     31  C   UNL     1       1.325  17.350  18.022  0.00  0.00    +0.000 A 
ATOM     32  C   UNL     1       2.600  17.000  17.574  0.00  0.00    +0.000 A 
ENDBRANCH  18  27
TORSDOF 1
ENDMDL
MODEL 4
REMARK VINA RESULT:      -6.8      1.037      1.093
REMARK  Name = 
REMARK  3 active torsions:
REMARK  status: ('A' for Active; 'I' for Inactive)
REMARK    1  A    between atoms: C_1  and  C_2
REMARK    2  A    between atoms: N_18  and  C_19
REMARK    3  A    between atoms: C_29  and  C_30
REMARK                            x       y       z     vdW  Elec       q    Type
REMARK                         _______ _______ _______ _____ _____    ______ ____
ROOT
ATOM      1  C   UNL     1       1.108  17.654  19.529  0.00  0.00    +0.000 C 
ATOM      2  C   UNL     1       2.562  17.596  19.982  0.00  0.00    +0.000 C 
ATOM      3  C   UNL     1       2.786  16.751  21.252  0.00  0.00    +0.000 C 
ATOM      4  N   UNL     1       2.930  15.334  20.945  0.00  0.00    +0.000 N 
ATOM      5  C   UNL     1       1.912  14.445  21.241  0.00  0.00    +0.000 A 
ATOM      6  N   UNL     1       0.804  14.909  21.824  0.00  0.00    +0.000 NA
ATOM      7  C   UNL     1      -0.192  14.054  22.071  0.00  0.00    +0.000 A 
ATOM      8  N   UNL     1      -1.369  14.521  22.620  0.00  0.00    +0.000 N 
ATOM      9  C   UNL     1      -1.407  15.739  23.435  0.00  0.00    +0.000 C 
ATOM     10  C   UNL     1      -2.492  15.518  24.513  0.00  0.00    +0.000 C 
ATOM     11  O   UNL     1      -3.781  15.194  23.931  0.00  0.00    +0.000 OA
ATOM     12  C   UNL     1      -3.683  14.021  23.106  0.00  0.00    +0.000 C 
ATOM     13  C   UNL     1      -2.662  14.232  21.977  0.00  0.00    +0.000 C 
ATOM     14  C   UNL     1      -0.037  12.681  21.834  0.00  0.00    +0.000 A 
ATOM     15  C   UNL     1      -0.998  11.701  22.155  0.00  0.00    +0.000 A 
ATOM     16  C   UNL     1      -0.791  10.375  21.875  0.00  0.00    +0.000 A 
ATOM     17  C   UNL     1       0.412  10.025  21.315  0.00  0.00    +0.000 A 
ATOM     18  N   UNL     1       0.541   8.670  20.944  0.00  0.00    +0.000 N 
ATOM     19  N   UNL     1       1.360  10.960  21.037  0.00  0.00    +0.000 NA
ATOM     20  C   UNL     1       1.154  12.272  21.273  0.00  0.00    +0.000 A 
ATOM     21  N   UNL     1       2.103  13.146  20.958  0.00  0.00    +0.000 NA
ATOM     22  C   UNL     1       3.905  15.017  19.906  0.00  0.00    +0.000 C 
ATOM     23  C   UNL     1       3.681  15.879  18.643  0.00  0.00    +0.000 C 
ATOM     24  C   UNL     1       2.629  15.314  17.693  0.00  0.00    +0.000 C 
ATOM     25  O   UNL     1       3.464  17.276  18.910  0.00  0.00    +0.000 OA
ATOM     26  H   UNL     1       0.173   8.034  21.639  0.00  0.00    +0.000 HD
ENDROOT
BRANCH  18  27
ATOM     27  C   UNL     1       1.449   8.102  20.041  0.00  0.00    +0.000 A 
ATOM     28  C   UNL     1       1.729   8.702  18.806  0.00  0.00    +0.000 A 
ATOM     29  C   UNL     1       2.625   8.132  17.917  0.00  0.00    +0.000 A 
ATOM     30  C   UNL     1       3.238   6.926  18.233  0.00  0.00    +0.000 A 
ATOM     31  C   UNL     1       2.936   6.283  19.428  0.00  0.00    +0.000 A 
ATOM     32  C   UNL     1       2.034   6.860  20.325  0.00  0.00    +0.000 A 
ENDBRANCH  18  27
TORSDOF 1
ENDMDL
MODEL 5
REMARK VINA RESULT:      -6.8      2.279      5.681
REMARK  Name = 
REMARK  3 active torsions:
REMARK  status: ('A' for Active; 'I' for Inactive)
REMARK    1  A    between atoms: C_1  and  C_2
REMARK    2  A    between atoms: N_18  and  C_19
REMARK    3  A    between atoms: C_29  and  C_30
REMARK                            x       y       z     vdW  Elec       q    Type
REMARK                         _______ _______ _______ _____ _____    ______ ____
ROOT
ATOM      1  C   UNL     1      -2.282  15.730  22.845  0.00  0.00    +0.000 C 
ATOM      2  C   UNL     1      -3.559  15.017  22.416  0.00  0.00    +0.000 C 
ATOM      3  C   UNL     1      -3.588  14.636  20.922  0.00  0.00    +0.000 C 
ATOM      4  N   UNL     1      -2.915  13.368  20.671  0.00  0.00    +0.000 N 
ATOM      5  C   UNL     1      -1.678  13.341  20.051  0.00  0.00    +0.000 A 
ATOM      6  N   UNL     1      -1.122  14.497  19.679  0.00  0.00    +0.000 NA
ATOM      7  C   UNL     1       0.090  14.468  19.117  0.00  0.00    +0.000 A 
ATOM      8  N   UNL     1       0.709  15.654  18.776  0.00  0.00    +0.000 N 
ATOM      9  C   UNL     1      -0.061  16.867  18.484  0.00  0.00    +0.000 C 
ATOM     10  C   UNL     1       0.720  17.635  17.394  0.00  0.00    +0.000 C 
ATOM     11  O   UNL     1       2.082  17.922  17.798  0.00  0.00    +0.000 OA
ATOM     12  C   UNL     1       2.781  16.708  18.118  0.00  0.00    +0.000 C 
ATOM     13  C   UNL     1       2.071  15.951  19.251  0.00  0.00    +0.000 C 
ATOM     14  C   UNL     1       0.716  13.251  18.818  0.00  0.00    +0.000 A 
ATOM     15  C   UNL     1       1.947  13.130  18.141  0.00  0.00    +0.000 A 
ATOM     16  C   UNL     1       2.515  11.906  17.899  0.00  0.00    +0.000 A 
ATOM     17  C   UNL     1       1.816  10.793  18.295  0.00  0.00    +0.000 A 
ATOM     18  N   UNL     1       2.485   9.562  18.126  0.00  0.00    +0.000 N 
ATOM     19  N   UNL     1       0.610  10.900  18.915  0.00  0.00    +0.000 NA
ATOM     20  C   UNL     1       0.058  12.098  19.192  0.00  0.00    +0.000 A 
ATOM     21  N   UNL     1      -1.110  12.146  19.823  0.00  0.00    +0.000 NA
ATOM     22  C   UNL     1      -3.337  12.259  21.520  0.00  0.00    +0.000 C 
ATOM     23  C   UNL     1      -3.317  12.655  23.013  0.00  0.00    +0.000 C 
ATOM     24  C   UNL     1      -1.948  12.510  23.669  0.00  0.00    +0.000 C 
ATOM     25  O   UNL     1      -3.911  13.935  23.294  0.00  0.00    +0.000 OA
ATOM     26  H   UNL     1       2.965   9.492  17.238  0.00  0.00    +0.000 HD
ENDROOT
BRANCH  18  27
ATOM     27  C   UNL     1       2.218   8.338  18.754  0.00  0.00    +0.000 A 
ATOM     28  C   UNL     1       1.757   8.277  20.075  0.00  0.00    +0.000 A 
ATOM     29  C   UNL     1       1.499   7.063  20.691  0.00  0.00    +0.000 A 
ATOM     30  C   UNL     1       1.729   5.878  20.003  0.00  0.00    +0.000 A 
ATOM     31  C   UNL     1       2.238   5.911  18.709  0.00  0.00    +0.000 A 
ATOM     32  C   UNL     1       2.495   7.135  18.089  0.00  0.00    +0.000 A 
ENDBRANCH  18  27
TORSDOF 1
ENDMDL
MODEL 6
REMARK VINA RESULT:      -6.7      0.913      1.303
REMARK  Name = 
REMARK  3 active torsions:
REMARK  status: ('A' for Active; 'I' for Inactive)
REMARK    1  A    between atoms: C_1  and  C_2
REMARK    2  A    between atoms: N_18  and  C_19
REMARK    3  A    between atoms: C_29  and  C_30
REMARK                            x       y       z     vdW  Elec       q    Type
REMARK                         _______ _______ _______ _____ _____    ______ ____
ROOT
ATOM      1  C   UNL     1       2.320  18.482  20.223  0.00  0.00    +0.000 C 
ATOM      2  C   UNL     1       3.676  18.116  20.815  0.00  0.00    +0.000 C 
ATOM      3  C   UNL     1       3.592  17.157  22.020  0.00  0.00    +0.000 C 
ATOM      4  N   UNL     1       3.511  15.764  21.601  0.00  0.00    +0.000 N 
ATOM      5  C   UNL     1       2.321  15.067  21.710  0.00  0.00    +0.000 A 
ATOM      6  N   UNL     1       1.255  15.693  22.216  0.00  0.00    +0.000 NA
ATOM      7  C   UNL     1       0.099  15.027  22.282  0.00  0.00    +0.000 A 
ATOM      8  N   UNL     1      -1.030  15.671  22.748  0.00  0.00    +0.000 N 
ATOM      9  C   UNL     1      -0.941  16.814  23.662  0.00  0.00    +0.000 C 
ATOM     10  C   UNL     1      -2.167  16.730  24.599  0.00  0.00    +0.000 C 
ATOM     11  O   UNL     1      -3.416  16.699  23.862  0.00  0.00    +0.000 OA
ATOM     12  C   UNL     1      -3.437  15.590  22.948  0.00  0.00    +0.000 C 
ATOM     13  C   UNL     1      -2.269  15.680  21.953  0.00  0.00    +0.000 C 
ATOM     14  C   UNL     1       0.028  13.671  21.938  0.00  0.00    +0.000 A 
ATOM     15  C   UNL     1      -1.127  12.872  22.069  0.00  0.00    +0.000 A 
ATOM     16  C   UNL     1      -1.133  11.554  21.693  0.00  0.00    +0.000 A 
ATOM     17  C   UNL     1       0.044  11.021  21.229  0.00  0.00    +0.000 A 
ATOM     18  N   UNL     1      -0.034   9.695  20.752  0.00  0.00    +0.000 N 
ATOM     19  N   UNL     1       1.172  11.775  21.135  0.00  0.00    +0.000 NA
ATOM     20  C   UNL     1       1.182  13.082  21.467  0.00  0.00    +0.000 A 
ATOM     21  N   UNL     1       2.304  13.778  21.331  0.00  0.00    +0.000 NA
ATOM     22  C   UNL     1       4.527  15.340  20.643  0.00  0.00    +0.000 C 
ATOM     23  C   UNL     1       4.613  16.315  19.447  0.00  0.00    +0.000 C 
ATOM     24  C   UNL     1       3.595  16.029  18.348  0.00  0.00    +0.000 C 
ATOM     25  O   UNL     1       4.624  17.705  19.816  0.00  0.00    +0.000 OA
ATOM     26  H   UNL     1      -0.591   9.094  21.345  0.00  0.00    +0.000 HD
ENDROOT
BRANCH  18  27
ATOM     27  C   UNL     1       0.855   9.028  19.898  0.00  0.00    +0.000 A 
ATOM     28  C   UNL     1       1.594   7.919  20.331  0.00  0.00    +0.000 A 
ATOM     29  C   UNL     1       2.475   7.268  19.482  0.00  0.00    +0.000 A 
ATOM     30  C   UNL     1       2.658   7.736  18.188  0.00  0.00    +0.000 A 
ATOM     31  C   UNL     1       1.977   8.867  17.752  0.00  0.00    +0.000 A 
ATOM     32  C   UNL     1       1.088   9.522  18.607  0.00  0.00    +0.000 A 
ENDBRANCH  18  27
TORSDOF 1
ENDMDL
MODEL 7
REMARK VINA RESULT:      -6.6      2.906      3.413
REMARK  Name = 
REMARK  3 active torsions:
REMARK  status: ('A' for Active; 'I' for Inactive)
REMARK    1  A    between atoms: C_1  and  C_2
REMARK    2  A    between atoms: N_18  and  C_19
REMARK    3  A    between atoms: C_29  and  C_30
REMARK                            x       y       z     vdW  Elec       q    Type
REMARK                         _______ _______ _______ _____ _____    ______ ____
ROOT
ATOM      1  C   UNL     1       2.776  17.377  21.265  0.00  0.00    +0.000 C 
ATOM      2  C   UNL     1       3.717  16.178  21.300  0.00  0.00    +0.000 C 
ATOM      3  C   UNL     1       3.141  14.955  22.041  0.00  0.00    +0.000 C 
ATOM      4  N   UNL     1       2.298  14.141  21.174  0.00  0.00    +0.000 N 
ATOM      5  C   UNL     1       0.924  14.146  21.327  0.00  0.00    +0.000 A 
ATOM      6  N   UNL     1       0.388  14.900  22.291  0.00  0.00    +0.000 NA
ATOM      7  C   UNL     1      -0.942  14.931  22.409  0.00  0.00    +0.000 A 
ATOM      8  N   UNL     1      -1.521  15.748  23.359  0.00  0.00    +0.000 N 
ATOM      9  C   UNL     1      -0.800  16.146  24.573  0.00  0.00    +0.000 C 
ATOM     10  C   UNL     1      -1.853  16.250  25.700  0.00  0.00    +0.000 C 
ATOM     11  O   UNL     1      -2.925  17.165  25.361  0.00  0.00    +0.000 OA
ATOM     12  C   UNL     1      -3.571  16.760  24.143  0.00  0.00    +0.000 C 
ATOM     13  C   UNL     1      -2.565  16.715  22.981  0.00  0.00    +0.000 C 
ATOM     14  C   UNL     1      -1.755  14.107  21.619  0.00  0.00    +0.000 A 
ATOM     15  C   UNL     1      -3.155  14.008  21.745  0.00  0.00    +0.000 A 
ATOM     16  C   UNL     1      -3.894  13.195  20.924  0.00  0.00    +0.000 A 
ATOM     17  C   UNL     1      -3.214  12.438  20.003  0.00  0.00    +0.000 A 
ATOM     18  N   UNL     1      -4.018  11.700  19.109  0.00  0.00    +0.000 N 
ATOM     19  N   UNL     1      -1.859  12.499  19.901  0.00  0.00    +0.000 NA
ATOM     20  C   UNL     1      -1.124  13.322  20.677  0.00  0.00    +0.000 A 
ATOM     21  N   UNL     1       0.193  13.361  20.517  0.00  0.00    +0.000 NA
ATOM     22  C   UNL     1       2.895  13.767  19.896  0.00  0.00    +0.000 C 
ATOM     23  C   UNL     1       3.481  14.998  19.168  0.00  0.00    +0.000 C 
ATOM     24  C   UNL     1       2.454  15.776  18.351  0.00  0.00    +0.000 C 
ATOM     25  O   UNL     1       4.264  15.866  20.007  0.00  0.00    +0.000 OA
ATOM     26  H   UNL     1      -4.802  11.249  19.562  0.00  0.00    +0.000 HD
ENDROOT
BRANCH  18  27
ATOM     27  C   UNL     1      -3.659  11.158  17.867  0.00  0.00    +0.000 A 
ATOM     28  C   UNL     1      -4.339  11.503  16.692  0.00  0.00    +0.000 A 
ATOM     29  C   UNL     1      -3.981  10.959  15.469  0.00  0.00    +0.000 A 
ATOM     30  C   UNL     1      -2.950  10.031  15.402  0.00  0.00    +0.000 A 
ATOM     31  C   UNL     1      -2.296   9.631  16.562  0.00  0.00    +0.000 A 
ATOM     32  C   UNL     1      -2.656  10.181  17.794  0.00  0.00    +0.000 A 
ENDBRANCH  18  27
TORSDOF 1
ENDMDL
MODEL 8
REMARK VINA RESULT:      -6.5      5.614      9.219
REMARK  Name = 
REMARK  3 active torsions:
REMARK  status: ('A' for Active; 'I' for Inactive)
REMARK    1  A    between atoms: C_1  and  C_2
REMARK    2  A    between atoms: N_18  and  C_19
REMARK    3  A    between atoms: C_29  and  C_30
REMARK                            x       y       z     vdW  Elec       q    Type
REMARK                         _______ _______ _______ _____ _____    ______ ____
ROOT
ATOM      1  C   UNL     1       8.998  12.184  24.688  0.00  0.00    +0.000 C 
ATOM      2  C   UNL     1       8.288  13.199  25.575  0.00  0.00    +0.000 C 
ATOM      3  C   UNL     1       8.111  14.583  24.921  0.00  0.00    +0.000 C 
ATOM      4  N   UNL     1       6.923  14.639  24.078  0.00  0.00    +0.000 N 
ATOM      5  C   UNL     1       7.041  14.652  22.699  0.00  0.00    +0.000 A 
ATOM      6  N   UNL     1       8.263  14.625  22.160  0.00  0.00    +0.000 NA
ATOM      7  C   UNL     1       8.370  14.597  20.829  0.00  0.00    +0.000 A 
ATOM      8  N   UNL     1       9.620  14.511  20.249  0.00  0.00    +0.000 N 
ATOM      9  C   UNL     1      10.823  14.989  20.940  0.00  0.00    +0.000 C 
ATOM     10  C   UNL     1      11.769  15.543  19.851  0.00  0.00    +0.000 C 
ATOM     11  O   UNL     1      12.065  14.555  18.831  0.00  0.00    +0.000 OA
ATOM     12  C   UNL     1      10.854  14.084  18.216  0.00  0.00    +0.000 C 
ATOM     13  C   UNL     1       9.917  13.460  19.262  0.00  0.00    +0.000 C 
ATOM     14  C   UNL     1       7.237  14.711  20.013  0.00  0.00    +0.000 A 
ATOM     15  C   UNL     1       7.270  14.787  18.605  0.00  0.00    +0.000 A 
ATOM     16  C   UNL     1       6.119  14.877  17.865  0.00  0.00    +0.000 A 
ATOM     17  C   UNL     1       4.930  14.941  18.547  0.00  0.00    +0.000 A 
ATOM     18  N   UNL     1       3.767  14.922  17.747  0.00  0.00    +0.000 N 
ATOM     19  N   UNL     1       4.892  14.907  19.906  0.00  0.00    +0.000 NA
ATOM     20  C   UNL     1       6.014  14.781  20.645  0.00  0.00    +0.000 A 
ATOM     21  N   UNL     1       5.918  14.726  21.968  0.00  0.00    +0.000 NA
ATOM     22  C   UNL     1       5.690  14.177  24.706  0.00  0.00    +0.000 C 
ATOM     23  C   UNL     1       5.881  12.795  25.371  0.00  0.00    +0.000 C 
ATOM     24  C   UNL     1       5.717  11.623  24.409  0.00  0.00    +0.000 C 
ATOM     25  O   UNL     1       7.081  12.677  26.157  0.00  0.00    +0.000 OA
ATOM     26  H   UNL     1       3.842  15.511  16.927  0.00  0.00    +0.000 HD
ENDROOT
BRANCH  18  27
ATOM     27  C   UNL     1       2.458  14.601  18.130  0.00  0.00    +0.000 A 
ATOM     28  C   UNL     1       1.557  15.586  18.557  0.00  0.00    +0.000 A 
ATOM     29  C   UNL     1       0.265  15.260  18.938  0.00  0.00    +0.000 A 
ATOM     30  C   UNL     1      -0.142  13.932  18.930  0.00  0.00    +0.000 A 
ATOM     31  C   UNL     1       0.750  12.931  18.562  0.00  0.00    +0.000 A 
ATOM     32  C   UNL     1       2.051  13.260  18.176  0.00  0.00    +0.000 A 
ENDBRANCH  18  27
TORSDOF 1
ENDMDL
MODEL 9
REMARK VINA RESULT:      -6.5      1.561      1.960
REMARK  Name = 
REMARK  3 active torsions:
REMARK  status: ('A' for Active; 'I' for Inactive)
REMARK    1  A    between atoms: C_1  and  C_2
REMARK    2  A    between atoms: N_18  and  C_19
REMARK    3  A    between atoms: C_29  and  C_30
REMARK                            x       y       z     vdW  Elec       q    Type
REMARK                         _______ _______ _______ _____ _____    ______ ____
ROOT
ATOM      1  C   UNL     1       0.180  16.545  19.344  0.00  0.00    +0.000 C 
ATOM      2  C   UNL     1       1.661  16.678  19.680  0.00  0.00    +0.000 C 
ATOM      3  C   UNL     1       2.072  15.960  20.981  0.00  0.00    +0.000 C 
ATOM      4  N   UNL     1       2.352  14.548  20.759  0.00  0.00    +0.000 N 
ATOM      5  C   UNL     1       1.466  13.580  21.196  0.00  0.00    +0.000 A 
ATOM      6  N   UNL     1       0.358  13.965  21.834  0.00  0.00    +0.000 NA
ATOM      7  C   UNL     1      -0.513  13.029  22.219  0.00  0.00    +0.000 A 
ATOM      8  N   UNL     1      -1.692  13.407  22.829  0.00  0.00    +0.000 N 
ATOM      9  C   UNL     1      -1.807  14.673  23.561  0.00  0.00    +0.000 C 
ATOM     10  C   UNL     1      -2.779  14.418  24.737  0.00  0.00    +0.000 C 
ATOM     11  O   UNL     1      -4.061  13.915  24.286  0.00  0.00    +0.000 OA
ATOM     12  C   UNL     1      -3.893  12.700  23.535  0.00  0.00    +0.000 C 
ATOM     13  C   UNL     1      -2.988  12.933  22.315  0.00  0.00    +0.000 C 
ATOM     14  C   UNL     1      -0.223  11.667  22.062  0.00  0.00    +0.000 A 
ATOM     15  C   UNL     1      -1.041  10.616  22.526  0.00  0.00    +0.000 A 
ATOM     16  C   UNL     1      -0.706   9.303  22.319  0.00  0.00    +0.000 A 
ATOM     17  C   UNL     1       0.484   9.043  21.687  0.00  0.00    +0.000 A 
ATOM     18  N   UNL     1       0.737   7.685  21.399  0.00  0.00    +0.000 N 
ATOM     19  N   UNL     1       1.297  10.050  21.271  0.00  0.00    +0.000 NA
ATOM     20  C   UNL     1       0.962  11.347  21.434  0.00  0.00    +0.000 A 
ATOM     21  N   UNL     1       1.781  12.291  20.985  0.00  0.00    +0.000 NA
ATOM     22  C   UNL     1       3.277  14.260  19.668  0.00  0.00    +0.000 C 
ATOM     23  C   UNL     1       2.865  14.994  18.372  0.00  0.00    +0.000 C 
ATOM     24  C   UNL     1       1.816  14.250  17.551  0.00  0.00    +0.000 C 
ATOM     25  O   UNL     1       2.512  16.376  18.561  0.00  0.00    +0.000 OA
ATOM     26  H   UNL     1       0.495   7.067  22.163  0.00  0.00    +0.000 HD
ENDROOT
BRANCH  18  27
ATOM     27  C   UNL     1       1.634   7.151  20.465  0.00  0.00    +0.000 A 
ATOM     28  C   UNL     1       2.009   7.863  19.318  0.00  0.00    +0.000 A 
ATOM     29  C   UNL     1       2.894   7.326  18.397  0.00  0.00    +0.000 A 
ATOM     30  C   UNL     1       3.399   6.047  18.590  0.00  0.00    +0.000 A 
ATOM     31  C   UNL     1       2.999   5.299  19.692  0.00  0.00    +0.000 A 
ATOM     32  C   UNL     1       2.109   5.841  20.621  0.00  0.00    +0.000 A 
ENDBRANCH  18  27
TORSDOF 1
ENDMDL
