MODEL 1
REMARK VINA RESULT:      -7.0      0.000      0.000
REMARK  Name = 
REMARK  8 active torsions:
REMARK  status: ('A' for Active; 'I' for Inactive)
REMARK    1  A    between atoms: C_1  and  C_2
REMARK    2  A    between atoms: C_2  and  C_3
REMARK    3  A    between atoms: C_3  and  C_4
REMARK    4  A    between atoms: C_4  and  C_5
REMARK    5  A    between atoms: C_9  and  O_10
REMARK    6  A    between atoms: O_10  and  C_11
REMARK    7  A    between atoms: C_11  and  C_12
REMARK    8  A    between atoms: N_16  and  C_17
REMARK                            x       y       z     vdW  Elec       q    Type
REMARK                         _______ _______ _______ _____ _____    ______ ____
ROOT
ATOM      1  C   UNL     1       6.669   4.916  16.217  0.00  0.00    +0.000 A 
ATOM      2  C   UNL     1       7.628   4.590  17.176  0.00  0.00    +0.000 A 
ATOM      3  N   UNL     1       7.437   4.674  18.499  0.00  0.00    +0.000 NA
ATOM      4  C   UNL     1       6.220   5.116  18.892  0.00  0.00    +0.000 A 
ATOM      5  C   UNL     1       5.186   5.503  18.035  0.00  0.00    +0.000 A 
ATOM      6  C   UNL     1       5.434   5.409  16.666  0.00  0.00    +0.000 A 
ENDROOT
BRANCH   1   7
ATOM      7  C   UNL     1       6.970   4.696  14.755  0.00  0.00    +0.000 C 
BRANCH   7   8
ATOM      8  C   UNL     1       5.802   3.983  14.060  0.00  0.00    +0.000 C 
BRANCH   8  10
ATOM      9  C   UNL     1       4.881   3.280  11.838  0.00  0.00    +0.000 C 
ATOM     10  C   UNL     1       6.148   3.527  12.646  0.00  0.00    +0.000 C 
ENDBRANCH   8  10
ENDBRANCH   7   8
ENDBRANCH   1   7
BRANCH   5  11
ATOM     11  O   UNL     1       3.950   5.949  18.452  0.00  0.00    +0.000 OA
BRANCH  11  12
ATOM     12  C   UNL     1       3.273   4.981  19.269  0.00  0.00    +0.000 C 
BRANCH  12  13
ATOM     13  C   UNL     1       2.845   3.690  18.550  0.00  0.00    +0.000 C 
ATOM     14  C   UNL     1       1.352   3.668  18.232  0.00  0.00    +0.000 C 
ATOM     15  C   UNL     1       0.694   2.934  19.399  0.00  0.00    +0.000 C 
ATOM     16  C   UNL     1       1.835   2.439  20.274  0.00  0.00    +0.000 C 
ATOM     17  N   UNL     1       2.990   2.467  19.376  0.00  0.00    +0.000 NA
ATOM     18  C   UNL     1       4.249   2.341  20.101  0.00  0.00    +0.000 C 
ENDBRANCH  12  13
ENDBRANCH  11  12
ENDBRANCH   5  11
TORSDOF 6
ENDMDL
MODEL 2
REMARK VINA RESULT:      -6.8      1.036      1.677
REMARK  Name = 
REMARK  8 active torsions:
REMARK  status: ('A' for Active; 'I' for Inactive)
REMARK    1  A    between atoms: C_1  and  C_2
REMARK    2  A    between atoms: C_2  and  C_3
REMARK    3  A    between atoms: C_3  and  C_4
REMARK    4  A    between atoms: C_4  and  C_5
REMARK    5  A    between atoms: C_9  and  O_10
REMARK    6  A    between atoms: O_10  and  C_11
REMARK    7  A    between atoms: C_11  and  C_12
REMARK    8  A    between atoms: N_16  and  C_17
REMARK                            x       y       z     vdW  Elec       q    Type
REMARK                         _______ _______ _______ _____ _____    ______ ____
ROOT
ATOM      1  C   UNL     1       5.832   4.633  15.683  0.00  0.00    +0.000 A 
ATOM      2  C   UNL     1       7.182   4.477  15.998  0.00  0.00    +0.000 A 
ATOM      3  N   UNL     1       7.706   4.671  17.216  0.00  0.00    +0.000 NA
ATOM      4  C   UNL     1       6.833   5.051  18.178  0.00  0.00    +0.000 A 
ATOM      5  C   UNL     1       5.466   5.271  17.988  0.00  0.00    +0.000 A 
ATOM      6  C   UNL     1       4.968   5.067  16.701  0.00  0.00    +0.000 A 
ENDROOT
BRANCH   1   7
ATOM      7  C   UNL     1       5.345   4.298  14.295  0.00  0.00    +0.000 C 
BRANCH   7   8
ATOM      8  C   UNL     1       6.520   3.913  13.385  0.00  0.00    +0.000 C 
BRANCH   8  10
ATOM      9  C   UNL     1       4.562   3.412  11.903  0.00  0.00    +0.000 C 
ATOM     10  C   UNL     1       6.065   3.251  12.087  0.00  0.00    +0.000 C 
ENDBRANCH   8  10
ENDBRANCH   7   8
ENDBRANCH   1   7
BRANCH   5  11
ATOM     11  O   UNL     1       4.590   5.655  18.980  0.00  0.00    +0.000 OA
BRANCH  11  12
ATOM     12  C   UNL     1       3.376   4.889  18.957  0.00  0.00    +0.000 C 
BRANCH  12  13
ATOM     13  C   UNL     1       3.355   3.654  19.873  0.00  0.00    +0.000 C 
ATOM     14  C   UNL     1       4.219   2.515  19.337  0.00  0.00    +0.000 C 
ATOM     15  C   UNL     1       3.271   1.622  18.537  0.00  0.00    +0.000 C 
ATOM     16  C   UNL     1       1.879   2.195  18.754  0.00  0.00    +0.000 C 
ATOM     17  N   UNL     1       2.027   2.999  19.968  0.00  0.00    +0.000 NA
ATOM     18  C   UNL     1       0.895   3.896  20.170  0.00  0.00    +0.000 C 
ENDBRANCH  12  13
ENDBRANCH  11  12
ENDBRANCH   5  11
TORSDOF 6
ENDMDL
MODEL 3
REMARK VINA RESULT:      -6.8      1.507      2.075
REMARK  Name = 
REMARK  8 active torsions:
REMARK  status: ('A' for Active; 'I' for Inactive)
REMARK    1  A    between atoms: C_1  and  C_2
REMARK    2  A    between atoms: C_2  and  C_3
REMARK    3  A    between atoms: C_3  and  C_4
REMARK    4  A    between atoms: C_4  and  C_5
REMARK    5  A    between atoms: C_9  and  O_10
REMARK    6  A    between atoms: O_10  and  C_11
REMARK    7  A    between atoms: C_11  and  C_12
REMARK    8  A    between atoms: N_16  and  C_17
REMARK                            x       y       z     vdW  Elec       q    Type
REMARK                         _______ _______ _______ _____ _____    ______ ____
ROOT
ATOM      1  C   UNL     1       5.334   4.793  15.713  0.00  0.00    +0.000 A 
ATOM      2  C   UNL     1       5.662   6.129  15.941  0.00  0.00    +0.000 A 
ATOM      3  N   UNL     1       5.873   6.665  17.151  0.00  0.00    +0.000 NA
ATOM      4  C   UNL     1       5.741   5.820  18.200  0.00  0.00    +0.000 A 
ATOM      5  C   UNL     1       5.387   4.470  18.110  0.00  0.00    +0.000 A 
ATOM      6  C   UNL     1       5.167   3.960  16.831  0.00  0.00    +0.000 A 
ENDROOT
BRANCH   1   7
ATOM      7  C   UNL     1       5.209   4.286  14.298  0.00  0.00    +0.000 C 
BRANCH   7   8
ATOM      8  C   UNL     1       6.594   4.051  13.680  0.00  0.00    +0.000 C 
BRANCH   8  10
ATOM      9  C   UNL     1       5.099   3.137  11.888  0.00  0.00    +0.000 C 
ATOM     10  C   UNL     1       6.518   3.567  12.235  0.00  0.00    +0.000 C 
ENDBRANCH   8  10
ENDBRANCH   7   8
ENDBRANCH   1   7
BRANCH   5  11
ATOM     11  O   UNL     1       5.260   3.622  19.189  0.00  0.00    +0.000 OA
BRANCH  11  12
ATOM     12  C   UNL     1       3.921   3.121  19.328  0.00  0.00    +0.000 C 
BRANCH  12  13
ATOM     13  C   UNL     1       2.919   4.082  19.988  0.00  0.00    +0.000 C 
ATOM     14  C   UNL     1       2.507   3.626  21.386  0.00  0.00    +0.000 C 
ATOM     15  C   UNL     1       1.222   2.823  21.194  0.00  0.00    +0.000 C 
ATOM     16  C   UNL     1       0.862   2.960  19.723  0.00  0.00    +0.000 C 
ATOM     17  N   UNL     1       1.607   4.147  19.300  0.00  0.00    +0.000 NA
ATOM     18  C   UNL     1       1.662   4.267  17.847  0.00  0.00    +0.000 C 
ENDBRANCH  12  13
ENDBRANCH  11  12
ENDBRANCH   5  11
TORSDOF 6
ENDMDL
MODEL 4
REMARK VINA RESULT:      -6.8      1.056      1.570
REMARK  Name = 
REMARK  8 active torsions:
REMARK  status: ('A' for Active; 'I' for Inactive)
REMARK    1  A    between atoms: C_1  and  C_2
REMARK    2  A    between atoms: C_2  and  C_3
REMARK    3  A    between atoms: C_3  and  C_4
REMARK    4  A    between atoms: C_4  and  C_5
REMARK    5  A    between atoms: C_9  and  O_10
REMARK    6  A    between atoms: O_10  and  C_11
REMARK    7  A    between atoms: C_11  and  C_12
REMARK    8  A    between atoms: N_16  and  C_17
REMARK                            x       y       z     vdW  Elec       q    Type
REMARK                         _______ _______ _______ _____ _____    ______ ____
ROOT
ATOM      1  C   UNL     1       6.216   4.910  16.221  0.00  0.00    +0.000 A 
ATOM      2  C   UNL     1       7.132   4.622  17.233  0.00  0.00    +0.000 A 
ATOM      3  N   UNL     1       6.851   4.648  18.543  0.00  0.00    +0.000 NA
ATOM      4  C   UNL     1       5.583   4.989  18.866  0.00  0.00    +0.000 A 
ATOM      5  C   UNL     1       4.580   5.330  17.953  0.00  0.00    +0.000 A 
ATOM      6  C   UNL     1       4.922   5.299  16.601  0.00  0.00    +0.000 A 
ENDROOT
BRANCH   1   7
ATOM      7  C   UNL     1       6.625   4.759  14.777  0.00  0.00    +0.000 C 
BRANCH   7   8
ATOM      8  C   UNL     1       5.622   3.882  14.016  0.00  0.00    +0.000 C 
BRANCH   8  10
ATOM      9  C   UNL     1       4.894   3.295  11.691  0.00  0.00    +0.000 C 
ATOM     10  C   UNL     1       6.088   3.548  12.602  0.00  0.00    +0.000 C 
ENDBRANCH   8  10
ENDBRANCH   7   8
ENDBRANCH   1   7
BRANCH   5  11
ATOM     11  O   UNL     1       3.291   5.673  18.300  0.00  0.00    +0.000 OA
BRANCH  11  12
ATOM     12  C   UNL     1       2.406   4.543  18.279  0.00  0.00    +0.000 C 
BRANCH  12  13
ATOM     13  C   UNL     1       1.334   4.520  19.381  0.00  0.00    +0.000 C 
ATOM     14  C   UNL     1       1.828   5.136  20.687  0.00  0.00    +0.000 C 
ATOM     15  C   UNL     1       2.347   3.967  21.523  0.00  0.00    +0.000 C 
ATOM     16  C   UNL     1       2.010   2.711  20.734  0.00  0.00    +0.000 C 
ATOM     17  N   UNL     1       0.955   3.155  19.821  0.00  0.00    +0.000 NA
ATOM     18  C   UNL     1       0.716   2.191  18.754  0.00  0.00    +0.000 C 
ENDBRANCH  12  13
ENDBRANCH  11  12
ENDBRANCH   5  11
TORSDOF 6
ENDMDL
MODEL 5
REMARK VINA RESULT:      -6.7      1.004      1.205
REMARK  Name = 
REMARK  8 active torsions:
REMARK  status: ('A' for Active; 'I' for Inactive)
REMARK    1  A    between atoms: C_1  and  C_2
REMARK    2  A    between atoms: C_2  and  C_3
REMARK    3  A    between atoms: C_3  and  C_4
REMARK    4  A    between atoms: C_4  and  C_5
REMARK    5  A    between atoms: C_9  and  O_10
REMARK    6  A    between atoms: O_10  and  C_11
REMARK    7  A    between atoms: C_11  and  C_12
REMARK    8  A    between atoms: N_16  and  C_17
REMARK                            x       y       z     vdW  Elec       q    Type
REMARK                         _______ _______ _______ _____ _____    ______ ____
ROOT
ATOM      1  C   UNL     1       6.393   5.145  16.072  0.00  0.00    +0.000 A 
ATOM      2  C   UNL     1       7.451   4.641  16.829  0.00  0.00    +0.000 A 
ATOM      3  N   UNL     1       7.444   4.529  18.164  0.00  0.00    +0.000 NA
ATOM      4  C   UNL     1       6.318   4.951  18.785  0.00  0.00    +0.000 A 
ATOM      5  C   UNL     1       5.202   5.503  18.148  0.00  0.00    +0.000 A 
ATOM      6  C   UNL     1       5.260   5.610  16.758  0.00  0.00    +0.000 A 
ENDROOT
BRANCH   1   7
ATOM      7  C   UNL     1       6.483   5.139  14.567  0.00  0.00    +0.000 C 
BRANCH   7   8
ATOM      8  C   UNL     1       6.233   3.729  14.013  0.00  0.00    +0.000 C 
BRANCH   8  10
ATOM      9  C   UNL     1       5.659   2.691  11.805  0.00  0.00    +0.000 C 
ATOM     10  C   UNL     1       5.247   3.721  12.848  0.00  0.00    +0.000 C 
ENDBRANCH   8  10
ENDBRANCH   7   8
ENDBRANCH   1   7
BRANCH   5  11
ATOM     11  O   UNL     1       4.062   5.925  18.795  0.00  0.00    +0.000 OA
BRANCH  11  12
ATOM     12  C   UNL     1       3.472   4.884  19.588  0.00  0.00    +0.000 C 
BRANCH  12  13
ATOM     13  C   UNL     1       1.997   4.573  19.283  0.00  0.00    +0.000 C 
ATOM     14  C   UNL     1       1.156   4.438  20.550  0.00  0.00    +0.000 C 
ATOM     15  C   UNL     1       1.138   2.945  20.874  0.00  0.00    +0.000 C 
ATOM     16  C   UNL     1       1.846   2.261  19.715  0.00  0.00    +0.000 C 
ATOM     17  N   UNL     1       1.781   3.254  18.642  0.00  0.00    +0.000 NA
ATOM     18  C   UNL     1       2.684   2.930  17.544  0.00  0.00    +0.000 C 
ENDBRANCH  12  13
ENDBRANCH  11  12
ENDBRANCH   5  11
TORSDOF 6
ENDMDL
MODEL 6
REMARK VINA RESULT:      -6.7      0.945      1.197
REMARK  Name = 
REMARK  8 active torsions:
REMARK  status: ('A' for Active; 'I' for Inactive)
REMARK    1  A    between atoms: C_1  and  C_2
REMARK    2  A    between atoms: C_2  and  C_3
REMARK    3  A    between atoms: C_3  and  C_4
REMARK    4  A    between atoms: C_4  and  C_5
REMARK    5  A    between atoms: C_9  and  O_10
REMARK    6  A    between atoms: O_10  and  C_11
REMARK    7  A    between atoms: C_11  and  C_12
REMARK    8  A    between atoms: N_16  and  C_17
REMARK                            x       y       z     vdW  Elec       q    Type
REMARK                         _______ _______ _______ _____ _____    ______ ____
ROOT
ATOM      1  C   UNL     1       6.494   4.814  16.307  0.00  0.00    +0.000 A 
ATOM      2  C   UNL     1       7.431   4.578  17.313  0.00  0.00    +0.000 A 
ATOM      3  N   UNL     1       7.205   4.763  18.620  0.00  0.00    +0.000 NA
ATOM      4  C   UNL     1       5.973   5.217  18.946  0.00  0.00    +0.000 A 
ATOM      5  C   UNL     1       4.957   5.521  18.036  0.00  0.00    +0.000 A 
ATOM      6  C   UNL     1       5.242   5.324  16.684  0.00  0.00    +0.000 A 
ENDROOT
BRANCH   1   7
ATOM      7  C   UNL     1       6.836   4.484  14.875  0.00  0.00    +0.000 C 
BRANCH   7   8
ATOM      8  C   UNL     1       5.562   4.235  14.055  0.00  0.00    +0.000 C 
BRANCH   8  10
ATOM      9  C   UNL     1       7.080   4.030  12.071  0.00  0.00    +0.000 C 
ATOM     10  C   UNL     1       5.836   3.481  12.757  0.00  0.00    +0.000 C 
ENDBRANCH   8  10
ENDBRANCH   7   8
ENDBRANCH   1   7
BRANCH   5  11
ATOM     11  O   UNL     1       3.706   5.981  18.385  0.00  0.00    +0.000 OA
BRANCH  11  12
ATOM     12  C   UNL     1       2.687   4.993  18.170  0.00  0.00    +0.000 C 
BRANCH  12  13
ATOM     13  C   UNL     1       2.908   3.646  18.879  0.00  0.00    +0.000 C 
ATOM     14  C   UNL     1       2.333   2.472  18.092  0.00  0.00    +0.000 C 
ATOM     15  C   UNL     1       0.930   2.247  18.655  0.00  0.00    +0.000 C 
ATOM     16  C   UNL     1       0.799   3.201  19.832  0.00  0.00    +0.000 C 
ATOM     17  N   UNL     1       2.187   3.521  20.169  0.00  0.00    +0.000 NA
ATOM     18  C   UNL     1       2.281   4.671  21.059  0.00  0.00    +0.000 C 
ENDBRANCH  12  13
ENDBRANCH  11  12
ENDBRANCH   5  11
TORSDOF 6
ENDMDL
MODEL 7
REMARK VINA RESULT:      -6.7      1.695      2.608
REMARK  Name = 
REMARK  8 active torsions:
REMARK  status: ('A' for Active; 'I' for Inactive)
REMARK    1  A    between atoms: C_1  and  C_2
REMARK    2  A    between atoms: C_2  and  C_3
REMARK    3  A    between atoms: C_3  and  C_4
REMARK    4  A    between atoms: C_4  and  C_5
REMARK    5  A    between atoms: C_9  and  O_10
REMARK    6  A    between atoms: O_10  and  C_11
REMARK    7  A    between atoms: C_11  and  C_12
REMARK    8  A    between atoms: N_16  and  C_17
REMARK                            x       y       z     vdW  Elec       q    Type
REMARK                         _______ _______ _______ _____ _____    ______ ____
ROOT
ATOM      1  C   UNL     1       5.742   4.349  14.498  0.00  0.00    +0.000 A 
ATOM      2  C   UNL     1       6.890   5.139  14.442  0.00  0.00    +0.000 A 
ATOM      3  N   UNL     1       7.579   5.555  15.513  0.00  0.00    +0.000 NA
ATOM      4  C   UNL     1       7.091   5.167  16.714  0.00  0.00    +0.000 A 
ATOM      5  C   UNL     1       5.936   4.403  16.909  0.00  0.00    +0.000 A 
ATOM      6  C   UNL     1       5.246   4.002  15.765  0.00  0.00    +0.000 A 
ENDROOT
BRANCH   1   7
ATOM      7  C   UNL     1       5.103   3.868  13.219  0.00  0.00    +0.000 C 
BRANCH   7   8
ATOM      8  C   UNL     1       6.152   3.246  12.287  0.00  0.00    +0.000 C 
BRANCH   8  10
ATOM      9  C   UNL     1       6.713   1.189  10.971  0.00  0.00    +0.000 C 
ATOM     10  C   UNL     1       5.591   2.097  11.454  0.00  0.00    +0.000 C 
ENDBRANCH   8  10
ENDBRANCH   7   8
ENDBRANCH   1   7
BRANCH   5  11
ATOM     11  O   UNL     1       5.455   4.014  18.140  0.00  0.00    +0.000 OA
BRANCH  11  12
ATOM     12  C   UNL     1       4.837   5.101  18.847  0.00  0.00    +0.000 C 
BRANCH  12  13
ATOM     13  C   UNL     1       3.536   4.754  19.589  0.00  0.00    +0.000 C 
ATOM     14  C   UNL     1       3.092   3.313  19.346  0.00  0.00    +0.000 C 
ATOM     15  C   UNL     1       2.109   3.377  18.178  0.00  0.00    +0.000 C 
ATOM     16  C   UNL     1       1.914   4.855  17.881  0.00  0.00    +0.000 C 
ATOM     17  N   UNL     1       2.353   5.512  19.113  0.00  0.00    +0.000 NA
ATOM     18  C   UNL     1       2.555   6.944  18.926  0.00  0.00    +0.000 C 
ENDBRANCH  12  13
ENDBRANCH  11  12
ENDBRANCH   5  11
TORSDOF 6
ENDMDL
MODEL 8
REMARK VINA RESULT:      -6.6      1.608      2.461
REMARK  Name = 
REMARK  8 active torsions:
REMARK  status: ('A' for Active; 'I' for Inactive)
REMARK    1  A    between atoms: C_1  and  C_2
REMARK    2  A    between atoms: C_2  and  C_3
REMARK    3  A    between atoms: C_3  and  C_4
REMARK    4  A    between atoms: C_4  and  C_5
REMARK    5  A    between atoms: C_9  and  O_10
REMARK    6  A    between atoms: O_10  and  C_11
REMARK    7  A    between atoms: C_11  and  C_12
REMARK    8  A    between atoms: N_16  and  C_17
REMARK                            x       y       z     vdW  Elec       q    Type
REMARK                         _______ _______ _______ _____ _____    ______ ____
ROOT
ATOM      1  C   UNL     1       6.470   4.223  13.876  0.00  0.00    +0.000 A 
ATOM      2  C   UNL     1       7.323   5.194  14.400  0.00  0.00    +0.000 A 
ATOM      3  N   UNL     1       7.343   5.575  15.684  0.00  0.00    +0.000 NA
ATOM      4  C   UNL     1       6.455   4.957  16.496  0.00  0.00    +0.000 A 
ATOM      5  C   UNL     1       5.527   3.992  16.092  0.00  0.00    +0.000 A 
ATOM      6  C   UNL     1       5.536   3.635  14.744  0.00  0.00    +0.000 A 
ENDROOT
BRANCH   1   7
ATOM      7  C   UNL     1       6.602   3.813  12.431  0.00  0.00    +0.000 C 
BRANCH   7   8
ATOM      8  C   UNL     1       5.329   3.105  11.947  0.00  0.00    +0.000 C 
BRANCH   8  10
ATOM      9  C   UNL     1       7.100   1.563  11.072  0.00  0.00    +0.000 C 
ATOM     10  C   UNL     1       5.612   1.729  11.351  0.00  0.00    +0.000 C 
ENDBRANCH   8  10
ENDBRANCH   7   8
ENDBRANCH   1   7
BRANCH   5  11
ATOM     11  O   UNL     1       4.630   3.370  16.933  0.00  0.00    +0.000 OA
BRANCH  11  12
ATOM     12  C   UNL     1       4.412   4.117  18.140  0.00  0.00    +0.000 C 
BRANCH  12  13
ATOM     13  C   UNL     1       3.706   3.354  19.274  0.00  0.00    +0.000 C 
ATOM     14  C   UNL     1       3.133   2.018  18.808  0.00  0.00    +0.000 C 
ATOM     15  C   UNL     1       1.678   2.302  18.439  0.00  0.00    +0.000 C 
ATOM     16  C   UNL     1       1.424   3.749  18.832  0.00  0.00    +0.000 C 
ATOM     17  N   UNL     1       2.494   4.034  19.791  0.00  0.00    +0.000 NA
ATOM     18  C   UNL     1       2.632   5.463  20.046  0.00  0.00    +0.000 C 
ENDBRANCH  12  13
ENDBRANCH  11  12
ENDBRANCH   5  11
TORSDOF 6
ENDMDL
MODEL 9
REMARK VINA RESULT:      -6.6      1.344      1.624
REMARK  Name = 
REMARK  8 active torsions:
REMARK  status: ('A' for Active; 'I' for Inactive)
REMARK    1  A    between atoms: C_1  and  C_2
REMARK    2  A    between atoms: C_2  and  C_3
REMARK    3  A    between atoms: C_3  and  C_4
REMARK    4  A    between atoms: C_4  and  C_5
REMARK    5  A    between atoms: C_9  and  O_10
REMARK    6  A    between atoms: O_10  and  C_11
REMARK    7  A    between atoms: C_11  and  C_12
REMARK    8  A    between atoms: N_16  and  C_17
REMARK                            x       y       z     vdW  Elec       q    Type
REMARK                         _______ _______ _______ _____ _____    ______ ____
ROOT
ATOM      1  C   UNL     1       6.055   5.531  16.586  0.00  0.00    +0.000 A 
ATOM      2  C   UNL     1       7.125   6.309  17.028  0.00  0.00    +0.000 A 
ATOM      3  N   UNL     1       7.593   6.313  18.283  0.00  0.00    +0.000 NA
ATOM      4  C   UNL     1       6.954   5.499  19.153  0.00  0.00    +0.000 A 
ATOM      5  C   UNL     1       5.853   4.693  18.846  0.00  0.00    +0.000 A 
ATOM      6  C   UNL     1       5.393   4.730  17.529  0.00  0.00    +0.000 A 
ENDROOT
BRANCH   1   7
ATOM      7  C   UNL     1       5.675   5.544  15.126  0.00  0.00    +0.000 C 
BRANCH   7   8
ATOM      8  C   UNL     1       6.621   4.652  14.310  0.00  0.00    +0.000 C 
BRANCH   8  10
ATOM      9  C   UNL     1       6.730   3.501  12.086  0.00  0.00    +0.000 C 
ATOM     10  C   UNL     1       5.878   3.757  13.322  0.00  0.00    +0.000 C 
ENDBRANCH   8  10
ENDBRANCH   7   8
ENDBRANCH   1   7
BRANCH   5  11
ATOM     11  O   UNL     1       5.214   3.866  19.744  0.00  0.00    +0.000 OA
BRANCH  11  12
ATOM     12  C   UNL     1       3.789   3.870  19.565  0.00  0.00    +0.000 C 
BRANCH  12  13
ATOM     13  C   UNL     1       3.107   2.494  19.654  0.00  0.00    +0.000 C 
ATOM     14  C   UNL     1       2.457   2.079  18.337  0.00  0.00    +0.000 C 
ATOM     15  C   UNL     1       0.999   2.525  18.439  0.00  0.00    +0.000 C 
ATOM     16  C   UNL     1       0.825   3.053  19.854  0.00  0.00    +0.000 C 
ATOM     17  N   UNL     1       1.949   2.458  20.580  0.00  0.00    +0.000 NA
ATOM     18  C   UNL     1       2.157   3.092  21.877  0.00  0.00    +0.000 C 
ENDBRANCH  12  13
ENDBRANCH  11  12
ENDBRANCH   5  11
TORSDOF 6
ENDMDL
