MODEL 1
REMARK VINA RESULT:      -8.6      0.000      0.000
REMARK  Name = 
REMARK  10 active torsions:
REMARK  status: ('A' for Active; 'I' for Inactive)
REMARK    1  A    between atoms: C_1  and  N_2
REMARK    2  A    between atoms: N_2  and  C_3
REMARK    3  A    between atoms: C_3  and  C_4
REMARK    4  A    between atoms: C_4  and  C_5
REMARK    5  A    between atoms: N_8  and  C_9
REMARK    6  A    between atoms: C_9  and  C_10
REMARK    7  A    between atoms: C_18  and  C_20
REMARK    8  A    between atoms: C_23  and  S_24
REMARK    9  A    between atoms: S_24  and  C_27
REMARK   10  A    between atoms: C_27  and  C_28
REMARK                            x       y       z     vdW  Elec       q    Type
REMARK                         _______ _______ _______ _____ _____    ______ ____
ROOT
ATOM      1  C   UNL     1       1.411   8.858  21.510  0.00  0.00    +0.000 C 
ATOM      2  N   UNL     1       1.072   9.605  20.308  0.00  0.00    +0.000 N 
ATOM      3  C   UNL     1       1.385   9.144  19.006  0.00  0.00    +0.000 C 
ATOM      4  O   UNL     1       0.896   9.672  18.000  0.00  0.00    +0.000 OA
ENDROOT
BRANCH   3   5
ATOM      5  C   UNL     1       2.273   7.950  18.754  0.00  0.00    +0.000 A 
ATOM      6  C   UNL     1       2.434   7.007  19.792  0.00  0.00    +0.000 A 
ATOM      7  C   UNL     1       3.272   5.892  19.640  0.00  0.00    +0.000 A 
ATOM      8  C   UNL     1       3.956   5.704  18.438  0.00  0.00    +0.000 A 
ATOM      9  C   UNL     1       3.799   6.613  17.394  0.00  0.00    +0.000 A 
ATOM     10  C   UNL     1       2.935   7.707  17.545  0.00  0.00    +0.000 A 
BRANCH   8  11
ATOM     11  S   UNL     1       5.071   4.322  18.242  0.00  0.00    +0.000 S 
ATOM     12  O   UNL     1       5.814   4.560  17.009  0.00  0.00    +0.000 OA
ATOM     13  O   UNL     1       5.752   4.179  19.512  0.00  0.00    +0.000 OA
BRANCH  11  14
ATOM     14  C   UNL     1       3.980   2.922  17.989  0.00  0.00    +0.000 C 
BRANCH  14  15
ATOM     15  C   UNL     1       2.997   2.856  19.135  0.00  0.00    +0.000 A 
ATOM     16  C   UNL     1       1.638   3.139  18.928  0.00  0.00    +0.000 A 
ATOM     17  C   UNL     1       0.739   3.129  19.995  0.00  0.00    +0.000 A 
ATOM     18  C   UNL     1       1.184   2.834  21.283  0.00  0.00    +0.000 A 
ATOM     19  C   UNL     1       2.527   2.540  21.500  0.00  0.00    +0.000 A 
ATOM     20  C   UNL     1       3.430   2.548  20.434  0.00  0.00    +0.000 A 
ENDBRANCH  14  15
ENDBRANCH  11  14
ENDBRANCH   8  11
ENDBRANCH   3   5
BRANCH   2  21
ATOM     21  C   UNL     1      -0.014  10.600  20.381  0.00  0.00    +0.000 C 
BRANCH  21  22
ATOM     22  C   UNL     1      -0.062  11.554  21.595  0.00  0.00    +0.000 C 
BRANCH  22  23
ATOM     23  C   UNL     1      -1.103  12.687  21.420  0.00  0.00    +0.000 C 
ATOM     24  C   UNL     1      -1.210  13.252  19.997  0.00  0.00    +0.000 C 
ATOM     25  C   UNL     1      -0.131  14.281  19.651  0.00  0.00    +0.000 C 
ATOM     26  N   UNL     1      -0.034  15.354  20.656  0.00  0.00    +0.000 NA
ATOM     27  C   UNL     1       0.257  14.784  21.978  0.00  0.00    +0.000 C 
ATOM     28  C   UNL     1      -0.870  13.843  22.408  0.00  0.00    +0.000 C 
BRANCH  26  29
ATOM     29  C   UNL     1       0.989  16.332  20.232  0.00  0.00    +0.000 C 
BRANCH  29  30
ATOM     30  C   UNL     1       0.633  17.150  19.005  0.00  0.00    +0.000 A 
ATOM     31  C   UNL     1       1.597  17.391  18.013  0.00  0.00    +0.000 A 
ATOM     32  C   UNL     1       1.269  18.105  16.859  0.00  0.00    +0.000 A 
ATOM     33  C   UNL     1      -0.029  18.578  16.679  0.00  0.00    +0.000 A 
ATOM     34  C   UNL     1      -0.994  18.354  17.659  0.00  0.00    +0.000 A 
ATOM     35  C   UNL     1      -0.665  17.648  18.817  0.00  0.00    +0.000 A 
ENDBRANCH  29  30
ENDBRANCH  26  29
ENDBRANCH  22  23
ENDBRANCH  21  22
ENDBRANCH   2  21
TORSDOF 9
ENDMDL
MODEL 2
REMARK VINA RESULT:      -8.5      3.562      5.560
REMARK  Name = 
REMARK  10 active torsions:
REMARK  status: ('A' for Active; 'I' for Inactive)
REMARK    1  A    between atoms: C_1  and  N_2
REMARK    2  A    between atoms: N_2  and  C_3
REMARK    3  A    between atoms: C_3  and  C_4
REMARK    4  A    between atoms: C_4  and  C_5
REMARK    5  A    between atoms: N_8  and  C_9
REMARK    6  A    between atoms: C_9  and  C_10
REMARK    7  A    between atoms: C_18  and  C_20
REMARK    8  A    between atoms: C_23  and  S_24
REMARK    9  A    between atoms: S_24  and  C_27
REMARK   10  A    between atoms: C_27  and  C_28
REMARK                            x       y       z     vdW  Elec       q    Type
REMARK                         _______ _______ _______ _____ _____    ______ ____
ROOT
ATOM      1  C   UNL     1       0.318  10.714  21.899  0.00  0.00    +0.000 C 
ATOM      2  N   UNL     1      -0.323  11.218  20.694  0.00  0.00    +0.000 N 
ATOM      3  C   UNL     1      -0.171  10.598  19.429  0.00  0.00    +0.000 C 
ATOM      4  O   UNL     1      -0.894  10.901  18.471  0.00  0.00    +0.000 OA
ENDROOT
BRANCH   3   5
ATOM      5  C   UNL     1       0.825   9.493  19.176  0.00  0.00    +0.000 A 
ATOM      6  C   UNL     1       1.389   9.385  17.887  0.00  0.00    +0.000 A 
ATOM      7  C   UNL     1       2.295   8.360  17.571  0.00  0.00    +0.000 A 
ATOM      8  C   UNL     1       2.652   7.431  18.550  0.00  0.00    +0.000 A 
ATOM      9  C   UNL     1       2.119   7.529  19.834  0.00  0.00    +0.000 A 
ATOM     10  C   UNL     1       1.240   8.575  20.148  0.00  0.00    +0.000 A 
BRANCH   8  11
ATOM     11  S   UNL     1       3.759   6.087  18.155  0.00  0.00    +0.000 S 
ATOM     12  O   UNL     1       4.424   6.450  16.908  0.00  0.00    +0.000 OA
ATOM     13  O   UNL     1       4.517   5.830  19.362  0.00  0.00    +0.000 OA
BRANCH  11  14
ATOM     14  C   UNL     1       2.662   4.706  17.834  0.00  0.00    +0.000 C 
BRANCH  14  15
ATOM     15  C   UNL     1       2.429   3.957  19.126  0.00  0.00    +0.000 A 
ATOM     16  C   UNL     1       3.448   3.170  19.688  0.00  0.00    +0.000 A 
ATOM     17  C   UNL     1       3.217   2.436  20.853  0.00  0.00    +0.000 A 
ATOM     18  C   UNL     1       1.970   2.480  21.473  0.00  0.00    +0.000 A 
ATOM     19  C   UNL     1       0.955   3.264  20.932  0.00  0.00    +0.000 A 
ATOM     20  C   UNL     1       1.182   4.001  19.766  0.00  0.00    +0.000 A 
ENDBRANCH  14  15
ENDBRANCH  11  14
ENDBRANCH   8  11
ENDBRANCH   3   5
BRANCH   2  21
ATOM     21  C   UNL     1      -1.514  12.076  20.837  0.00  0.00    +0.000 C 
BRANCH  21  22
ATOM     22  C   UNL     1      -2.292  12.043  22.170  0.00  0.00    +0.000 C 
BRANCH  22  23
ATOM     23  C   UNL     1      -2.992  13.389  22.484  0.00  0.00    +0.000 C 
ATOM     24  C   UNL     1      -4.182  13.288  23.448  0.00  0.00    +0.000 C 
ATOM     25  C   UNL     1      -5.487  12.842  22.783  0.00  0.00    +0.000 C 
ATOM     26  N   UNL     1      -5.816  13.647  21.593  0.00  0.00    +0.000 NA
ATOM     27  C   UNL     1      -4.728  13.565  20.610  0.00  0.00    +0.000 C 
ATOM     28  C   UNL     1      -3.434  14.122  21.207  0.00  0.00    +0.000 C 
BRANCH  26  29
ATOM     29  C   UNL     1      -7.107  13.193  21.037  0.00  0.00    +0.000 C 
BRANCH  29  30
ATOM     30  C   UNL     1      -7.145  11.745  20.587  0.00  0.00    +0.000 A 
ATOM     31  C   UNL     1      -7.834  10.787  21.348  0.00  0.00    +0.000 A 
ATOM     32  C   UNL     1      -7.913   9.460  20.922  0.00  0.00    +0.000 A 
ATOM     33  C   UNL     1      -7.311   9.077  19.725  0.00  0.00    +0.000 A 
ATOM     34  C   UNL     1      -6.616  10.015  18.964  0.00  0.00    +0.000 A 
ATOM     35  C   UNL     1      -6.529  11.340  19.394  0.00  0.00    +0.000 A 
ENDBRANCH  29  30
ENDBRANCH  26  29
ENDBRANCH  22  23
ENDBRANCH  21  22
ENDBRANCH   2  21
TORSDOF 9
ENDMDL
MODEL 3
REMARK VINA RESULT:      -8.5      3.287     10.835
REMARK  Name = 
REMARK  10 active torsions:
REMARK  status: ('A' for Active; 'I' for Inactive)
REMARK    1  A    between atoms: C_1  and  N_2
REMARK    2  A    between atoms: N_2  and  C_3
REMARK    3  A    between atoms: C_3  and  C_4
REMARK    4  A    between atoms: C_4  and  C_5
REMARK    5  A    between atoms: N_8  and  C_9
REMARK    6  A    between atoms: C_9  and  C_10
REMARK    7  A    between atoms: C_18  and  C_20
REMARK    8  A    between atoms: C_23  and  S_24
REMARK    9  A    between atoms: S_24  and  C_27
REMARK   10  A    between atoms: C_27  and  C_28
REMARK                            x       y       z     vdW  Elec       q    Type
REMARK                         _______ _______ _______ _____ _____    ______ ____
ROOT
ATOM      1  C   UNL     1       2.234   6.902  19.773  0.00  0.00    +0.000 C 
ATOM      2  N   UNL     1       2.313   7.567  18.481  0.00  0.00    +0.000 N 
ATOM      3  C   UNL     1       1.798   8.868  18.256  0.00  0.00    +0.000 C 
ATOM      4  O   UNL     1       2.071   9.501  17.229  0.00  0.00    +0.000 OA
ENDROOT
BRANCH   3   5
ATOM      5  C   UNL     1       0.945   9.594  19.267  0.00  0.00    +0.000 A 
ATOM      6  C   UNL     1      -0.185  10.300  18.803  0.00  0.00    +0.000 A 
ATOM      7  C   UNL     1      -1.002  11.027  19.683  0.00  0.00    +0.000 A 
ATOM      8  C   UNL     1      -0.700  11.048  21.045  0.00  0.00    +0.000 A 
ATOM      9  C   UNL     1       0.402  10.344  21.527  0.00  0.00    +0.000 A 
ATOM     10  C   UNL     1       1.194   9.596  20.645  0.00  0.00    +0.000 A 
BRANCH   8  11
ATOM     11  S   UNL     1      -1.694  12.010  22.174  0.00  0.00    +0.000 S 
ATOM     12  O   UNL     1      -2.849  12.477  21.415  0.00  0.00    +0.000 OA
ATOM     13  O   UNL     1      -1.855  11.192  23.358  0.00  0.00    +0.000 OA
BRANCH  11  14
ATOM     14  C   UNL     1      -0.659  13.423  22.561  0.00  0.00    +0.000 C 
BRANCH  14  15
ATOM     15  C   UNL     1      -0.033  13.933  21.284  0.00  0.00    +0.000 A 
ATOM     16  C   UNL     1      -0.808  14.610  20.330  0.00  0.00    +0.000 A 
ATOM     17  C   UNL     1      -0.242  15.036  19.127  0.00  0.00    +0.000 A 
ATOM     18  C   UNL     1       1.105  14.794  18.862  0.00  0.00    +0.000 A 
ATOM     19  C   UNL     1       1.887  14.133  19.805  0.00  0.00    +0.000 A 
ATOM     20  C   UNL     1       1.325  13.706  21.011  0.00  0.00    +0.000 A 
ENDBRANCH  14  15
ENDBRANCH  11  14
ENDBRANCH   8  11
ENDBRANCH   3   5
BRANCH   2  21
ATOM     21  C   UNL     1       3.340   7.121  17.522  0.00  0.00    +0.000 C 
BRANCH  21  22
ATOM     22  C   UNL     1       4.823   7.412  17.838  0.00  0.00    +0.000 C 
BRANCH  22  23
ATOM     23  C   UNL     1       5.771   6.298  17.328  0.00  0.00    +0.000 C 
ATOM     24  C   UNL     1       5.214   5.455  16.173  0.00  0.00    +0.000 C 
ATOM     25  C   UNL     1       4.256   4.345  16.615  0.00  0.00    +0.000 C 
ATOM     26  N   UNL     1       4.826   3.501  17.679  0.00  0.00    +0.000 NA
ATOM     27  C   UNL     1       5.175   4.323  18.846  0.00  0.00    +0.000 C 
ATOM     28  C   UNL     1       6.227   5.364  18.462  0.00  0.00    +0.000 C 
BRANCH  26  29
ATOM     29  C   UNL     1       3.870   2.427  18.018  0.00  0.00    +0.000 C 
BRANCH  29  30
ATOM     30  C   UNL     1       2.955   2.722  19.191  0.00  0.00    +0.000 A 
ATOM     31  C   UNL     1       1.670   3.244  18.970  0.00  0.00    +0.000 A 
ATOM     32  C   UNL     1       0.803   3.478  20.039  0.00  0.00    +0.000 A 
ATOM     33  C   UNL     1       1.206   3.185  21.340  0.00  0.00    +0.000 A 
ATOM     34  C   UNL     1       2.482   2.676  21.574  0.00  0.00    +0.000 A 
ATOM     35  C   UNL     1       3.353   2.450  20.508  0.00  0.00    +0.000 A 
ENDBRANCH  29  30
ENDBRANCH  26  29
ENDBRANCH  22  23
ENDBRANCH  21  22
ENDBRANCH   2  21
TORSDOF 9
ENDMDL
MODEL 4
REMARK VINA RESULT:      -8.4      2.787      4.125
REMARK  Name = 
REMARK  10 active torsions:
REMARK  status: ('A' for Active; 'I' for Inactive)
REMARK    1  A    between atoms: C_1  and  N_2
REMARK    2  A    between atoms: N_2  and  C_3
REMARK    3  A    between atoms: C_3  and  C_4
REMARK    4  A    between atoms: C_4  and  C_5
REMARK    5  A    between atoms: N_8  and  C_9
REMARK    6  A    between atoms: C_9  and  C_10
REMARK    7  A    between atoms: C_18  and  C_20
REMARK    8  A    between atoms: C_23  and  S_24
REMARK    9  A    between atoms: S_24  and  C_27
REMARK   10  A    between atoms: C_27  and  C_28
REMARK                            x       y       z     vdW  Elec       q    Type
REMARK                         _______ _______ _______ _____ _____    ______ ____
ROOT
ATOM      1  C   UNL     1       1.122   8.643  21.520  0.00  0.00    +0.000 C 
ATOM      2  N   UNL     1       0.752   9.343  20.299  0.00  0.00    +0.000 N 
ATOM      3  C   UNL     1       1.217   8.948  19.020  0.00  0.00    +0.000 C 
ATOM      4  O   UNL     1       0.720   9.406  17.983  0.00  0.00    +0.000 OA
ENDROOT
BRANCH   3   5
ATOM      5  C   UNL     1       2.292   7.907  18.828  0.00  0.00    +0.000 A 
ATOM      6  C   UNL     1       3.099   7.986  17.672  0.00  0.00    +0.000 A 
ATOM      7  C   UNL     1       4.094   7.031  17.411  0.00  0.00    +0.000 A 
ATOM      8  C   UNL     1       4.298   5.985  18.314  0.00  0.00    +0.000 A 
ATOM      9  C   UNL     1       3.524   5.898  19.469  0.00  0.00    +0.000 A 
ATOM     10  C   UNL     1       2.554   6.874  19.736  0.00  0.00    +0.000 A 
BRANCH   8  11
ATOM     11  S   UNL     1       5.521   4.728  17.975  0.00  0.00    +0.000 S 
ATOM     12  O   UNL     1       6.532   5.352  17.128  0.00  0.00    +0.000 OA
ATOM     13  O   UNL     1       5.867   4.155  19.259  0.00  0.00    +0.000 OA
BRANCH  11  14
ATOM     14  C   UNL     1       4.631   3.515  17.000  0.00  0.00    +0.000 C 
BRANCH  14  15
ATOM     15  C   UNL     1       3.329   3.190  17.694  0.00  0.00    +0.000 A 
ATOM     16  C   UNL     1       3.263   2.155  18.640  0.00  0.00    +0.000 A 
ATOM     17  C   UNL     1       2.050   1.820  19.244  0.00  0.00    +0.000 A 
ATOM     18  C   UNL     1       0.888   2.515  18.913  0.00  0.00    +0.000 A 
ATOM     19  C   UNL     1       0.942   3.551  17.985  0.00  0.00    +0.000 A 
ATOM     20  C   UNL     1       2.155   3.890  17.380  0.00  0.00    +0.000 A 
ENDBRANCH  14  15
ENDBRANCH  11  14
ENDBRANCH   8  11
ENDBRANCH   3   5
BRANCH   2  21
ATOM     21  C   UNL     1      -0.476  10.158  20.299  0.00  0.00    +0.000 C 
BRANCH  21  22
ATOM     22  C   UNL     1      -0.348  11.688  20.464  0.00  0.00    +0.000 C 
BRANCH  22  23
ATOM     23  C   UNL     1      -0.314  12.126  21.949  0.00  0.00    +0.000 C 
ATOM     24  C   UNL     1      -1.444  11.555  22.817  0.00  0.00    +0.000 C 
ATOM     25  C   UNL     1      -2.770  12.310  22.693  0.00  0.00    +0.000 C 
ATOM     26  N   UNL     1      -2.610  13.761  22.894  0.00  0.00    +0.000 NA
ATOM     27  C   UNL     1      -1.658  14.306  21.917  0.00  0.00    +0.000 C 
ATOM     28  C   UNL     1      -0.285  13.657  22.099  0.00  0.00    +0.000 C 
BRANCH  26  29
ATOM     29  C   UNL     1      -3.932  14.416  22.810  0.00  0.00    +0.000 C 
BRANCH  29  30
ATOM     30  C   UNL     1      -4.104  15.641  23.687  0.00  0.00    +0.000 A 
ATOM     31  C   UNL     1      -5.358  16.265  23.790  0.00  0.00    +0.000 A 
ATOM     32  C   UNL     1      -5.539  17.367  24.628  0.00  0.00    +0.000 A 
ATOM     33  C   UNL     1      -4.471  17.853  25.379  0.00  0.00    +0.000 A 
ATOM     34  C   UNL     1      -3.219  17.250  25.279  0.00  0.00    +0.000 A 
ATOM     35  C   UNL     1      -3.035  16.154  24.435  0.00  0.00    +0.000 A 
ENDBRANCH  29  30
ENDBRANCH  26  29
ENDBRANCH  22  23
ENDBRANCH  21  22
ENDBRANCH   2  21
TORSDOF 9
ENDMDL
MODEL 5
REMARK VINA RESULT:      -8.4      2.764      4.337
REMARK  Name = 
REMARK  10 active torsions:
REMARK  status: ('A' for Active; 'I' for Inactive)
REMARK    1  A    between atoms: C_1  and  N_2
REMARK    2  A    between atoms: N_2  and  C_3
REMARK    3  A    between atoms: C_3  and  C_4
REMARK    4  A    between atoms: C_4  and  C_5
REMARK    5  A    between atoms: N_8  and  C_9
REMARK    6  A    between atoms: C_9  and  C_10
REMARK    7  A    between atoms: C_18  and  C_20
REMARK    8  A    between atoms: C_23  and  S_24
REMARK    9  A    between atoms: S_24  and  C_27
REMARK   10  A    between atoms: C_27  and  C_28
REMARK                            x       y       z     vdW  Elec       q    Type
REMARK                         _______ _______ _______ _____ _____    ______ ____
ROOT
ATOM      1  C   UNL     1       0.746   8.714  20.772  0.00  0.00    +0.000 C 
ATOM      2  N   UNL     1       0.945   9.592  19.628  0.00  0.00    +0.000 N 
ATOM      3  C   UNL     1       1.719   9.219  18.502  0.00  0.00    +0.000 C 
ATOM      4  O   UNL     1       1.692   9.876  17.454  0.00  0.00    +0.000 OA
ENDROOT
BRANCH   3   5
ATOM      5  C   UNL     1       2.571   7.974  18.473  0.00  0.00    +0.000 A 
ATOM      6  C   UNL     1       3.355   7.727  17.326  0.00  0.00    +0.000 A 
ATOM      7  C   UNL     1       4.144   6.571  17.217  0.00  0.00    +0.000 A 
ATOM      8  C   UNL     1       4.162   5.649  18.264  0.00  0.00    +0.000 A 
ATOM      9  C   UNL     1       3.408   5.880  19.413  0.00  0.00    +0.000 A 
ATOM     10  C   UNL     1       2.648   7.053  19.526  0.00  0.00    +0.000 A 
BRANCH   8  11
ATOM     11  S   UNL     1       5.115   4.145  18.123  0.00  0.00    +0.000 S 
ATOM     12  O   UNL     1       5.928   4.281  16.920  0.00  0.00    +0.000 OA
ATOM     13  O   UNL     1       5.724   3.938  19.421  0.00  0.00    +0.000 OA
BRANCH  11  14
ATOM     14  C   UNL     1       3.879   2.878  17.835  0.00  0.00    +0.000 C 
BRANCH  14  15
ATOM     15  C   UNL     1       2.937   2.838  19.016  0.00  0.00    +0.000 A 
ATOM     16  C   UNL     1       1.568   3.103  18.847  0.00  0.00    +0.000 A 
ATOM     17  C   UNL     1       0.706   3.117  19.945  0.00  0.00    +0.000 A 
ATOM     18  C   UNL     1       1.198   2.866  21.224  0.00  0.00    +0.000 A 
ATOM     19  C   UNL     1       2.551   2.593  21.405  0.00  0.00    +0.000 A 
ATOM     20  C   UNL     1       3.417   2.575  20.308  0.00  0.00    +0.000 A 
ENDBRANCH  14  15
ENDBRANCH  11  14
ENDBRANCH   8  11
ENDBRANCH   3   5
BRANCH   2  21
ATOM     21  C   UNL     1      -0.030  10.673  19.393  0.00  0.00    +0.000 C 
BRANCH  21  22
ATOM     22  C   UNL     1      -1.130  10.919  20.449  0.00  0.00    +0.000 C 
BRANCH  22  23
ATOM     23  C   UNL     1      -0.607  11.693  21.685  0.00  0.00    +0.000 C 
ATOM     24  C   UNL     1      -1.307  11.349  23.006  0.00  0.00    +0.000 C 
ATOM     25  C   UNL     1      -2.646  12.064  23.208  0.00  0.00    +0.000 C 
ATOM     26  N   UNL     1      -2.540  13.521  23.011  0.00  0.00    +0.000 NA
ATOM     27  C   UNL     1      -2.041  13.814  21.661  0.00  0.00    +0.000 C 
ATOM     28  C   UNL     1      -0.646  13.216  21.471  0.00  0.00    +0.000 C 
BRANCH  26  29
ATOM     29  C   UNL     1      -3.853  14.147  23.270  0.00  0.00    +0.000 C 
BRANCH  29  30
ATOM     30  C   UNL     1      -5.044  13.423  22.672  0.00  0.00    +0.000 A 
ATOM     31  C   UNL     1      -5.034  13.047  21.319  0.00  0.00    +0.000 A 
ATOM     32  C   UNL     1      -6.106  12.342  20.767  0.00  0.00    +0.000 A 
ATOM     33  C   UNL     1      -7.196  11.997  21.564  0.00  0.00    +0.000 A 
ATOM     34  C   UNL     1      -7.223  12.372  22.906  0.00  0.00    +0.000 A 
ATOM     35  C   UNL     1      -6.156  13.085  23.456  0.00  0.00    +0.000 A 
ENDBRANCH  29  30
ENDBRANCH  26  29
ENDBRANCH  22  23
ENDBRANCH  21  22
ENDBRANCH   2  21
TORSDOF 9
ENDMDL
MODEL 6
REMARK VINA RESULT:      -8.4      2.742      4.814
REMARK  Name = 
REMARK  10 active torsions:
REMARK  status: ('A' for Active; 'I' for Inactive)
REMARK    1  A    between atoms: C_1  and  N_2
REMARK    2  A    between atoms: N_2  and  C_3
REMARK    3  A    between atoms: C_3  and  C_4
REMARK    4  A    between atoms: C_4  and  C_5
REMARK    5  A    between atoms: N_8  and  C_9
REMARK    6  A    between atoms: C_9  and  C_10
REMARK    7  A    between atoms: C_18  and  C_20
REMARK    8  A    between atoms: C_23  and  S_24
REMARK    9  A    between atoms: S_24  and  C_27
REMARK   10  A    between atoms: C_27  and  C_28
REMARK                            x       y       z     vdW  Elec       q    Type
REMARK                         _______ _______ _______ _____ _____    ______ ____
ROOT
ATOM      1  C   UNL     1       1.040   9.921  18.769  0.00  0.00    +0.000 C 
ATOM      2  N   UNL     1       1.038   9.817  20.222  0.00  0.00    +0.000 N 
ATOM      3  C   UNL     1       1.426   8.639  20.906  0.00  0.00    +0.000 C 
ATOM      4  O   UNL     1       1.634   8.640  22.126  0.00  0.00    +0.000 OA
ENDROOT
BRANCH   3   5
ATOM      5  C   UNL     1       1.677   7.329  20.199  0.00  0.00    +0.000 A 
ATOM      6  C   UNL     1       1.381   6.133  20.887  0.00  0.00    +0.000 A 
ATOM      7  C   UNL     1       1.621   4.879  20.304  0.00  0.00    +0.000 A 
ATOM      8  C   UNL     1       2.158   4.809  19.017  0.00  0.00    +0.000 A 
ATOM      9  C   UNL     1       2.442   5.978  18.314  0.00  0.00    +0.000 A 
ATOM     10  C   UNL     1       2.169   7.226  18.893  0.00  0.00    +0.000 A 
BRANCH   8  11
ATOM     11  S   UNL     1       2.524   3.225  18.278  0.00  0.00    +0.000 S 
ATOM     12  O   UNL     1       1.733   2.237  19.003  0.00  0.00    +0.000 OA
ATOM     13  O   UNL     1       2.369   3.409  16.850  0.00  0.00    +0.000 OA
BRANCH  11  14
ATOM     14  C   UNL     1       4.255   2.962  18.662  0.00  0.00    +0.000 C 
BRANCH  14  15
ATOM     15  C   UNL     1       5.069   4.068  18.031  0.00  0.00    +0.000 A 
ATOM     16  C   UNL     1       5.759   4.992  18.832  0.00  0.00    +0.000 A 
ATOM     17  C   UNL     1       6.468   6.046  18.251  0.00  0.00    +0.000 A 
ATOM     18  C   UNL     1       6.499   6.188  16.865  0.00  0.00    +0.000 A 
ATOM     19  C   UNL     1       5.828   5.273  16.060  0.00  0.00    +0.000 A 
ATOM     20  C   UNL     1       5.118   4.216  16.637  0.00  0.00    +0.000 A 
ENDBRANCH  14  15
ENDBRANCH  11  14
ENDBRANCH   8  11
ENDBRANCH   3   5
BRANCH   2  21
ATOM     21  C   UNL     1       1.102  11.058  21.015  0.00  0.00    +0.000 C 
BRANCH  21  22
ATOM     22  C   UNL     1       1.467  12.376  20.298  0.00  0.00    +0.000 C 
BRANCH  22  23
ATOM     23  C   UNL     1       0.426  13.496  20.542  0.00  0.00    +0.000 C 
ATOM     24  C   UNL     1      -0.649  13.161  21.585  0.00  0.00    +0.000 C 
ATOM     25  C   UNL     1      -1.797  12.303  21.046  0.00  0.00    +0.000 C 
ATOM     26  N   UNL     1      -2.387  12.862  19.816  0.00  0.00    +0.000 NA
ATOM     27  C   UNL     1      -1.358  12.992  18.775  0.00  0.00    +0.000 C 
ATOM     28  C   UNL     1      -0.255  13.946  19.239  0.00  0.00    +0.000 C 
BRANCH  26  29
ATOM     29  C   UNL     1      -3.515  12.012  19.384  0.00  0.00    +0.000 C 
BRANCH  29  30
ATOM     30  C   UNL     1      -3.315  11.294  18.063  0.00  0.00    +0.000 A 
ATOM     31  C   UNL     1      -2.350  10.280  17.950  0.00  0.00    +0.000 A 
ATOM     32  C   UNL     1      -2.186   9.582  16.752  0.00  0.00    +0.000 A 
ATOM     33  C   UNL     1      -2.992   9.883  15.656  0.00  0.00    +0.000 A 
ATOM     34  C   UNL     1      -3.947  10.893  15.751  0.00  0.00    +0.000 A 
ATOM     35  C   UNL     1      -4.105  11.598  16.945  0.00  0.00    +0.000 A 
ENDBRANCH  29  30
ENDBRANCH  26  29
ENDBRANCH  22  23
ENDBRANCH  21  22
ENDBRANCH   2  21
TORSDOF 9
ENDMDL
MODEL 7
REMARK VINA RESULT:      -8.3      4.210     11.079
REMARK  Name = 
REMARK  10 active torsions:
REMARK  status: ('A' for Active; 'I' for Inactive)
REMARK    1  A    between atoms: C_1  and  N_2
REMARK    2  A    between atoms: N_2  and  C_3
REMARK    3  A    between atoms: C_3  and  C_4
REMARK    4  A    between atoms: C_4  and  C_5
REMARK    5  A    between atoms: N_8  and  C_9
REMARK    6  A    between atoms: C_9  and  C_10
REMARK    7  A    between atoms: C_18  and  C_20
REMARK    8  A    between atoms: C_23  and  S_24
REMARK    9  A    between atoms: S_24  and  C_27
REMARK   10  A    between atoms: C_27  and  C_28
REMARK                            x       y       z     vdW  Elec       q    Type
REMARK                         _______ _______ _______ _____ _____    ______ ____
ROOT
ATOM      1  C   UNL     1       2.346   9.095  17.936  0.00  0.00    +0.000 C 
ATOM      2  N   UNL     1       2.577   7.883  18.709  0.00  0.00    +0.000 N 
ATOM      3  C   UNL     1       1.922   7.623  19.939  0.00  0.00    +0.000 C 
ATOM      4  O   UNL     1       1.957   6.504  20.464  0.00  0.00    +0.000 OA
ENDROOT
BRANCH   3   5
ATOM      5  C   UNL     1       1.091   8.659  20.656  0.00  0.00    +0.000 A 
ATOM      6  C   UNL     1       0.292   9.527  19.881  0.00  0.00    +0.000 A 
ATOM      7  C   UNL     1      -0.479  10.536  20.480  0.00  0.00    +0.000 A 
ATOM      8  C   UNL     1      -0.462  10.684  21.868  0.00  0.00    +0.000 A 
ATOM      9  C   UNL     1       0.308   9.828  22.652  0.00  0.00    +0.000 A 
ATOM     10  C   UNL     1       1.049   8.803  22.048  0.00  0.00    +0.000 A 
BRANCH   8  11
ATOM     11  S   UNL     1      -1.391  11.996  22.645  0.00  0.00    +0.000 S 
ATOM     12  O   UNL     1      -2.319  11.355  23.570  0.00  0.00    +0.000 OA
ATOM     13  O   UNL     1      -0.410  12.954  23.111  0.00  0.00    +0.000 OA
BRANCH  11  14
ATOM     14  C   UNL     1      -2.332  12.713  21.298  0.00  0.00    +0.000 C 
BRANCH  14  15
ATOM     15  C   UNL     1      -3.635  13.248  21.845  0.00  0.00    +0.000 A 
ATOM     16  C   UNL     1      -4.860  12.685  21.452  0.00  0.00    +0.000 A 
ATOM     17  C   UNL     1      -6.066  13.212  21.916  0.00  0.00    +0.000 A 
ATOM     18  C   UNL     1      -6.066  14.307  22.779  0.00  0.00    +0.000 A 
ATOM     19  C   UNL     1      -4.858  14.868  23.184  0.00  0.00    +0.000 A 
ATOM     20  C   UNL     1      -3.649  14.342  22.724  0.00  0.00    +0.000 A 
ENDBRANCH  14  15
ENDBRANCH  11  14
ENDBRANCH   8  11
ENDBRANCH   3   5
BRANCH   2  21
ATOM     21  C   UNL     1       3.112   6.697  18.016  0.00  0.00    +0.000 C 
BRANCH  21  22
ATOM     22  C   UNL     1       4.100   6.906  16.848  0.00  0.00    +0.000 C 
BRANCH  22  23
ATOM     23  C   UNL     1       5.445   6.172  17.067  0.00  0.00    +0.000 C 
ATOM     24  C   UNL     1       5.514   4.758  16.475  0.00  0.00    +0.000 C 
ATOM     25  C   UNL     1       4.861   3.683  17.348  0.00  0.00    +0.000 C 
ATOM     26  N   UNL     1       5.350   3.715  18.737  0.00  0.00    +0.000 NA
ATOM     27  C   UNL     1       5.095   5.033  19.334  0.00  0.00    +0.000 C 
ATOM     28  C   UNL     1       5.838   6.118  18.553  0.00  0.00    +0.000 C 
BRANCH  26  29
ATOM     29  C   UNL     1       4.716   2.622  19.504  0.00  0.00    +0.000 C 
BRANCH  29  30
ATOM     30  C   UNL     1       3.232   2.793  19.768  0.00  0.00    +0.000 A 
ATOM     31  C   UNL     1       2.750   2.837  21.086  0.00  0.00    +0.000 A 
ATOM     32  C   UNL     1       1.392   3.038  21.342  0.00  0.00    +0.000 A 
ATOM     33  C   UNL     1       0.502   3.206  20.283  0.00  0.00    +0.000 A 
ATOM     34  C   UNL     1       0.965   3.155  18.970  0.00  0.00    +0.000 A 
ATOM     35  C   UNL     1       2.321   2.946  18.713  0.00  0.00    +0.000 A 
ENDBRANCH  29  30
ENDBRANCH  26  29
ENDBRANCH  22  23
ENDBRANCH  21  22
ENDBRANCH   2  21
TORSDOF 9
ENDMDL
MODEL 8
REMARK VINA RESULT:      -8.3      4.681     10.910
REMARK  Name = 
REMARK  10 active torsions:
REMARK  status: ('A' for Active; 'I' for Inactive)
REMARK    1  A    between atoms: C_1  and  N_2
REMARK    2  A    between atoms: N_2  and  C_3
REMARK    3  A    between atoms: C_3  and  C_4
REMARK    4  A    between atoms: C_4  and  C_5
REMARK    5  A    between atoms: N_8  and  C_9
REMARK    6  A    between atoms: C_9  and  C_10
REMARK    7  A    between atoms: C_18  and  C_20
REMARK    8  A    between atoms: C_23  and  S_24
REMARK    9  A    between atoms: S_24  and  C_27
REMARK   10  A    between atoms: C_27  and  C_28
REMARK                            x       y       z     vdW  Elec       q    Type
REMARK                         _______ _______ _______ _____ _____    ______ ____
ROOT
ATOM      1  C   UNL     1      -0.869  12.677  18.289  0.00  0.00    +0.000 C 
ATOM      2  N   UNL     1       0.206  13.063  19.192  0.00  0.00    +0.000 N 
ATOM      3  C   UNL     1       0.010  13.239  20.584  0.00  0.00    +0.000 C 
ATOM      4  O   UNL     1       0.966  13.344  21.362  0.00  0.00    +0.000 OA
ENDROOT
BRANCH   3   5
ATOM      5  C   UNL     1      -1.358  13.245  21.222  0.00  0.00    +0.000 A 
ATOM      6  C   UNL     1      -2.208  14.342  20.968  0.00  0.00    +0.000 A 
ATOM      7  C   UNL     1      -3.479  14.431  21.557  0.00  0.00    +0.000 A 
ATOM      8  C   UNL     1      -3.918  13.412  22.404  0.00  0.00    +0.000 A 
ATOM      9  C   UNL     1      -3.101  12.311  22.655  0.00  0.00    +0.000 A 
ATOM     10  C   UNL     1      -1.846  12.217  22.038  0.00  0.00    +0.000 A 
BRANCH   8  11
ATOM     11  S   UNL     1      -5.509  13.530  23.207  0.00  0.00    +0.000 S 
ATOM     12  O   UNL     1      -5.790  12.212  23.766  0.00  0.00    +0.000 OA
ATOM     13  O   UNL     1      -5.440  14.705  24.052  0.00  0.00    +0.000 OA
BRANCH  11  14
ATOM     14  C   UNL     1      -6.650  13.832  21.857  0.00  0.00    +0.000 C 
BRANCH  14  15
ATOM     15  C   UNL     1      -6.828  12.552  21.074  0.00  0.00    +0.000 A 
ATOM     16  C   UNL     1      -7.782  11.601  21.467  0.00  0.00    +0.000 A 
ATOM     17  C   UNL     1      -7.911  10.395  20.774  0.00  0.00    +0.000 A 
ATOM     18  C   UNL     1      -7.091  10.125  19.680  0.00  0.00    +0.000 A 
ATOM     19  C   UNL     1      -6.148  11.065  19.273  0.00  0.00    +0.000 A 
ATOM     20  C   UNL     1      -6.017  12.273  19.963  0.00  0.00    +0.000 A 
ENDBRANCH  14  15
ENDBRANCH  11  14
ENDBRANCH   8  11
ENDBRANCH   3   5
BRANCH   2  21
ATOM     21  C   UNL     1       1.598  12.811  18.777  0.00  0.00    +0.000 C 
BRANCH  21  22
ATOM     22  C   UNL     1       2.034  11.356  18.499  0.00  0.00    +0.000 C 
BRANCH  22  23
ATOM     23  C   UNL     1       0.878  10.342  18.685  0.00  0.00    +0.000 C 
ATOM     24  C   UNL     1       0.723   9.792  20.109  0.00  0.00    +0.000 C 
ATOM     25  C   UNL     1       1.688   8.653  20.447  0.00  0.00    +0.000 C 
ATOM     26  N   UNL     1       1.659   7.575  19.442  0.00  0.00    +0.000 NA
ATOM     27  C   UNL     1       1.998   8.110  18.116  0.00  0.00    +0.000 C 
ATOM     28  C   UNL     1       0.976   9.168  17.696  0.00  0.00    +0.000 C 
BRANCH  26  29
ATOM     29  C   UNL     1       2.574   6.492  19.858  0.00  0.00    +0.000 C 
BRANCH  29  30
ATOM     30  C   UNL     1       2.157   5.096  19.437  0.00  0.00    +0.000 A 
ATOM     31  C   UNL     1       1.241   4.369  20.215  0.00  0.00    +0.000 A 
ATOM     32  C   UNL     1       0.816   3.100  19.815  0.00  0.00    +0.000 A 
ATOM     33  C   UNL     1       1.294   2.548  18.629  0.00  0.00    +0.000 A 
ATOM     34  C   UNL     1       2.210   3.254  17.852  0.00  0.00    +0.000 A 
ATOM     35  C   UNL     1       2.643   4.519  18.256  0.00  0.00    +0.000 A 
ENDBRANCH  29  30
ENDBRANCH  26  29
ENDBRANCH  22  23
ENDBRANCH  21  22
ENDBRANCH   2  21
TORSDOF 9
ENDMDL
MODEL 9
REMARK VINA RESULT:      -8.3      3.483     10.895
REMARK  Name = 
REMARK  10 active torsions:
REMARK  status: ('A' for Active; 'I' for Inactive)
REMARK    1  A    between atoms: C_1  and  N_2
REMARK    2  A    between atoms: N_2  and  C_3
REMARK    3  A    between atoms: C_3  and  C_4
REMARK    4  A    between atoms: C_4  and  C_5
REMARK    5  A    between atoms: N_8  and  C_9
REMARK    6  A    between atoms: C_9  and  C_10
REMARK    7  A    between atoms: C_18  and  C_20
REMARK    8  A    between atoms: C_23  and  S_24
REMARK    9  A    between atoms: S_24  and  C_27
REMARK   10  A    between atoms: C_27  and  C_28
REMARK                            x       y       z     vdW  Elec       q    Type
REMARK                         _______ _______ _______ _____ _____    ______ ____
ROOT
ATOM      1  C   UNL     1       2.224   7.891  19.565  0.00  0.00    +0.000 C 
ATOM      2  N   UNL     1       1.328   7.485  20.638  0.00  0.00    +0.000 N 
ATOM      3  C   UNL     1       0.298   8.322  21.134  0.00  0.00    +0.000 C 
ATOM      4  O   UNL     1      -0.587   7.885  21.878  0.00  0.00    +0.000 OA
ENDROOT
BRANCH   3   5
ATOM      5  C   UNL     1       0.169   9.775  20.744  0.00  0.00    +0.000 A 
ATOM      6  C   UNL     1       0.077  10.736  21.773  0.00  0.00    +0.000 A 
ATOM      7  C   UNL     1      -0.081  12.101  21.483  0.00  0.00    +0.000 A 
ATOM      8  C   UNL     1      -0.142  12.520  20.153  0.00  0.00    +0.000 A 
ATOM      9  C   UNL     1      -0.037  11.589  19.122  0.00  0.00    +0.000 A 
ATOM     10  C   UNL     1       0.152  10.233  19.421  0.00  0.00    +0.000 A 
BRANCH   8  11
ATOM     11  S   UNL     1      -0.398  14.243  19.763  0.00  0.00    +0.000 S 
ATOM     12  O   UNL     1      -0.515  14.326  18.311  0.00  0.00    +0.000 OA
ATOM     13  O   UNL     1      -1.469  14.691  20.628  0.00  0.00    +0.000 OA
BRANCH  11  14
ATOM     14  C   UNL     1       1.137  15.029  20.256  0.00  0.00    +0.000 C 
BRANCH  14  15
ATOM     15  C   UNL     1       1.745  15.711  19.053  0.00  0.00    +0.000 A 
ATOM     16  C   UNL     1       2.816  15.121  18.363  0.00  0.00    +0.000 A 
ATOM     17  C   UNL     1       3.412  15.776  17.283  0.00  0.00    +0.000 A 
ATOM     18  C   UNL     1       2.946  17.025  16.877  0.00  0.00    +0.000 A 
ATOM     19  C   UNL     1       1.877  17.615  17.546  0.00  0.00    +0.000 A 
ATOM     20  C   UNL     1       1.277  16.963  18.626  0.00  0.00    +0.000 A 
ENDBRANCH  14  15
ENDBRANCH  11  14
ENDBRANCH   8  11
ENDBRANCH   3   5
BRANCH   2  21
ATOM     21  C   UNL     1       1.150   6.045  20.899  0.00  0.00    +0.000 C 
BRANCH  21  22
ATOM     22  C   UNL     1       2.368   5.109  20.740  0.00  0.00    +0.000 C 
BRANCH  22  23
ATOM     23  C   UNL     1       2.100   3.946  19.753  0.00  0.00    +0.000 C 
ATOM     24  C   UNL     1       3.192   2.868  19.713  0.00  0.00    +0.000 C 
ATOM     25  C   UNL     1       4.400   3.235  18.847  0.00  0.00    +0.000 C 
ATOM     26  N   UNL     1       4.011   3.666  17.493  0.00  0.00    +0.000 NA
ATOM     27  C   UNL     1       3.109   4.823  17.569  0.00  0.00    +0.000 C 
ATOM     28  C   UNL     1       1.833   4.450  18.325  0.00  0.00    +0.000 C 
BRANCH  26  29
ATOM     29  C   UNL     1       5.225   3.955  16.703  0.00  0.00    +0.000 C 
BRANCH  29  30
ATOM     30  C   UNL     1       6.112   5.053  17.258  0.00  0.00    +0.000 A 
ATOM     31  C   UNL     1       7.042   4.766  18.271  0.00  0.00    +0.000 A 
ATOM     32  C   UNL     1       7.894   5.758  18.759  0.00  0.00    +0.000 A 
ATOM     33  C   UNL     1       7.833   7.047  18.234  0.00  0.00    +0.000 A 
ATOM     34  C   UNL     1       6.909   7.349  17.236  0.00  0.00    +0.000 A 
ATOM     35  C   UNL     1       6.051   6.360  16.753  0.00  0.00    +0.000 A 
ENDBRANCH  29  30
ENDBRANCH  26  29
ENDBRANCH  22  23
ENDBRANCH  21  22
ENDBRANCH   2  21
TORSDOF 9
ENDMDL
