MODEL 1
REMARK VINA RESULT:      -9.1      0.000      0.000
REMARK  Name = 
REMARK  5 active torsions:
REMARK  status: ('A' for Active; 'I' for Inactive)
REMARK    1  A    between atoms: C_1  and  C_2
REMARK    2  A    between atoms: N_8  and  C_9
REMARK    3  A    between atoms: C_9  and  C_10
REMARK    4  A    between atoms: C_25  and  C_26
REMARK    5  A    between atoms: C_25  and  C_27
REMARK                            x       y       z     vdW  Elec       q    Type
REMARK                         _______ _______ _______ _____ _____    ______ ____
ROOT
ATOM      1  C   UNL     1       4.919   5.348  16.499  0.00  0.00    +0.000 C 
ATOM      2  C   UNL     1       3.987   6.006  17.482  0.00  0.00    +0.000 A 
ATOM      3  N   UNL     1       3.669   7.290  17.189  0.00  0.00    +0.000 NA
ATOM      4  C   UNL     1       2.824   7.863  18.061  0.00  0.00    +0.000 A 
ATOM      5  O   UNL     1       2.411   9.158  17.942  0.00  0.00    +0.000 OA
ATOM      6  C   UNL     1       1.600   9.407  19.007  0.00  0.00    +0.000 A 
ATOM      7  C   UNL     1       1.009  10.610  19.373  0.00  0.00    +0.000 A 
ATOM      8  N   UNL     1       1.212  11.766  18.646  0.00  0.00    +0.000 N 
ATOM      9  N   UNL     1       0.283  10.600  20.517  0.00  0.00    +0.000 NA
ATOM     10  C   UNL     1       0.165   9.444  21.203  0.00  0.00    +0.000 A 
ATOM     11  N   UNL     1       0.712   8.251  20.917  0.00  0.00    +0.000 NA
ATOM     12  C   UNL     1       1.460   8.276  19.789  0.00  0.00    +0.000 A 
ATOM     13  C   UNL     1       2.256   7.270  19.184  0.00  0.00    +0.000 A 
ATOM     14  C   UNL     1       2.579   5.930  19.460  0.00  0.00    +0.000 A 
ATOM     15  C   UNL     1       3.491   5.295  18.591  0.00  0.00    +0.000 A 
ATOM     16  C   UNL     1       3.866   3.849  18.824  0.00  0.00    +0.000 C 
ATOM     17  O   UNL     1       3.431   3.304  20.075  0.00  0.00    +0.000 OA
ATOM     18  C   UNL     1       2.097   3.665  20.459  0.00  0.00    +0.000 C 
ATOM     19  C   UNL     1       1.054   3.154  19.451  0.00  0.00    +0.000 C 
ATOM     20  C   UNL     1       1.837   2.985  21.809  0.00  0.00    +0.000 C 
ATOM     21  C   UNL     1       2.035   5.188  20.651  0.00  0.00    +0.000 C 
ATOM     22  H   UNL     1       1.011  11.663  17.657  0.00  0.00    +0.000 HD
ENDROOT
BRANCH   8  23
ATOM     23  C   UNL     1       0.835  13.027  19.248  0.00  0.00    +0.000 C 
BRANCH  23  24
ATOM     24  C   UNL     1       1.744  14.139  18.762  0.00  0.00    +0.000 A 
ATOM     25  C   UNL     1       3.027  13.822  18.291  0.00  0.00    +0.000 A 
ATOM     26  C   UNL     1       3.865  14.819  17.785  0.00  0.00    +0.000 A 
ATOM     27  C   UNL     1       3.431  16.143  17.739  0.00  0.00    +0.000 A 
ATOM     28  C   UNL     1       2.156  16.472  18.188  0.00  0.00    +0.000 A 
ATOM     29  C   UNL     1       1.314  15.475  18.684  0.00  0.00    +0.000 A 
ENDBRANCH  23  24
ENDBRANCH   8  23
TORSDOF 2
ENDMDL
MODEL 2
REMARK VINA RESULT:      -8.9      0.921      1.138
REMARK  Name = 
REMARK  5 active torsions:
REMARK  status: ('A' for Active; 'I' for Inactive)
REMARK    1  A    between atoms: C_1  and  C_2
REMARK    2  A    between atoms: N_8  and  C_9
REMARK    3  A    between atoms: C_9  and  C_10
REMARK    4  A    between atoms: C_25  and  C_26
REMARK    5  A    between atoms: C_25  and  C_27
REMARK                            x       y       z     vdW  Elec       q    Type
REMARK                         _______ _______ _______ _____ _____    ______ ____
ROOT
ATOM      1  C   UNL     1       5.189   4.912  16.420  0.00  0.00    +0.000 C 
ATOM      2  C   UNL     1       4.259   5.657  17.341  0.00  0.00    +0.000 A 
ATOM      3  N   UNL     1       3.984   6.928  16.960  0.00  0.00    +0.000 NA
ATOM      4  C   UNL     1       3.141   7.579  17.778  0.00  0.00    +0.000 A 
ATOM      5  O   UNL     1       2.768   8.874  17.568  0.00  0.00    +0.000 OA
ATOM      6  C   UNL     1       1.946   9.214  18.598  0.00  0.00    +0.000 A 
ATOM      7  C   UNL     1       1.383  10.454  18.875  0.00  0.00    +0.000 A 
ATOM      8  N   UNL     1       1.633  11.555  18.081  0.00  0.00    +0.000 N 
ATOM      9  N   UNL     1       0.637  10.538  20.004  0.00  0.00    +0.000 NA
ATOM     10  C   UNL     1       0.472   9.432  20.759  0.00  0.00    +0.000 A 
ATOM     11  N   UNL     1       0.989   8.208  20.560  0.00  0.00    +0.000 NA
ATOM     12  C   UNL     1       1.758   8.140  19.448  0.00  0.00    +0.000 A 
ATOM     13  C   UNL     1       2.535   7.076  18.924  0.00  0.00    +0.000 A 
ATOM     14  C   UNL     1       2.814   5.747  19.291  0.00  0.00    +0.000 A 
ATOM     15  C   UNL     1       3.723   5.033  18.483  0.00  0.00    +0.000 A 
ATOM     16  C   UNL     1       4.051   3.595  18.815  0.00  0.00    +0.000 C 
ATOM     17  O   UNL     1       3.577   3.143  20.089  0.00  0.00    +0.000 OA
ATOM     18  C   UNL     1       2.248   3.566  20.422  0.00  0.00    +0.000 C 
ATOM     19  C   UNL     1       1.209   3.020  19.428  0.00  0.00    +0.000 C 
ATOM     20  C   UNL     1       1.944   2.981  21.807  0.00  0.00    +0.000 C 
ATOM     21  C   UNL     1       2.227   5.099  20.516  0.00  0.00    +0.000 C 
ATOM     22  H   UNL     1       1.447  11.395  17.097  0.00  0.00    +0.000 HD
ENDROOT
BRANCH   8  23
ATOM     23  C   UNL     1       1.282  12.863  18.594  0.00  0.00    +0.000 C 
BRANCH  23  24
ATOM     24  C   UNL     1       2.524  13.607  19.042  0.00  0.00    +0.000 A 
ATOM     25  C   UNL     1       3.359  14.194  18.080  0.00  0.00    +0.000 A 
ATOM     26  C   UNL     1       4.480  14.933  18.467  0.00  0.00    +0.000 A 
ATOM     27  C   UNL     1       4.779  15.098  19.818  0.00  0.00    +0.000 A 
ATOM     28  C   UNL     1       3.953  14.534  20.786  0.00  0.00    +0.000 A 
ATOM     29  C   UNL     1       2.827  13.805  20.400  0.00  0.00    +0.000 A 
ENDBRANCH  23  24
ENDBRANCH   8  23
TORSDOF 2
ENDMDL
MODEL 3
REMARK VINA RESULT:      -8.9      2.710      4.678
REMARK  Name = 
REMARK  5 active torsions:
REMARK  status: ('A' for Active; 'I' for Inactive)
REMARK    1  A    between atoms: C_1  and  C_2
REMARK    2  A    between atoms: N_8  and  C_9
REMARK    3  A    between atoms: C_9  and  C_10
REMARK    4  A    between atoms: C_25  and  C_26
REMARK    5  A    between atoms: C_25  and  C_27
REMARK                            x       y       z     vdW  Elec       q    Type
REMARK                         _______ _______ _______ _____ _____    ______ ____
ROOT
ATOM      1  C   UNL     1       2.256   2.973  21.528  0.00  0.00    +0.000 C 
ATOM      2  C   UNL     1       2.340   4.215  20.680  0.00  0.00    +0.000 A 
ATOM      3  N   UNL     1       1.723   5.301  21.205  0.00  0.00    +0.000 NA
ATOM      4  C   UNL     1       1.817   6.407  20.450  0.00  0.00    +0.000 A 
ATOM      5  O   UNL     1       1.239   7.591  20.805  0.00  0.00    +0.000 OA
ATOM      6  C   UNL     1       1.505   8.471  19.801  0.00  0.00    +0.000 A 
ATOM      7  C   UNL     1       1.052   9.777  19.662  0.00  0.00    +0.000 A 
ATOM      8  N   UNL     1       0.210  10.354  20.591  0.00  0.00    +0.000 N 
ATOM      9  N   UNL     1       1.425  10.426  18.532  0.00  0.00    +0.000 NA
ATOM     10  C   UNL     1       2.212   9.785  17.642  0.00  0.00    +0.000 A 
ATOM     11  N   UNL     1       2.679   8.527  17.705  0.00  0.00    +0.000 NA
ATOM     12  C   UNL     1       2.278   7.875  18.821  0.00  0.00    +0.000 A 
ATOM     13  C   UNL     1       2.481   6.534  19.234  0.00  0.00    +0.000 A 
ATOM     14  C   UNL     1       3.134   5.402  18.715  0.00  0.00    +0.000 A 
ATOM     15  C   UNL     1       3.034   4.205  19.456  0.00  0.00    +0.000 A 
ATOM     16  C   UNL     1       3.730   2.957  18.960  0.00  0.00    +0.000 C 
ATOM     17  O   UNL     1       4.248   3.040  17.628  0.00  0.00    +0.000 OA
ATOM     18  C   UNL     1       4.901   4.277  17.312  0.00  0.00    +0.000 C 
ATOM     19  C   UNL     1       6.132   4.517  18.202  0.00  0.00    +0.000 C 
ATOM     20  C   UNL     1       5.375   4.156  15.857  0.00  0.00    +0.000 C 
ATOM     21  C   UNL     1       3.874   5.416  17.404  0.00  0.00    +0.000 C 
ATOM     22  H   UNL     1       0.555  10.294  21.543  0.00  0.00    +0.000 HD
ENDROOT
BRANCH   8  23
ATOM     23  C   UNL     1      -0.468  11.581  20.232  0.00  0.00    +0.000 C 
BRANCH  23  24
ATOM     24  C   UNL     1      -1.513  11.933  21.272  0.00  0.00    +0.000 A 
ATOM     25  C   UNL     1      -2.667  12.629  20.881  0.00  0.00    +0.000 A 
ATOM     26  C   UNL     1      -3.672  12.916  21.807  0.00  0.00    +0.000 A 
ATOM     27  C   UNL     1      -3.539  12.512  23.135  0.00  0.00    +0.000 A 
ATOM     28  C   UNL     1      -2.408  11.809  23.537  0.00  0.00    +0.000 A 
ATOM     29  C   UNL     1      -1.408  11.511  22.608  0.00  0.00    +0.000 A 
ENDBRANCH  23  24
ENDBRANCH   8  23
TORSDOF 2
ENDMDL
MODEL 4
REMARK VINA RESULT:      -8.7      2.702      4.644
REMARK  Name = 
REMARK  5 active torsions:
REMARK  status: ('A' for Active; 'I' for Inactive)
REMARK    1  A    between atoms: C_1  and  C_2
REMARK    2  A    between atoms: N_8  and  C_9
REMARK    3  A    between atoms: C_9  and  C_10
REMARK    4  A    between atoms: C_25  and  C_26
REMARK    5  A    between atoms: C_25  and  C_27
REMARK                            x       y       z     vdW  Elec       q    Type
REMARK                         _______ _______ _______ _____ _____    ______ ____
ROOT
ATOM      1  C   UNL     1       2.224   2.997  21.530  0.00  0.00    +0.000 C 
ATOM      2  C   UNL     1       2.333   4.232  20.676  0.00  0.00    +0.000 A 
ATOM      3  N   UNL     1       1.678   5.315  21.162  0.00  0.00    +0.000 NA
ATOM      4  C   UNL     1       1.794   6.416  20.402  0.00  0.00    +0.000 A 
ATOM      5  O   UNL     1       1.184   7.595  20.720  0.00  0.00    +0.000 OA
ATOM      6  C   UNL     1       1.487   8.470  19.722  0.00  0.00    +0.000 A 
ATOM      7  C   UNL     1       1.024   9.770  19.550  0.00  0.00    +0.000 A 
ATOM      8  N   UNL     1       0.132  10.342  20.433  0.00  0.00    +0.000 N 
ATOM      9  N   UNL     1       1.443  10.414  18.434  0.00  0.00    +0.000 NA
ATOM     10  C   UNL     1       2.280   9.777  17.589  0.00  0.00    +0.000 A 
ATOM     11  N   UNL     1       2.759   8.525  17.684  0.00  0.00    +0.000 NA
ATOM     12  C   UNL     1       2.313   7.877  18.786  0.00  0.00    +0.000 A 
ATOM     13  C   UNL     1       2.514   6.542  19.219  0.00  0.00    +0.000 A 
ATOM     14  C   UNL     1       3.205   5.414  18.742  0.00  0.00    +0.000 A 
ATOM     15  C   UNL     1       3.085   4.222  19.487  0.00  0.00    +0.000 A 
ATOM     16  C   UNL     1       3.819   2.980  19.035  0.00  0.00    +0.000 C 
ATOM     17  O   UNL     1       4.400   3.059  17.729  0.00  0.00    +0.000 OA
ATOM     18  C   UNL     1       5.051   4.302  17.434  0.00  0.00    +0.000 C 
ATOM     19  C   UNL     1       6.235   4.565  18.380  0.00  0.00    +0.000 C 
ATOM     20  C   UNL     1       5.595   4.175  16.005  0.00  0.00    +0.000 C 
ATOM     21  C   UNL     1       4.007   5.427  17.468  0.00  0.00    +0.000 C 
ATOM     22  H   UNL     1       0.432  10.294  21.401  0.00  0.00    +0.000 HD
ENDROOT
BRANCH   8  23
ATOM     23  C   UNL     1      -0.544  11.558  20.031  0.00  0.00    +0.000 C 
BRANCH  23  24
ATOM     24  C   UNL     1      -1.812  11.232  19.268  0.00  0.00    +0.000 A 
ATOM     25  C   UNL     1      -2.936  12.059  19.415  0.00  0.00    +0.000 A 
ATOM     26  C   UNL     1      -4.099  11.815  18.681  0.00  0.00    +0.000 A 
ATOM     27  C   UNL     1      -4.155  10.745  17.790  0.00  0.00    +0.000 A 
ATOM     28  C   UNL     1      -3.045   9.923  17.621  0.00  0.00    +0.000 A 
ATOM     29  C   UNL     1      -1.878  10.173  18.346  0.00  0.00    +0.000 A 
ENDBRANCH  23  24
ENDBRANCH   8  23
TORSDOF 2
ENDMDL
MODEL 5
REMARK VINA RESULT:      -8.7      2.621      4.342
REMARK  Name = 
REMARK  5 active torsions:
REMARK  status: ('A' for Active; 'I' for Inactive)
REMARK    1  A    between atoms: C_1  and  C_2
REMARK    2  A    between atoms: N_8  and  C_9
REMARK    3  A    between atoms: C_9  and  C_10
REMARK    4  A    between atoms: C_25  and  C_26
REMARK    5  A    between atoms: C_25  and  C_27
REMARK                            x       y       z     vdW  Elec       q    Type
REMARK                         _______ _______ _______ _____ _____    ______ ____
ROOT
ATOM      1  C   UNL     1       2.522   2.881  21.496  0.00  0.00    +0.000 C 
ATOM      2  C   UNL     1       2.525   4.138  20.667  0.00  0.00    +0.000 A 
ATOM      3  N   UNL     1       1.823   5.168  21.199  0.00  0.00    +0.000 NA
ATOM      4  C   UNL     1       1.845   6.289  20.461  0.00  0.00    +0.000 A 
ATOM      5  O   UNL     1       1.176   7.421  20.825  0.00  0.00    +0.000 OA
ATOM      6  C   UNL     1       1.390   8.333  19.837  0.00  0.00    +0.000 A 
ATOM      7  C   UNL     1       0.843   9.605  19.710  0.00  0.00    +0.000 A 
ATOM      8  N   UNL     1      -0.051  10.104  20.636  0.00  0.00    +0.000 N 
ATOM      9  N   UNL     1       1.182  10.297  18.595  0.00  0.00    +0.000 NA
ATOM     10  C   UNL     1       2.026   9.729  17.707  0.00  0.00    +0.000 A 
ATOM     11  N   UNL     1       2.583   8.508  17.759  0.00  0.00    +0.000 NA
ATOM     12  C   UNL     1       2.217   7.812  18.860  0.00  0.00    +0.000 A 
ATOM     13  C   UNL     1       2.513   6.483  19.256  0.00  0.00    +0.000 A 
ATOM     14  C   UNL     1       3.255   5.409  18.731  0.00  0.00    +0.000 A 
ATOM     15  C   UNL     1       3.233   4.198  19.453  0.00  0.00    +0.000 A 
ATOM     16  C   UNL     1       4.025   3.012  18.949  0.00  0.00    +0.000 C 
ATOM     17  O   UNL     1       4.553   3.153  17.625  0.00  0.00    +0.000 OA
ATOM     18  C   UNL     1       5.117   4.439  17.336  0.00  0.00    +0.000 C 
ATOM     19  C   UNL     1       6.315   4.756  18.247  0.00  0.00    +0.000 C 
ATOM     20  C   UNL     1       5.617   4.375  15.887  0.00  0.00    +0.000 C 
ATOM     21  C   UNL     1       4.008   5.498  17.430  0.00  0.00    +0.000 C 
ATOM     22  H   UNL     1       0.286  10.055  21.592  0.00  0.00    +0.000 HD
ENDROOT
BRANCH   8  23
ATOM     23  C   UNL     1      -0.812  11.284  20.284  0.00  0.00    +0.000 C 
BRANCH  23  24
ATOM     24  C   UNL     1      -1.005  12.171  21.499  0.00  0.00    +0.000 A 
ATOM     25  C   UNL     1      -0.248  13.346  21.619  0.00  0.00    +0.000 A 
ATOM     26  C   UNL     1      -0.445  14.211  22.699  0.00  0.00    +0.000 A 
ATOM     27  C   UNL     1      -1.401  13.915  23.669  0.00  0.00    +0.000 A 
ATOM     28  C   UNL     1      -2.171  12.761  23.557  0.00  0.00    +0.000 A 
ATOM     29  C   UNL     1      -1.982  11.902  22.473  0.00  0.00    +0.000 A 
ENDBRANCH  23  24
ENDBRANCH   8  23
TORSDOF 2
ENDMDL
MODEL 6
REMARK VINA RESULT:      -8.3      1.881      2.924
REMARK  Name = 
REMARK  5 active torsions:
REMARK  status: ('A' for Active; 'I' for Inactive)
REMARK    1  A    between atoms: C_1  and  C_2
REMARK    2  A    between atoms: N_8  and  C_9
REMARK    3  A    between atoms: C_9  and  C_10
REMARK    4  A    between atoms: C_25  and  C_26
REMARK    5  A    between atoms: C_25  and  C_27
REMARK                            x       y       z     vdW  Elec       q    Type
REMARK                         _______ _______ _______ _____ _____    ______ ____
ROOT
ATOM      1  C   UNL     1       5.371   5.264  16.203  0.00  0.00    +0.000 C 
ATOM      2  C   UNL     1       4.411   5.802  17.231  0.00  0.00    +0.000 A 
ATOM      3  N   UNL     1       3.934   7.043  16.966  0.00  0.00    +0.000 NA
ATOM      4  C   UNL     1       3.066   7.506  17.880  0.00  0.00    +0.000 A 
ATOM      5  O   UNL     1       2.501   8.745  17.793  0.00  0.00    +0.000 OA
ATOM      6  C   UNL     1       1.712   8.891  18.893  0.00  0.00    +0.000 A 
ATOM      7  C   UNL     1       1.001  10.015  19.297  0.00  0.00    +0.000 A 
ATOM      8  N   UNL     1       1.037  11.191  18.577  0.00  0.00    +0.000 N 
ATOM      9  N   UNL     1       0.330   9.912  20.470  0.00  0.00    +0.000 NA
ATOM     10  C   UNL     1       0.376   8.745  21.147  0.00  0.00    +0.000 A 
ATOM     11  N   UNL     1       1.045   7.626  20.824  0.00  0.00    +0.000 NA
ATOM     12  C   UNL     1       1.737   7.746  19.667  0.00  0.00    +0.000 A 
ATOM     13  C   UNL     1       2.618   6.844  19.017  0.00  0.00    +0.000 A 
ATOM     14  C   UNL     1       3.106   5.548  19.264  0.00  0.00    +0.000 A 
ATOM     15  C   UNL     1       4.049   5.031  18.352  0.00  0.00    +0.000 A 
ATOM     16  C   UNL     1       4.598   3.636  18.552  0.00  0.00    +0.000 C 
ATOM     17  O   UNL     1       4.282   3.035  19.813  0.00  0.00    +0.000 OA
ATOM     18  C   UNL     1       2.933   3.237  20.255  0.00  0.00    +0.000 C 
ATOM     19  C   UNL     1       1.915   2.614  19.285  0.00  0.00    +0.000 C 
ATOM     20  C   UNL     1       2.811   2.521  21.607  0.00  0.00    +0.000 C 
ATOM     21  C   UNL     1       2.702   4.740  20.468  0.00  0.00    +0.000 C 
ATOM     22  H   UNL     1       0.809  11.072  17.595  0.00  0.00    +0.000 HD
ENDROOT
BRANCH   8  23
ATOM     23  C   UNL     1       0.542  12.396  19.208  0.00  0.00    +0.000 C 
BRANCH  23  24
ATOM     24  C   UNL     1      -0.973  12.396  19.234  0.00  0.00    +0.000 A 
ATOM     25  C   UNL     1      -1.680  11.822  18.167  0.00  0.00    +0.000 A 
ATOM     26  C   UNL     1      -3.076  11.758  18.191  0.00  0.00    +0.000 A 
ATOM     27  C   UNL     1      -3.782  12.262  19.282  0.00  0.00    +0.000 A 
ATOM     28  C   UNL     1      -3.096  12.821  20.356  0.00  0.00    +0.000 A 
ATOM     29  C   UNL     1      -1.701  12.876  20.337  0.00  0.00    +0.000 A 
ENDBRANCH  23  24
ENDBRANCH   8  23
TORSDOF 2
ENDMDL
MODEL 7
REMARK VINA RESULT:      -8.2      2.370      3.449
REMARK  Name = 
REMARK  5 active torsions:
REMARK  status: ('A' for Active; 'I' for Inactive)
REMARK    1  A    between atoms: C_1  and  C_2
REMARK    2  A    between atoms: N_8  and  C_9
REMARK    3  A    between atoms: C_9  and  C_10
REMARK    4  A    between atoms: C_25  and  C_26
REMARK    5  A    between atoms: C_25  and  C_27
REMARK                            x       y       z     vdW  Elec       q    Type
REMARK                         _______ _______ _______ _____ _____    ______ ____
ROOT
ATOM      1  C   UNL     1       4.562   6.440  16.614  0.00  0.00    +0.000 C 
ATOM      2  C   UNL     1       3.629   6.784  17.745  0.00  0.00    +0.000 A 
ATOM      3  N   UNL     1       3.105   8.032  17.687  0.00  0.00    +0.000 NA
ATOM      4  C   UNL     1       2.262   8.323  18.691  0.00  0.00    +0.000 A 
ATOM      5  O   UNL     1       1.657   9.540  18.812  0.00  0.00    +0.000 OA
ATOM      6  C   UNL     1       0.910   9.491  19.948  0.00  0.00    +0.000 A 
ATOM      7  C   UNL     1       0.182  10.516  20.543  0.00  0.00    +0.000 A 
ATOM      8  N   UNL     1       0.155  11.788  20.007  0.00  0.00    +0.000 N 
ATOM      9  N   UNL     1      -0.437  10.216  21.710  0.00  0.00    +0.000 NA
ATOM     10  C   UNL     1      -0.329   8.963  22.201  0.00  0.00    +0.000 A 
ATOM     11  N   UNL     1       0.359   7.929  21.689  0.00  0.00    +0.000 NA
ATOM     12  C   UNL     1       1.000   8.245  20.540  0.00  0.00    +0.000 A 
ATOM     13  C   UNL     1       1.880   7.482  19.730  0.00  0.00    +0.000 A 
ATOM     14  C   UNL     1       2.416   6.182  19.761  0.00  0.00    +0.000 A 
ATOM     15  C   UNL     1       3.336   5.841  18.748  0.00  0.00    +0.000 A 
ATOM     16  C   UNL     1       3.933   4.452  18.716  0.00  0.00    +0.000 C 
ATOM     17  O   UNL     1       3.687   3.659  19.883  0.00  0.00    +0.000 OA
ATOM     18  C   UNL     1       2.351   3.744  20.398  0.00  0.00    +0.000 C 
ATOM     19  C   UNL     1       1.314   3.238  19.382  0.00  0.00    +0.000 C 
ATOM     20  C   UNL     1       2.306   2.830  21.630  0.00  0.00    +0.000 C 
ATOM     21  C   UNL     1       2.085   5.189  20.843  0.00  0.00    +0.000 C 
ATOM     22  H   UNL     1      -0.110  11.809  19.028  0.00  0.00    +0.000 HD
ENDROOT
BRANCH   8  23
ATOM     23  C   UNL     1      -0.350  12.866  20.831  0.00  0.00    +0.000 C 
BRANCH  23  24
ATOM     24  C   UNL     1      -1.865  12.845  20.861  0.00  0.00    +0.000 A 
ATOM     25  C   UNL     1      -2.573  12.536  19.690  0.00  0.00    +0.000 A 
ATOM     26  C   UNL     1      -3.968  12.454  19.703  0.00  0.00    +0.000 A 
ATOM     27  C   UNL     1      -4.673  12.676  20.885  0.00  0.00    +0.000 A 
ATOM     28  C   UNL     1      -3.986  12.970  22.058  0.00  0.00    +0.000 A 
ATOM     29  C   UNL     1      -2.591  13.041  22.049  0.00  0.00    +0.000 A 
ENDBRANCH  23  24
ENDBRANCH   8  23
TORSDOF 2
ENDMDL
MODEL 8
REMARK VINA RESULT:      -8.1      2.087      3.157
REMARK  Name = 
REMARK  5 active torsions:
REMARK  status: ('A' for Active; 'I' for Inactive)
REMARK    1  A    between atoms: C_1  and  C_2
REMARK    2  A    between atoms: N_8  and  C_9
REMARK    3  A    between atoms: C_9  and  C_10
REMARK    4  A    between atoms: C_25  and  C_26
REMARK    5  A    between atoms: C_25  and  C_27
REMARK                            x       y       z     vdW  Elec       q    Type
REMARK                         _______ _______ _______ _____ _____    ______ ____
ROOT
ATOM      1  C   UNL     1       5.644   5.590  15.759  0.00  0.00    +0.000 C 
ATOM      2  C   UNL     1       4.687   6.021  16.839  0.00  0.00    +0.000 A 
ATOM      3  N   UNL     1       4.106   7.227  16.632  0.00  0.00    +0.000 NA
ATOM      4  C   UNL     1       3.242   7.595  17.591  0.00  0.00    +0.000 A 
ATOM      5  O   UNL     1       2.579   8.788  17.565  0.00  0.00    +0.000 OA
ATOM      6  C   UNL     1       1.827   8.840  18.698  0.00  0.00    +0.000 A 
ATOM      7  C   UNL     1       1.048   9.892  19.164  0.00  0.00    +0.000 A 
ATOM      8  N   UNL     1       0.964  11.088  18.481  0.00  0.00    +0.000 N 
ATOM      9  N   UNL     1       0.435   9.704  20.358  0.00  0.00    +0.000 NA
ATOM     10  C   UNL     1       0.598   8.526  20.996  0.00  0.00    +0.000 A 
ATOM     11  N   UNL     1       1.339   7.472  20.613  0.00  0.00    +0.000 NA
ATOM     12  C   UNL     1       1.972   7.679  19.435  0.00  0.00    +0.000 A 
ATOM     13  C   UNL     1       2.893   6.868  18.724  0.00  0.00    +0.000 A 
ATOM     14  C   UNL     1       3.489   5.608  18.911  0.00  0.00    +0.000 A 
ATOM     15  C   UNL     1       4.431   5.192  17.947  0.00  0.00    +0.000 A 
ATOM     16  C   UNL     1       5.094   3.840  18.083  0.00  0.00    +0.000 C 
ATOM     17  O   UNL     1       4.877   3.180  19.335  0.00  0.00    +0.000 OA
ATOM     18  C   UNL     1       3.535   3.262  19.835  0.00  0.00    +0.000 C 
ATOM     19  C   UNL     1       2.530   2.590  18.885  0.00  0.00    +0.000 C 
ATOM     20  C   UNL     1       3.524   2.501  21.167  0.00  0.00    +0.000 C 
ATOM     21  C   UNL     1       3.198   4.737  20.104  0.00  0.00    +0.000 C 
ATOM     22  H   UNL     1       0.706  10.980  17.505  0.00  0.00    +0.000 HD
ENDROOT
BRANCH   8  23
ATOM     23  C   UNL     1       0.403  12.232  19.169  0.00  0.00    +0.000 C 
BRANCH  23  24
ATOM     24  C   UNL     1      -1.111  12.162  19.166  0.00  0.00    +0.000 A 
ATOM     25  C   UNL     1      -1.826  12.679  20.256  0.00  0.00    +0.000 A 
ATOM     26  C   UNL     1      -3.223  12.678  20.255  0.00  0.00    +0.000 A 
ATOM     27  C   UNL     1      -3.923  12.165  19.165  0.00  0.00    +0.000 A 
ATOM     28  C   UNL     1      -3.230  11.661  18.069  0.00  0.00    +0.000 A 
ATOM     29  C   UNL     1      -1.834  11.671  18.064  0.00  0.00    +0.000 A 
ENDBRANCH  23  24
ENDBRANCH   8  23
TORSDOF 2
ENDMDL
MODEL 9
REMARK VINA RESULT:      -8.1      2.561      4.614
REMARK  Name = 
REMARK  5 active torsions:
REMARK  status: ('A' for Active; 'I' for Inactive)
REMARK    1  A    between atoms: C_1  and  C_2
REMARK    2  A    between atoms: N_8  and  C_9
REMARK    3  A    between atoms: C_9  and  C_10
REMARK    4  A    between atoms: C_25  and  C_26
REMARK    5  A    between atoms: C_25  and  C_27
REMARK                            x       y       z     vdW  Elec       q    Type
REMARK                         _______ _______ _______ _____ _____    ______ ____
ROOT
ATOM      1  C   UNL     1       1.850   3.770  21.202  0.00  0.00    +0.000 C 
ATOM      2  C   UNL     1       1.986   5.069  20.453  0.00  0.00    +0.000 A 
ATOM      3  N   UNL     1       1.311   6.110  20.998  0.00  0.00    +0.000 NA
ATOM      4  C   UNL     1       1.451   7.267  20.333  0.00  0.00    +0.000 A 
ATOM      5  O   UNL     1       0.827   8.418  20.719  0.00  0.00    +0.000 OA
ATOM      6  C   UNL     1       1.163   9.369  19.806  0.00  0.00    +0.000 A 
ATOM      7  C   UNL     1       0.704  10.678  19.720  0.00  0.00    +0.000 A 
ATOM      8  N   UNL     1      -0.223  11.179  20.612  0.00  0.00    +0.000 N 
ATOM      9  N   UNL     1       1.161  11.408  18.674  0.00  0.00    +0.000 NA
ATOM     10  C   UNL     1       2.030  10.840  17.813  0.00  0.00    +0.000 A 
ATOM     11  N   UNL     1       2.510   9.585  17.827  0.00  0.00    +0.000 NA
ATOM     12  C   UNL     1       2.025   8.852  18.857  0.00  0.00    +0.000 A 
ATOM     13  C   UNL     1       2.213   7.486  19.190  0.00  0.00    +0.000 A 
ATOM     14  C   UNL     1       2.925   6.400  18.651  0.00  0.00    +0.000 A 
ATOM     15  C   UNL     1       2.781   5.153  19.295  0.00  0.00    +0.000 A 
ATOM     16  C   UNL     1       3.535   3.950  18.775  0.00  0.00    +0.000 C 
ATOM     17  O   UNL     1       4.163   4.132  17.501  0.00  0.00    +0.000 OA
ATOM     18  C   UNL     1       4.822   5.394  17.328  0.00  0.00    +0.000 C 
ATOM     19  C   UNL     1       5.969   5.582  18.335  0.00  0.00    +0.000 C 
ATOM     20  C   UNL     1       5.418   5.381  15.915  0.00  0.00    +0.000 C 
ATOM     21  C   UNL     1       3.773   6.514  17.413  0.00  0.00    +0.000 C 
ATOM     22  H   UNL     1       0.042  11.055  21.584  0.00  0.00    +0.000 HD
ENDROOT
BRANCH   8  23
ATOM     23  C   UNL     1      -0.886  12.423  20.283  0.00  0.00    +0.000 C 
BRANCH  23  24
ATOM     24  C   UNL     1      -2.258  12.152  19.697  0.00  0.00    +0.000 A 
ATOM     25  C   UNL     1      -3.397  12.637  20.358  0.00  0.00    +0.000 A 
ATOM     26  C   UNL     1      -4.669  12.452  19.811  0.00  0.00    +0.000 A 
ATOM     27  C   UNL     1      -4.820  11.783  18.598  0.00  0.00    +0.000 A 
ATOM     28  C   UNL     1      -3.700  11.308  17.922  0.00  0.00    +0.000 A 
ATOM     29  C   UNL     1      -2.428  11.503  18.462  0.00  0.00    +0.000 A 
ENDBRANCH  23  24
ENDBRANCH   8  23
TORSDOF 2
ENDMDL
