MODEL 1
REMARK VINA RESULT:      -8.0      0.000      0.000
REMARK  Name = 
REMARK  8 active torsions:
REMARK  status: ('A' for Active; 'I' for Inactive)
REMARK    1  A    between atoms: C_1  and  C_2
REMARK    2  A    between atoms: C_2  and  O_3
REMARK    3  A    between atoms: O_3  and  C_4
REMARK    4  A    between atoms: C_4  and  C_6
REMARK    5  A    between atoms: C_13  and  O_14
REMARK    6  A    between atoms: O_14  and  C_15
REMARK    7  A    between atoms: C_15  and  C_16
REMARK    8  A    between atoms: N_18  and  C_19
REMARK                            x       y       z     vdW  Elec       q    Type
REMARK                         _______ _______ _______ _____ _____    ______ ____
ROOT
ATOM      1  C   UNL     1       5.898   3.458  12.925  0.00  0.00    +0.000 A 
ATOM      2  C   UNL     1       6.950   4.237  12.635  0.00  0.00    +0.000 A 
ATOM      3  C   UNL     1       7.542   5.057  13.704  0.00  0.00    +0.000 A 
ATOM      4  O   UNL     1       8.503   5.782  13.486  0.00  0.00    +0.000 OA
ATOM      5  C   UNL     1       6.908   4.973  15.029  0.00  0.00    +0.000 A 
ATOM      6  C   UNL     1       7.372   5.733  16.104  0.00  0.00    +0.000 A 
ATOM      7  C   UNL     1       6.756   5.612  17.356  0.00  0.00    +0.000 A 
ATOM      8  C   UNL     1       5.682   4.735  17.523  0.00  0.00    +0.000 A 
ATOM      9  C   UNL     1       5.222   3.986  16.440  0.00  0.00    +0.000 A 
ATOM     10  C   UNL     1       5.833   4.108  15.195  0.00  0.00    +0.000 A 
ATOM     11  O   UNL     1       5.326   3.342  14.182  0.00  0.00    +0.000 OA
ENDROOT
BRANCH   1  12
ATOM     12  C   UNL     1       5.243   2.742  11.798  0.00  0.00    +0.000 C 
ATOM     13  O   UNL     1       5.798   1.931  11.074  0.00  0.00    +0.000 OA
BRANCH  12  14
ATOM     14  O   UNL     1       3.992   3.243  11.632  0.00  0.00    +0.000 OA
BRANCH  14  16
ATOM     15  C   UNL     1       3.041   4.274   9.704  0.00  0.00    +0.000 C 
ATOM     16  C   UNL     1       3.376   2.951  10.372  0.00  0.00    +0.000 C 
ENDBRANCH  14  16
ENDBRANCH  12  14
ENDBRANCH   1  12
BRANCH   8  17
ATOM     17  O   UNL     1       5.045   4.472  18.702  0.00  0.00    +0.000 OA
BRANCH  17  18
ATOM     18  C   UNL     1       3.745   3.903  18.593  0.00  0.00    +0.000 C 
BRANCH  18  19
ATOM     19  C   UNL     1       2.671   4.994  18.574  0.00  0.00    +0.000 C 
ATOM     20  O   UNL     1       1.541   4.728  18.176  0.00  0.00    +0.000 OA
ATOM     21  N   UNL     1       3.126   6.234  18.990  0.00  0.00    +0.000 N 
ATOM     22  H   UNL     1       4.126   6.300  19.153  0.00  0.00    +0.000 HD
BRANCH  21  23
ATOM     23  C   UNL     1       2.368   7.415  19.113  0.00  0.00    +0.000 A 
ATOM     24  C   UNL     1       1.749   7.801  20.304  0.00  0.00    +0.000 A 
ATOM     25  C   UNL     1       0.988   8.970  20.366  0.00  0.00    +0.000 A 
ATOM     26  C   UNL     1       0.837   9.766  19.235  0.00  0.00    +0.000 A 
ATOM     27  C   UNL     1       1.466   9.404  18.045  0.00  0.00    +0.000 A 
ATOM     28  C   UNL     1       2.239   8.238  17.987  0.00  0.00    +0.000 A 
ENDBRANCH  21  23
ENDBRANCH  18  19
ENDBRANCH  17  18
ENDBRANCH   8  17
TORSDOF 7
ENDMDL
MODEL 2
REMARK VINA RESULT:      -7.9      3.073      5.079
REMARK  Name = 
REMARK  8 active torsions:
REMARK  status: ('A' for Active; 'I' for Inactive)
REMARK    1  A    between atoms: C_1  and  C_2
REMARK    2  A    between atoms: C_2  and  O_3
REMARK    3  A    between atoms: O_3  and  C_4
REMARK    4  A    between atoms: C_4  and  C_6
REMARK    5  A    between atoms: C_13  and  O_14
REMARK    6  A    between atoms: O_14  and  C_15
REMARK    7  A    between atoms: C_15  and  C_16
REMARK    8  A    between atoms: N_18  and  C_19
REMARK                            x       y       z     vdW  Elec       q    Type
REMARK                         _______ _______ _______ _____ _____    ______ ____
ROOT
ATOM      1  C   UNL     1       5.513   4.718  16.097  0.00  0.00    +0.000 A 
ATOM      2  C   UNL     1       5.148   3.519  16.572  0.00  0.00    +0.000 A 
ATOM      3  C   UNL     1       4.096   3.452  17.600  0.00  0.00    +0.000 A 
ATOM      4  O   UNL     1       3.730   2.380  18.061  0.00  0.00    +0.000 OA
ATOM      5  C   UNL     1       3.533   4.734  18.051  0.00  0.00    +0.000 A 
ATOM      6  C   UNL     1       2.553   4.784  19.045  0.00  0.00    +0.000 A 
ATOM      7  C   UNL     1       2.023   6.021  19.434  0.00  0.00    +0.000 A 
ATOM      8  C   UNL     1       2.479   7.196  18.831  0.00  0.00    +0.000 A 
ATOM      9  C   UNL     1       3.463   7.134  17.845  0.00  0.00    +0.000 A 
ATOM     10  C   UNL     1       3.991   5.905  17.459  0.00  0.00    +0.000 A 
ATOM     11  O   UNL     1       4.952   5.924  16.487  0.00  0.00    +0.000 OA
ENDROOT
BRANCH   1  12
ATOM     12  C   UNL     1       6.664   4.763  15.156  0.00  0.00    +0.000 C 
ATOM     13  O   UNL     1       7.523   5.630  15.151  0.00  0.00    +0.000 OA
BRANCH  12  14
ATOM     14  O   UNL     1       6.515   3.773  14.239  0.00  0.00    +0.000 OA
BRANCH  14  16
ATOM     15  C   UNL     1       5.801   3.015  12.094  0.00  0.00    +0.000 C 
ATOM     16  C   UNL     1       5.581   4.047  13.187  0.00  0.00    +0.000 C 
ENDBRANCH  14  16
ENDBRANCH  12  14
ENDBRANCH   1  12
BRANCH   8  17
ATOM     17  O   UNL     1       1.996   8.451  19.069  0.00  0.00    +0.000 OA
BRANCH  17  18
ATOM     18  C   UNL     1       1.801   9.269  17.921  0.00  0.00    +0.000 C 
BRANCH  18  19
ATOM     19  C   UNL     1       0.557  10.148  18.081  0.00  0.00    +0.000 C 
ATOM     20  O   UNL     1       0.601  11.139  18.803  0.00  0.00    +0.000 OA
ATOM     21  N   UNL     1      -0.550   9.681  17.392  0.00  0.00    +0.000 N 
ATOM     22  H   UNL     1      -0.441   8.770  16.956  0.00  0.00    +0.000 HD
BRANCH  21  23
ATOM     23  C   UNL     1      -1.818  10.289  17.318  0.00  0.00    +0.000 A 
ATOM     24  C   UNL     1      -2.453  10.859  18.424  0.00  0.00    +0.000 A 
ATOM     25  C   UNL     1      -3.723  11.428  18.301  0.00  0.00    +0.000 A 
ATOM     26  C   UNL     1      -4.371  11.431  17.070  0.00  0.00    +0.000 A 
ATOM     27  C   UNL     1      -3.740  10.884  15.955  0.00  0.00    +0.000 A 
ATOM     28  C   UNL     1      -2.462  10.325  16.076  0.00  0.00    +0.000 A 
ENDBRANCH  21  23
ENDBRANCH  18  19
ENDBRANCH  17  18
ENDBRANCH   8  17
TORSDOF 7
ENDMDL
MODEL 3
REMARK VINA RESULT:      -7.8      3.270      5.431
REMARK  Name = 
REMARK  8 active torsions:
REMARK  status: ('A' for Active; 'I' for Inactive)
REMARK    1  A    between atoms: C_1  and  C_2
REMARK    2  A    between atoms: C_2  and  O_3
REMARK    3  A    between atoms: O_3  and  C_4
REMARK    4  A    between atoms: C_4  and  C_6
REMARK    5  A    between atoms: C_13  and  O_14
REMARK    6  A    between atoms: O_14  and  C_15
REMARK    7  A    between atoms: C_15  and  C_16
REMARK    8  A    between atoms: N_18  and  C_19
REMARK                            x       y       z     vdW  Elec       q    Type
REMARK                         _______ _______ _______ _____ _____    ______ ____
ROOT
ATOM      1  C   UNL     1       5.519   4.989  16.342  0.00  0.00    +0.000 A 
ATOM      2  C   UNL     1       5.367   4.031  17.268  0.00  0.00    +0.000 A 
ATOM      3  C   UNL     1       4.449   4.270  18.394  0.00  0.00    +0.000 A 
ATOM      4  O   UNL     1       4.278   3.424  19.261  0.00  0.00    +0.000 OA
ATOM      5  C   UNL     1       3.774   5.576  18.429  0.00  0.00    +0.000 A 
ATOM      6  C   UNL     1       2.908   5.917  19.470  0.00  0.00    +0.000 A 
ATOM      7  C   UNL     1       2.266   7.162  19.459  0.00  0.00    +0.000 A 
ATOM      8  C   UNL     1       2.497   8.056  18.411  0.00  0.00    +0.000 A 
ATOM      9  C   UNL     1       3.370   7.708  17.380  0.00  0.00    +0.000 A 
ATOM     10  C   UNL     1       4.009   6.472  17.392  0.00  0.00    +0.000 A 
ATOM     11  O   UNL     1       4.850   6.202  16.348  0.00  0.00    +0.000 OA
ENDROOT
BRANCH   1  12
ATOM     12  C   UNL     1       6.547   4.770  15.291  0.00  0.00    +0.000 C 
ATOM     13  O   UNL     1       7.558   5.441  15.158  0.00  0.00    +0.000 OA
BRANCH  12  14
ATOM     14  O   UNL     1       6.103   3.809  14.441  0.00  0.00    +0.000 OA
BRANCH  14  16
ATOM     15  C   UNL     1       5.517   3.207  12.209  0.00  0.00    +0.000 C 
ATOM     16  C   UNL     1       6.512   3.960  13.076  0.00  0.00    +0.000 C 
ENDBRANCH  14  16
ENDBRANCH  12  14
ENDBRANCH   1  12
BRANCH   8  17
ATOM     17  O   UNL     1       1.882   9.264  18.247  0.00  0.00    +0.000 OA
BRANCH  17  18
ATOM     18  C   UNL     1       1.123   9.732  19.356  0.00  0.00    +0.000 C 
BRANCH  18  19
ATOM     19  C   UNL     1      -0.081  10.552  18.886  0.00  0.00    +0.000 C 
ATOM     20  O   UNL     1      -0.211  11.712  19.263  0.00  0.00    +0.000 OA
ATOM     21  N   UNL     1      -0.959   9.846  18.080  0.00  0.00    +0.000 N 
ATOM     22  H   UNL     1      -0.762   8.854  17.983  0.00  0.00    +0.000 HD
BRANCH  21  23
ATOM     23  C   UNL     1      -2.129  10.338  17.470  0.00  0.00    +0.000 A 
ATOM     24  C   UNL     1      -2.398  10.189  16.108  0.00  0.00    +0.000 A 
ATOM     25  C   UNL     1      -3.563  10.718  15.549  0.00  0.00    +0.000 A 
ATOM     26  C   UNL     1      -4.473  11.404  16.348  0.00  0.00    +0.000 A 
ATOM     27  C   UNL     1      -4.227  11.542  17.713  0.00  0.00    +0.000 A 
ATOM     28  C   UNL     1      -3.065  11.001  18.275  0.00  0.00    +0.000 A 
ENDBRANCH  21  23
ENDBRANCH  18  19
ENDBRANCH  17  18
ENDBRANCH   8  17
TORSDOF 7
ENDMDL
MODEL 4
REMARK VINA RESULT:      -7.8      4.179      6.845
REMARK  Name = 
REMARK  8 active torsions:
REMARK  status: ('A' for Active; 'I' for Inactive)
REMARK    1  A    between atoms: C_1  and  C_2
REMARK    2  A    between atoms: C_2  and  O_3
REMARK    3  A    between atoms: O_3  and  C_4
REMARK    4  A    between atoms: C_4  and  C_6
REMARK    5  A    between atoms: C_13  and  O_14
REMARK    6  A    between atoms: O_14  and  C_15
REMARK    7  A    between atoms: C_15  and  C_16
REMARK    8  A    between atoms: N_18  and  C_19
REMARK                            x       y       z     vdW  Elec       q    Type
REMARK                         _______ _______ _______ _____ _____    ______ ____
ROOT
ATOM      1  C   UNL     1       3.949   4.477  18.931  0.00  0.00    +0.000 A 
ATOM      2  C   UNL     1       4.551   4.861  17.796  0.00  0.00    +0.000 A 
ATOM      3  C   UNL     1       4.267   6.202  17.259  0.00  0.00    +0.000 A 
ATOM      4  O   UNL     1       4.794   6.594  16.228  0.00  0.00    +0.000 OA
ATOM      5  C   UNL     1       3.309   7.024  18.014  0.00  0.00    +0.000 A 
ATOM      6  C   UNL     1       2.946   8.299  17.575  0.00  0.00    +0.000 A 
ATOM      7  C   UNL     1       2.047   9.063  18.330  0.00  0.00    +0.000 A 
ATOM      8  C   UNL     1       1.516   8.546  19.514  0.00  0.00    +0.000 A 
ATOM      9  C   UNL     1       1.880   7.269  19.939  0.00  0.00    +0.000 A 
ATOM     10  C   UNL     1       2.772   6.509  19.187  0.00  0.00    +0.000 A 
ATOM     11  O   UNL     1       3.081   5.266  19.667  0.00  0.00    +0.000 OA
ENDROOT
BRANCH   1  12
ATOM     12  C   UNL     1       4.155   3.073  19.377  0.00  0.00    +0.000 C 
ATOM     13  O   UNL     1       5.114   2.684  20.025  0.00  0.00    +0.000 OA
BRANCH  12  14
ATOM     14  O   UNL     1       3.187   2.296  18.829  0.00  0.00    +0.000 OA
BRANCH  14  16
ATOM     15  C   UNL     1       0.816   2.544  18.823  0.00  0.00    +0.000 C 
ATOM     16  C   UNL     1       2.019   2.107  19.639  0.00  0.00    +0.000 C 
ENDBRANCH  14  16
ENDBRANCH  12  14
ENDBRANCH   1  12
BRANCH   8  17
ATOM     17  O   UNL     1       0.691   9.213  20.373  0.00  0.00    +0.000 OA
BRANCH  17  18
ATOM     18  C   UNL     1       0.690   8.751  21.719  0.00  0.00    +0.000 C 
BRANCH  18  19
ATOM     19  C   UNL     1       0.128   9.818  22.663  0.00  0.00    +0.000 C 
ATOM     20  O   UNL     1       0.333   9.732  23.869  0.00  0.00    +0.000 OA
ATOM     21  N   UNL     1      -0.624  10.790  22.024  0.00  0.00    +0.000 N 
ATOM     22  H   UNL     1      -0.801  10.626  21.037  0.00  0.00    +0.000 HD
BRANCH  21  23
ATOM     23  C   UNL     1      -1.235  11.911  22.616  0.00  0.00    +0.000 A 
ATOM     24  C   UNL     1      -0.632  13.171  22.663  0.00  0.00    +0.000 A 
ATOM     25  C   UNL     1      -1.271  14.245  23.285  0.00  0.00    +0.000 A 
ATOM     26  C   UNL     1      -2.523  14.070  23.868  0.00  0.00    +0.000 A 
ATOM     27  C   UNL     1      -3.145  12.825  23.811  0.00  0.00    +0.000 A 
ATOM     28  C   UNL     1      -2.508  11.751  23.176  0.00  0.00    +0.000 A 
ENDBRANCH  21  23
ENDBRANCH  18  19
ENDBRANCH  17  18
ENDBRANCH   8  17
TORSDOF 7
ENDMDL
MODEL 5
REMARK VINA RESULT:      -7.7      3.227      6.040
REMARK  Name = 
REMARK  8 active torsions:
REMARK  status: ('A' for Active; 'I' for Inactive)
REMARK    1  A    between atoms: C_1  and  C_2
REMARK    2  A    between atoms: C_2  and  O_3
REMARK    3  A    between atoms: O_3  and  C_4
REMARK    4  A    between atoms: C_4  and  C_6
REMARK    5  A    between atoms: C_13  and  O_14
REMARK    6  A    between atoms: O_14  and  C_15
REMARK    7  A    between atoms: C_15  and  C_16
REMARK    8  A    between atoms: N_18  and  C_19
REMARK                            x       y       z     vdW  Elec       q    Type
REMARK                         _______ _______ _______ _____ _____    ______ ____
ROOT
ATOM      1  C   UNL     1       4.480   5.226  16.748  0.00  0.00    +0.000 A 
ATOM      2  C   UNL     1       4.245   3.998  17.232  0.00  0.00    +0.000 A 
ATOM      3  C   UNL     1       3.399   3.855  18.428  0.00  0.00    +0.000 A 
ATOM      4  O   UNL     1       3.158   2.754  18.903  0.00  0.00    +0.000 OA
ATOM      5  C   UNL     1       2.884   5.097  19.024  0.00  0.00    +0.000 A 
ATOM      6  C   UNL     1       2.099   5.075  20.178  0.00  0.00    +0.000 A 
ATOM      7  C   UNL     1       1.608   6.276  20.705  0.00  0.00    +0.000 A 
ATOM      8  C   UNL     1       1.908   7.488  20.079  0.00  0.00    +0.000 A 
ATOM      9  C   UNL     1       2.701   7.498  18.931  0.00  0.00    +0.000 A 
ATOM     10  C   UNL     1       3.190   6.305  18.408  0.00  0.00    +0.000 A 
ATOM     11  O   UNL     1       3.959   6.395  17.281  0.00  0.00    +0.000 OA
ENDROOT
BRANCH   1  12
ATOM     12  C   UNL     1       5.440   5.348  15.619  0.00  0.00    +0.000 C 
ATOM     13  O   UNL     1       5.506   4.574  14.677  0.00  0.00    +0.000 OA
BRANCH  12  14
ATOM     14  O   UNL     1       6.301   6.362  15.888  0.00  0.00    +0.000 OA
BRANCH  14  16
ATOM     15  C   UNL     1       7.526   7.304  17.704  0.00  0.00    +0.000 C 
ATOM     16  C   UNL     1       7.320   6.065  16.851  0.00  0.00    +0.000 C 
ENDBRANCH  14  16
ENDBRANCH  12  14
ENDBRANCH   1  12
BRANCH   8  17
ATOM     17  O   UNL     1       1.435   8.714  20.449  0.00  0.00    +0.000 OA
BRANCH  17  18
ATOM     18  C   UNL     1       1.230   9.646  19.394  0.00  0.00    +0.000 C 
BRANCH  18  19
ATOM     19  C   UNL     1      -0.261   9.941  19.208  0.00  0.00    +0.000 C 
ATOM     20  O   UNL     1      -1.022   9.855  20.167  0.00  0.00    +0.000 OA
ATOM     21  N   UNL     1      -0.613  10.249  17.905  0.00  0.00    +0.000 N 
ATOM     22  H   UNL     1       0.126  10.140  17.216  0.00  0.00    +0.000 HD
BRANCH  21  23
ATOM     23  C   UNL     1      -1.893  10.599  17.435  0.00  0.00    +0.000 A 
ATOM     24  C   UNL     1      -2.749  11.458  18.127  0.00  0.00    +0.000 A 
ATOM     25  C   UNL     1      -4.020  11.753  17.628  0.00  0.00    +0.000 A 
ATOM     26  C   UNL     1      -4.448  11.191  16.430  0.00  0.00    +0.000 A 
ATOM     27  C   UNL     1      -3.596  10.349  15.718  0.00  0.00    +0.000 A 
ATOM     28  C   UNL     1      -2.318  10.063  16.212  0.00  0.00    +0.000 A 
ENDBRANCH  21  23
ENDBRANCH  18  19
ENDBRANCH  17  18
ENDBRANCH   8  17
TORSDOF 7
ENDMDL
MODEL 6
REMARK VINA RESULT:      -7.7      2.925      5.181
REMARK  Name = 
REMARK  8 active torsions:
REMARK  status: ('A' for Active; 'I' for Inactive)
REMARK    1  A    between atoms: C_1  and  C_2
REMARK    2  A    between atoms: C_2  and  O_3
REMARK    3  A    between atoms: O_3  and  C_4
REMARK    4  A    between atoms: C_4  and  C_6
REMARK    5  A    between atoms: C_13  and  O_14
REMARK    6  A    between atoms: O_14  and  C_15
REMARK    7  A    between atoms: C_15  and  C_16
REMARK    8  A    between atoms: N_18  and  C_19
REMARK                            x       y       z     vdW  Elec       q    Type
REMARK                         _______ _______ _______ _____ _____    ______ ____
ROOT
ATOM      1  C   UNL     1       6.651   5.912  17.818  0.00  0.00    +0.000 A 
ATOM      2  C   UNL     1       6.391   5.675  16.524  0.00  0.00    +0.000 A 
ATOM      3  C   UNL     1       5.338   4.706  16.177  0.00  0.00    +0.000 A 
ATOM      4  O   UNL     1       5.066   4.459  15.010  0.00  0.00    +0.000 OA
ATOM      5  C   UNL     1       4.655   4.044  17.299  0.00  0.00    +0.000 A 
ATOM      6  C   UNL     1       3.663   3.086  17.079  0.00  0.00    +0.000 A 
ATOM      7  C   UNL     1       3.019   2.492  18.172  0.00  0.00    +0.000 A 
ATOM      8  C   UNL     1       3.373   2.857  19.473  0.00  0.00    +0.000 A 
ATOM      9  C   UNL     1       4.370   3.810  19.680  0.00  0.00    +0.000 A 
ATOM     10  C   UNL     1       5.011   4.399  18.594  0.00  0.00    +0.000 A 
ATOM     11  O   UNL     1       5.978   5.324  18.876  0.00  0.00    +0.000 OA
ENDROOT
BRANCH   1  12
ATOM     12  C   UNL     1       7.804   6.796  18.135  0.00  0.00    +0.000 C 
ATOM     13  O   UNL     1       8.487   6.710  19.143  0.00  0.00    +0.000 OA
BRANCH  12  14
ATOM     14  O   UNL     1       7.871   7.777  17.199  0.00  0.00    +0.000 OA
BRANCH  14  16
ATOM     15  C   UNL     1       8.718   9.812  18.109  0.00  0.00    +0.000 C 
ATOM     16  C   UNL     1       7.471   9.079  17.645  0.00  0.00    +0.000 C 
ENDBRANCH  14  16
ENDBRANCH  12  14
ENDBRANCH   1  12
BRANCH   8  17
ATOM     17  O   UNL     1       2.775   2.408  20.616  0.00  0.00    +0.000 OA
BRANCH  17  18
ATOM     18  C   UNL     1       2.289   3.411  21.499  0.00  0.00    +0.000 C 
BRANCH  18  19
ATOM     19  C   UNL     1       1.639   4.558  20.719  0.00  0.00    +0.000 C 
ATOM     20  O   UNL     1       0.615   4.352  20.077  0.00  0.00    +0.000 OA
ATOM     21  N   UNL     1       2.337   5.752  20.795  0.00  0.00    +0.000 N 
ATOM     22  H   UNL     1       3.239   5.702  21.261  0.00  0.00    +0.000 HD
BRANCH  21  23
ATOM     23  C   UNL     1       1.972   6.982  20.217  0.00  0.00    +0.000 A 
ATOM     24  C   UNL     1       2.313   7.341  18.911  0.00  0.00    +0.000 A 
ATOM     25  C   UNL     1       1.946   8.585  18.394  0.00  0.00    +0.000 A 
ATOM     26  C   UNL     1       1.233   9.485  19.179  0.00  0.00    +0.000 A 
ATOM     27  C   UNL     1       0.868   9.133  20.477  0.00  0.00    +0.000 A 
ATOM     28  C   UNL     1       1.225   7.880  20.990  0.00  0.00    +0.000 A 
ENDBRANCH  21  23
ENDBRANCH  18  19
ENDBRANCH  17  18
ENDBRANCH   8  17
TORSDOF 7
ENDMDL
MODEL 7
REMARK VINA RESULT:      -7.5      3.302      6.177
REMARK  Name = 
REMARK  8 active torsions:
REMARK  status: ('A' for Active; 'I' for Inactive)
REMARK    1  A    between atoms: C_1  and  C_2
REMARK    2  A    between atoms: C_2  and  O_3
REMARK    3  A    between atoms: O_3  and  C_4
REMARK    4  A    between atoms: C_4  and  C_6
REMARK    5  A    between atoms: C_13  and  O_14
REMARK    6  A    between atoms: O_14  and  C_15
REMARK    7  A    between atoms: C_15  and  C_16
REMARK    8  A    between atoms: N_18  and  C_19
REMARK                            x       y       z     vdW  Elec       q    Type
REMARK                         _______ _______ _______ _____ _____    ______ ____
ROOT
ATOM      1  C   UNL     1       5.045   5.137  16.915  0.00  0.00    +0.000 A 
ATOM      2  C   UNL     1       4.925   4.006  17.625  0.00  0.00    +0.000 A 
ATOM      3  C   UNL     1       4.009   3.984  18.777  0.00  0.00    +0.000 A 
ATOM      4  O   UNL     1       3.867   2.973  19.452  0.00  0.00    +0.000 OA
ATOM      5  C   UNL     1       3.300   5.236  19.079  0.00  0.00    +0.000 A 
ATOM      6  C   UNL     1       2.432   5.332  20.169  0.00  0.00    +0.000 A 
ATOM      7  C   UNL     1       1.757   6.534  20.415  0.00  0.00    +0.000 A 
ATOM      8  C   UNL     1       1.956   7.631  19.573  0.00  0.00    +0.000 A 
ATOM      9  C   UNL     1       2.831   7.526  18.492  0.00  0.00    +0.000 A 
ATOM     10  C   UNL     1       3.503   6.332  18.249  0.00  0.00    +0.000 A 
ATOM     11  O   UNL     1       4.344   6.305  17.171  0.00  0.00    +0.000 OA
ENDROOT
BRANCH   1  12
ATOM     12  C   UNL     1       6.071   5.167  15.840  0.00  0.00    +0.000 C 
ATOM     13  O   UNL     1       5.856   4.905  14.667  0.00  0.00    +0.000 OA
BRANCH  12  14
ATOM     14  O   UNL     1       7.285   5.394  16.402  0.00  0.00    +0.000 OA
BRANCH  14  16
ATOM     15  C   UNL     1       7.784   6.310  18.546  0.00  0.00    +0.000 C 
ATOM     16  C   UNL     1       7.413   6.634  17.110  0.00  0.00    +0.000 C 
ENDBRANCH  14  16
ENDBRANCH  12  14
ENDBRANCH   1  12
BRANCH   8  17
ATOM     17  O   UNL     1       1.309   8.830  19.661  0.00  0.00    +0.000 OA
BRANCH  17  18
ATOM     18  C   UNL     1       1.494   9.718  18.565  0.00  0.00    +0.000 C 
BRANCH  18  19
ATOM     19  C   UNL     1       0.237  10.557  18.323  0.00  0.00    +0.000 C 
ATOM     20  O   UNL     1       0.188  11.713  18.733  0.00  0.00    +0.000 OA
ATOM     21  N   UNL     1      -0.776   9.873  17.672  0.00  0.00    +0.000 N 
ATOM     22  H   UNL     1      -0.611   8.881  17.529  0.00  0.00    +0.000 HD
BRANCH  21  23
ATOM     23  C   UNL     1      -2.028  10.386  17.282  0.00  0.00    +0.000 A 
ATOM     24  C   UNL     1      -2.473  10.383  15.958  0.00  0.00    +0.000 A 
ATOM     25  C   UNL     1      -3.714  10.927  15.621  0.00  0.00    +0.000 A 
ATOM     26  C   UNL     1      -4.525  11.481  16.607  0.00  0.00    +0.000 A 
ATOM     27  C   UNL     1      -4.103  11.472  17.935  0.00  0.00    +0.000 A 
ATOM     28  C   UNL     1      -2.864  10.915  18.274  0.00  0.00    +0.000 A 
ENDBRANCH  21  23
ENDBRANCH  18  19
ENDBRANCH  17  18
ENDBRANCH   8  17
TORSDOF 7
ENDMDL
MODEL 8
REMARK VINA RESULT:      -7.5      4.477      7.686
REMARK  Name = 
REMARK  8 active torsions:
REMARK  status: ('A' for Active; 'I' for Inactive)
REMARK    1  A    between atoms: C_1  and  C_2
REMARK    2  A    between atoms: C_2  and  O_3
REMARK    3  A    between atoms: O_3  and  C_4
REMARK    4  A    between atoms: C_4  and  C_6
REMARK    5  A    between atoms: C_13  and  O_14
REMARK    6  A    between atoms: O_14  and  C_15
REMARK    7  A    between atoms: C_15  and  C_16
REMARK    8  A    between atoms: N_18  and  C_19
REMARK                            x       y       z     vdW  Elec       q    Type
REMARK                         _______ _______ _______ _____ _____    ______ ____
ROOT
ATOM      1  C   UNL     1       2.581   4.814  19.205  0.00  0.00    +0.000 A 
ATOM      2  C   UNL     1       2.244   3.867  18.318  0.00  0.00    +0.000 A 
ATOM      3  C   UNL     1       3.062   3.704  17.105  0.00  0.00    +0.000 A 
ATOM      4  O   UNL     1       2.792   2.852  16.270  0.00  0.00    +0.000 OA
ATOM      5  C   UNL     1       4.198   4.626  16.948  0.00  0.00    +0.000 A 
ATOM      6  C   UNL     1       5.019   4.578  15.819  0.00  0.00    +0.000 A 
ATOM      7  C   UNL     1       6.103   5.457  15.712  0.00  0.00    +0.000 A 
ATOM      8  C   UNL     1       6.357   6.379  16.731  0.00  0.00    +0.000 A 
ATOM      9  C   UNL     1       5.525   6.424  17.850  0.00  0.00    +0.000 A 
ATOM     10  C   UNL     1       4.446   5.551  17.955  0.00  0.00    +0.000 A 
ATOM     11  O   UNL     1       3.676   5.654  19.080  0.00  0.00    +0.000 OA
ENDROOT
BRANCH   1  12
ATOM     12  C   UNL     1       1.663   5.039  20.352  0.00  0.00    +0.000 C 
ATOM     13  O   UNL     1       1.525   6.105  20.931  0.00  0.00    +0.000 OA
BRANCH  12  14
ATOM     14  O   UNL     1       1.126   3.849  20.720  0.00  0.00    +0.000 OA
BRANCH  14  16
ATOM     15  C   UNL     1       2.769   2.309  21.503  0.00  0.00    +0.000 C 
ATOM     16  C   UNL     1       1.670   3.272  21.914  0.00  0.00    +0.000 C 
ENDBRANCH  14  16
ENDBRANCH  12  14
ENDBRANCH   1  12
BRANCH   8  17
ATOM     17  O   UNL     1       7.417   7.238  16.781  0.00  0.00    +0.000 OA
BRANCH  17  18
ATOM     18  C   UNL     1       7.926   7.522  18.079  0.00  0.00    +0.000 C 
BRANCH  18  19
ATOM     19  C   UNL     1       8.233   9.014  18.231  0.00  0.00    +0.000 C 
ATOM     20  O   UNL     1       7.652   9.830  17.522  0.00  0.00    +0.000 OA
ATOM     21  N   UNL     1       9.211   9.291  19.172  0.00  0.00    +0.000 N 
ATOM     22  H   UNL     1       9.679   8.480  19.567  0.00  0.00    +0.000 HD
BRANCH  21  23
ATOM     23  C   UNL     1       9.678  10.562  19.557  0.00  0.00    +0.000 A 
ATOM     24  C   UNL     1      10.559  11.317  18.779  0.00  0.00    +0.000 A 
ATOM     25  C   UNL     1      11.011  12.562  19.219  0.00  0.00    +0.000 A 
ATOM     26  C   UNL     1      10.586  13.067  20.444  0.00  0.00    +0.000 A 
ATOM     27  C   UNL     1       9.692  12.334  21.221  0.00  0.00    +0.000 A 
ATOM     28  C   UNL     1       9.229  11.091  20.773  0.00  0.00    +0.000 A 
ENDBRANCH  21  23
ENDBRANCH  18  19
ENDBRANCH  17  18
ENDBRANCH   8  17
TORSDOF 7
ENDMDL
MODEL 9
REMARK VINA RESULT:      -7.5      0.859      1.481
REMARK  Name = 
REMARK  8 active torsions:
REMARK  status: ('A' for Active; 'I' for Inactive)
REMARK    1  A    between atoms: C_1  and  C_2
REMARK    2  A    between atoms: C_2  and  O_3
REMARK    3  A    between atoms: O_3  and  C_4
REMARK    4  A    between atoms: C_4  and  C_6
REMARK    5  A    between atoms: C_13  and  O_14
REMARK    6  A    between atoms: O_14  and  C_15
REMARK    7  A    between atoms: C_15  and  C_16
REMARK    8  A    between atoms: N_18  and  C_19
REMARK                            x       y       z     vdW  Elec       q    Type
REMARK                         _______ _______ _______ _____ _____    ______ ____
ROOT
ATOM      1  C   UNL     1       6.028   3.540  12.969  0.00  0.00    +0.000 A 
ATOM      2  C   UNL     1       7.073   4.355  12.765  0.00  0.00    +0.000 A 
ATOM      3  C   UNL     1       7.602   5.130  13.899  0.00  0.00    +0.000 A 
ATOM      4  O   UNL     1       8.554   5.885  13.760  0.00  0.00    +0.000 OA
ATOM      5  C   UNL     1       6.915   4.962  15.189  0.00  0.00    +0.000 A 
ATOM      6  C   UNL     1       7.317   5.674  16.321  0.00  0.00    +0.000 A 
ATOM      7  C   UNL     1       6.654   5.474  17.538  0.00  0.00    +0.000 A 
ATOM      8  C   UNL     1       5.593   4.568  17.614  0.00  0.00    +0.000 A 
ATOM      9  C   UNL     1       5.196   3.867  16.475  0.00  0.00    +0.000 A 
ATOM     10  C   UNL     1       5.854   4.068  15.265  0.00  0.00    +0.000 A 
ATOM     11  O   UNL     1       5.408   3.347  14.193  0.00  0.00    +0.000 OA
ENDROOT
BRANCH   1  12
ATOM     12  C   UNL     1       5.437   2.871  11.780  0.00  0.00    +0.000 C 
ATOM     13  O   UNL     1       4.351   3.149  11.296  0.00  0.00    +0.000 OA
BRANCH  12  14
ATOM     14  O   UNL     1       6.233   1.831  11.424  0.00  0.00    +0.000 OA
BRANCH  14  16
ATOM     15  C   UNL     1       6.339  -0.551  11.426  0.00  0.00    +0.000 C 
ATOM     16  C   UNL     1       5.545   0.660  10.967  0.00  0.00    +0.000 C 
ENDBRANCH  14  16
ENDBRANCH  12  14
ENDBRANCH   1  12
BRANCH   8  17
ATOM     17  O   UNL     1       4.915   4.230  18.750  0.00  0.00    +0.000 OA
BRANCH  17  18
ATOM     18  C   UNL     1       3.571   3.798  18.566  0.00  0.00    +0.000 C 
BRANCH  18  19
ATOM     19  C   UNL     1       2.631   4.994  18.395  0.00  0.00    +0.000 C 
ATOM     20  O   UNL     1       1.637   4.890  17.683  0.00  0.00    +0.000 OA
ATOM     21  N   UNL     1       3.048   6.133  19.064  0.00  0.00    +0.000 N 
ATOM     22  H   UNL     1       3.967   6.076  19.494  0.00  0.00    +0.000 HD
BRANCH  21  23
ATOM     23  C   UNL     1       2.379   7.370  19.125  0.00  0.00    +0.000 A 
ATOM     24  C   UNL     1       1.719   7.823  20.270  0.00  0.00    +0.000 A 
ATOM     25  C   UNL     1       1.049   9.048  20.269  0.00  0.00    +0.000 A 
ATOM     26  C   UNL     1       1.032   9.835  19.121  0.00  0.00    +0.000 A 
ATOM     27  C   UNL     1       1.703   9.405  17.978  0.00  0.00    +0.000 A 
ATOM     28  C   UNL     1       2.385   8.182  17.984  0.00  0.00    +0.000 A 
ENDBRANCH  21  23
ENDBRANCH  18  19
ENDBRANCH  17  18
ENDBRANCH   8  17
TORSDOF 7
ENDMDL
