MODEL 1
REMARK VINA RESULT:      -6.8      0.000      0.000
REMARK  Name = 
REMARK  8 active torsions:
REMARK  status: ('A' for Active; 'I' for Inactive)
REMARK    1  A    between atoms: C_1  and  C_2
REMARK    2  A    between atoms: C_2  and  N_3
REMARK    3  A    between atoms: C_2  and  C_11
REMARK    4  A    between atoms: C_4  and  O_6
REMARK    5  A    between atoms: O_6  and  C_7
REMARK    6  A    between atoms: C_7  and  C_8
REMARK    7  A    between atoms: C_7  and  C_9
REMARK    8  A    between atoms: C_7  and  C_10
REMARK                            x       y       z     vdW  Elec       q    Type
REMARK                         _______ _______ _______ _____ _____    ______ ____
ROOT
ATOM      1  C   UNL     1       7.291   5.662  19.295  0.00  0.00    +0.000 C 
ATOM      2  C   UNL     1       6.219   5.825  18.225  0.00  0.00    +0.000 C 
ENDROOT
BRANCH   2   3
ATOM      3  C   UNL     1       6.853   5.914  16.826  0.00  0.00    +0.000 C 
ATOM      4  O   UNL     1       7.666   6.799  16.566  0.00  0.00    +0.000 OA
ATOM      5  N   UNL     1       6.459   4.890  15.989  0.00  0.00    +0.000 N 
ATOM      6  C   UNL     1       6.881   4.828  14.690  0.00  0.00    +0.000 A 
ATOM      7  N   UNL     1       7.798   5.539  14.087  0.00  0.00    +0.000 NA
ATOM      8  C   UNL     1       7.851   5.192  12.755  0.00  0.00    +0.000 A 
ATOM      9  C   UNL     1       6.943   4.234  12.355  0.00  0.00    +0.000 A 
ATOM     10  S   UNL     1       6.052   3.689  13.721  0.00  0.00    +0.000 S 
ATOM     11  H   UNL     1       5.802   4.186  16.299  0.00  0.00    +0.000 HD
ENDBRANCH   2   3
BRANCH   2  12
ATOM     12  N   UNL     1       5.296   4.704  18.257  0.00  0.00    +0.000 N 
ATOM     13  C   UNL     1       4.214   4.715  19.078  0.00  0.00    +0.000 C 
ATOM     14  O   UNL     1       3.955   5.653  19.825  0.00  0.00    +0.000 OA
ATOM     15  H   UNL     1       5.286   4.029  17.500  0.00  0.00    +0.000 HD
BRANCH  13  16
ATOM     16  O   UNL     1       3.525   3.559  18.966  0.00  0.00    +0.000 OA
BRANCH  16  17
ATOM     17  C   UNL     1       2.079   3.601  18.808  0.00  0.00    +0.000 C 
ATOM     18  C   UNL     1       1.510   2.197  18.574  0.00  0.00    +0.000 C 
ATOM     19  C   UNL     1       1.516   4.138  20.135  0.00  0.00    +0.000 C 
ATOM     20  C   UNL     1       1.676   4.585  17.700  0.00  0.00    +0.000 C 
ENDBRANCH  16  17
ENDBRANCH  13  16
ENDBRANCH   2  12
TORSDOF 4
ENDMDL
MODEL 2
REMARK VINA RESULT:      -6.7      0.602      1.264
REMARK  Name = 
REMARK  8 active torsions:
REMARK  status: ('A' for Active; 'I' for Inactive)
REMARK    1  A    between atoms: C_1  and  C_2
REMARK    2  A    between atoms: C_2  and  N_3
REMARK    3  A    between atoms: C_2  and  C_11
REMARK    4  A    between atoms: C_4  and  O_6
REMARK    5  A    between atoms: O_6  and  C_7
REMARK    6  A    between atoms: C_7  and  C_8
REMARK    7  A    between atoms: C_7  and  C_9
REMARK    8  A    between atoms: C_7  and  C_10
REMARK                            x       y       z     vdW  Elec       q    Type
REMARK                         _______ _______ _______ _____ _____    ______ ____
ROOT
ATOM      1  C   UNL     1       7.669   5.675  19.392  0.00  0.00    +0.000 C 
ATOM      2  C   UNL     1       6.508   5.765  18.410  0.00  0.00    +0.000 C 
ENDROOT
BRANCH   2   3
ATOM      3  C   UNL     1       7.025   5.861  16.963  0.00  0.00    +0.000 C 
ATOM      4  O   UNL     1       7.794   6.761  16.635  0.00  0.00    +0.000 OA
ATOM      5  N   UNL     1       6.585   4.824  16.165  0.00  0.00    +0.000 N 
ATOM      6  C   UNL     1       6.900   4.765  14.835  0.00  0.00    +0.000 A 
ATOM      7  N   UNL     1       7.750   5.491  14.157  0.00  0.00    +0.000 NA
ATOM      8  C   UNL     1       7.701   5.139  12.826  0.00  0.00    +0.000 A 
ATOM      9  C   UNL     1       6.783   4.161  12.506  0.00  0.00    +0.000 A 
ATOM     10  S   UNL     1       6.019   3.604  13.941  0.00  0.00    +0.000 S 
ATOM     11  H   UNL     1       5.970   4.109  16.529  0.00  0.00    +0.000 HD
ENDBRANCH   2   3
BRANCH   2  12
ATOM     12  N   UNL     1       5.649   4.600  18.531  0.00  0.00    +0.000 N 
ATOM     13  C   UNL     1       4.452   4.681  19.168  0.00  0.00    +0.000 C 
ATOM     14  O   UNL     1       4.032   5.720  19.666  0.00  0.00    +0.000 OA
ATOM     15  H   UNL     1       5.794   3.795  17.931  0.00  0.00    +0.000 HD
BRANCH  13  16
ATOM     16  O   UNL     1       3.848   3.472  19.191  0.00  0.00    +0.000 OA
BRANCH  16  17
ATOM     17  C   UNL     1       2.636   3.265  18.413  0.00  0.00    +0.000 C 
ATOM     18  C   UNL     1       2.110   4.591  17.852  0.00  0.00    +0.000 C 
ATOM     19  C   UNL     1       3.031   2.361  17.232  0.00  0.00    +0.000 C 
ATOM     20  C   UNL     1       1.576   2.518  19.236  0.00  0.00    +0.000 C 
ENDBRANCH  16  17
ENDBRANCH  13  16
ENDBRANCH   2  12
TORSDOF 4
ENDMDL
MODEL 3
REMARK VINA RESULT:      -6.7      0.983      1.333
REMARK  Name = 
REMARK  8 active torsions:
REMARK  status: ('A' for Active; 'I' for Inactive)
REMARK    1  A    between atoms: C_1  and  C_2
REMARK    2  A    between atoms: C_2  and  N_3
REMARK    3  A    between atoms: C_2  and  C_11
REMARK    4  A    between atoms: C_4  and  O_6
REMARK    5  A    between atoms: O_6  and  C_7
REMARK    6  A    between atoms: C_7  and  C_8
REMARK    7  A    between atoms: C_7  and  C_9
REMARK    8  A    between atoms: C_7  and  C_10
REMARK                            x       y       z     vdW  Elec       q    Type
REMARK                         _______ _______ _______ _____ _____    ______ ____
ROOT
ATOM      1  C   UNL     1       6.485   5.359  19.087  0.00  0.00    +0.000 C 
ATOM      2  C   UNL     1       5.624   5.712  17.882  0.00  0.00    +0.000 C 
ENDROOT
BRANCH   2   3
ATOM      3  C   UNL     1       6.483   5.814  16.609  0.00  0.00    +0.000 C 
ATOM      4  O   UNL     1       7.392   6.638  16.535  0.00  0.00    +0.000 OA
ATOM      5  N   UNL     1       6.153   4.868  15.659  0.00  0.00    +0.000 N 
ATOM      6  C   UNL     1       6.775   4.833  14.442  0.00  0.00    +0.000 A 
ATOM      7  N   UNL     1       7.830   5.490  14.037  0.00  0.00    +0.000 NA
ATOM      8  C   UNL     1       8.072   5.205  12.711  0.00  0.00    +0.000 A 
ATOM      9  C   UNL     1       7.171   4.348  12.115  0.00  0.00    +0.000 A 
ATOM     10  S   UNL     1       6.030   3.815  13.286  0.00  0.00    +0.000 S 
ATOM     11  H   UNL     1       5.402   4.209  15.817  0.00  0.00    +0.000 HD
ENDBRANCH   2   3
BRANCH   2  12
ATOM     12  N   UNL     1       4.595   4.707  17.681  0.00  0.00    +0.000 N 
ATOM     13  C   UNL     1       3.291   4.982  17.946  0.00  0.00    +0.000 C 
ATOM     14  O   UNL     1       2.912   6.072  18.360  0.00  0.00    +0.000 OA
ATOM     15  H   UNL     1       4.781   3.895  17.103  0.00  0.00    +0.000 HD
BRANCH  13  16
ATOM     16  O   UNL     1       2.525   3.891  17.723  0.00  0.00    +0.000 OA
BRANCH  16  17
ATOM     17  C   UNL     1       2.306   2.940  18.802  0.00  0.00    +0.000 C 
ATOM     18  C   UNL     1       0.850   2.460  18.824  0.00  0.00    +0.000 C 
ATOM     19  C   UNL     1       3.210   1.732  18.502  0.00  0.00    +0.000 C 
ATOM     20  C   UNL     1       2.746   3.527  20.150  0.00  0.00    +0.000 C 
ENDBRANCH  16  17
ENDBRANCH  13  16
ENDBRANCH   2  12
TORSDOF 4
ENDMDL
MODEL 4
REMARK VINA RESULT:      -6.6      0.909      1.228
REMARK  Name = 
REMARK  8 active torsions:
REMARK  status: ('A' for Active; 'I' for Inactive)
REMARK    1  A    between atoms: C_1  and  C_2
REMARK    2  A    between atoms: C_2  and  N_3
REMARK    3  A    between atoms: C_2  and  C_11
REMARK    4  A    between atoms: C_4  and  O_6
REMARK    5  A    between atoms: O_6  and  C_7
REMARK    6  A    between atoms: C_7  and  C_8
REMARK    7  A    between atoms: C_7  and  C_9
REMARK    8  A    between atoms: C_7  and  C_10
REMARK                            x       y       z     vdW  Elec       q    Type
REMARK                         _______ _______ _______ _____ _____    ______ ____
ROOT
ATOM      1  C   UNL     1       6.687   5.218  19.097  0.00  0.00    +0.000 C 
ATOM      2  C   UNL     1       5.821   5.774  17.973  0.00  0.00    +0.000 C 
ENDROOT
BRANCH   2   3
ATOM      3  C   UNL     1       6.621   5.862  16.661  0.00  0.00    +0.000 C 
ATOM      4  O   UNL     1       7.523   6.687  16.536  0.00  0.00    +0.000 OA
ATOM      5  N   UNL     1       6.250   4.903  15.740  0.00  0.00    +0.000 N 
ATOM      6  C   UNL     1       6.816   4.853  14.496  0.00  0.00    +0.000 A 
ATOM      7  N   UNL     1       7.849   5.508  14.034  0.00  0.00    +0.000 NA
ATOM      8  C   UNL     1       8.032   5.205  12.703  0.00  0.00    +0.000 A 
ATOM      9  C   UNL     1       7.107   4.339  12.160  0.00  0.00    +0.000 A 
ATOM     10  S   UNL     1       6.022   3.819  13.389  0.00  0.00    +0.000 S 
ATOM     11  H   UNL     1       5.510   4.244  15.941  0.00  0.00    +0.000 HD
ENDBRANCH   2   3
BRANCH   2  12
ATOM     12  N   UNL     1       4.657   4.931  17.764  0.00  0.00    +0.000 N 
ATOM     13  C   UNL     1       3.501   5.158  18.441  0.00  0.00    +0.000 C 
ATOM     14  O   UNL     1       3.373   6.071  19.250  0.00  0.00    +0.000 OA
ATOM     15  H   UNL     1       4.595   4.342  16.941  0.00  0.00    +0.000 HD
BRANCH  13  16
ATOM     16  O   UNL     1       2.574   4.231  18.115  0.00  0.00    +0.000 OA
BRANCH  16  17
ATOM     17  C   UNL     1       2.547   2.966  18.833  0.00  0.00    +0.000 C 
ATOM     18  C   UNL     1       3.092   3.130  20.256  0.00  0.00    +0.000 C 
ATOM     19  C   UNL     1       1.067   2.554  18.925  0.00  0.00    +0.000 C 
ATOM     20  C   UNL     1       3.286   1.872  18.048  0.00  0.00    +0.000 C 
ENDBRANCH  16  17
ENDBRANCH  13  16
ENDBRANCH   2  12
TORSDOF 4
ENDMDL
MODEL 5
REMARK VINA RESULT:      -6.5      4.489      7.334
REMARK  Name = 
REMARK  8 active torsions:
REMARK  status: ('A' for Active; 'I' for Inactive)
REMARK    1  A    between atoms: C_1  and  C_2
REMARK    2  A    between atoms: C_2  and  N_3
REMARK    3  A    between atoms: C_2  and  C_11
REMARK    4  A    between atoms: C_4  and  O_6
REMARK    5  A    between atoms: O_6  and  C_7
REMARK    6  A    between atoms: C_7  and  C_8
REMARK    7  A    between atoms: C_7  and  C_9
REMARK    8  A    between atoms: C_7  and  C_10
REMARK                            x       y       z     vdW  Elec       q    Type
REMARK                         _______ _______ _______ _____ _____    ______ ____
ROOT
ATOM      1  C   UNL     1       2.111   4.906  21.043  0.00  0.00    +0.000 C 
ATOM      2  C   UNL     1       2.673   5.514  19.764  0.00  0.00    +0.000 C 
ENDROOT
BRANCH   2   3
ATOM      3  C   UNL     1       2.205   6.971  19.602  0.00  0.00    +0.000 C 
ATOM      4  O   UNL     1       2.370   7.563  18.538  0.00  0.00    +0.000 OA
ATOM      5  N   UNL     1       1.558   7.456  20.720  0.00  0.00    +0.000 N 
ATOM      6  C   UNL     1       1.112   8.748  20.783  0.00  0.00    +0.000 A 
ATOM      7  N   UNL     1       1.040   9.641  19.830  0.00  0.00    +0.000 NA
ATOM      8  C   UNL     1       0.596  10.837  20.350  0.00  0.00    +0.000 A 
ATOM      9  C   UNL     1       0.363  10.842  21.709  0.00  0.00    +0.000 A 
ATOM     10  S   UNL     1       0.629   9.265  22.339  0.00  0.00    +0.000 S 
ATOM     11  H   UNL     1       1.445   6.885  21.548  0.00  0.00    +0.000 HD
ENDBRANCH   2   3
BRANCH   2  12
ATOM     12  N   UNL     1       4.125   5.481  19.781  0.00  0.00    +0.000 N 
ATOM     13  C   UNL     1       4.811   4.613  18.993  0.00  0.00    +0.000 C 
ATOM     14  O   UNL     1       4.259   3.824  18.235  0.00  0.00    +0.000 OA
ATOM     15  H   UNL     1       4.648   6.259  20.165  0.00  0.00    +0.000 HD
BRANCH  13  16
ATOM     16  O   UNL     1       6.140   4.735  19.204  0.00  0.00    +0.000 OA
BRANCH  16  17
ATOM     17  C   UNL     1       6.942   5.517  18.275  0.00  0.00    +0.000 C 
ATOM     18  C   UNL     1       8.025   6.309  19.015  0.00  0.00    +0.000 C 
ATOM     19  C   UNL     1       7.631   4.505  17.343  0.00  0.00    +0.000 C 
ATOM     20  C   UNL     1       6.053   6.418  17.405  0.00  0.00    +0.000 C 
ENDBRANCH  16  17
ENDBRANCH  13  16
ENDBRANCH   2  12
TORSDOF 4
ENDMDL
MODEL 6
REMARK VINA RESULT:      -6.5      4.529      7.376
REMARK  Name = 
REMARK  8 active torsions:
REMARK  status: ('A' for Active; 'I' for Inactive)
REMARK    1  A    between atoms: C_1  and  C_2
REMARK    2  A    between atoms: C_2  and  N_3
REMARK    3  A    between atoms: C_2  and  C_11
REMARK    4  A    between atoms: C_4  and  O_6
REMARK    5  A    between atoms: O_6  and  C_7
REMARK    6  A    between atoms: C_7  and  C_8
REMARK    7  A    between atoms: C_7  and  C_9
REMARK    8  A    between atoms: C_7  and  C_10
REMARK                            x       y       z     vdW  Elec       q    Type
REMARK                         _______ _______ _______ _____ _____    ______ ____
ROOT
ATOM      1  C   UNL     1       2.106   4.948  21.030  0.00  0.00    +0.000 C 
ATOM      2  C   UNL     1       2.661   5.590  19.765  0.00  0.00    +0.000 C 
ENDROOT
BRANCH   2   3
ATOM      3  C   UNL     1       2.188   7.049  19.641  0.00  0.00    +0.000 C 
ATOM      4  O   UNL     1       2.392   7.685  18.609  0.00  0.00    +0.000 OA
ATOM      5  N   UNL     1       1.491   7.485  20.750  0.00  0.00    +0.000 N 
ATOM      6  C   UNL     1       1.032   8.770  20.845  0.00  0.00    +0.000 A 
ATOM      7  N   UNL     1       0.993   9.700  19.927  0.00  0.00    +0.000 NA
ATOM      8  C   UNL     1       0.517  10.871  20.475  0.00  0.00    +0.000 A 
ATOM      9  C   UNL     1       0.228  10.820  21.823  0.00  0.00    +0.000 A 
ATOM     10  S   UNL     1       0.480   9.220  22.400  0.00  0.00    +0.000 S 
ATOM     11  H   UNL     1       1.348   6.880  21.548  0.00  0.00    +0.000 HD
ENDBRANCH   2   3
BRANCH   2  12
ATOM     12  N   UNL     1       4.112   5.560  19.774  0.00  0.00    +0.000 N 
ATOM     13  C   UNL     1       4.795   4.643  19.042  0.00  0.00    +0.000 C 
ATOM     14  O   UNL     1       4.240   3.803  18.342  0.00  0.00    +0.000 OA
ATOM     15  H   UNL     1       4.637   6.364  20.102  0.00  0.00    +0.000 HD
BRANCH  13  16
ATOM     16  O   UNL     1       6.125   4.781  19.235  0.00  0.00    +0.000 OA
BRANCH  16  17
ATOM     17  C   UNL     1       6.925   5.468  18.232  0.00  0.00    +0.000 C 
ATOM     18  C   UNL     1       6.070   6.455  17.429  0.00  0.00    +0.000 C 
ATOM     19  C   UNL     1       7.991   6.265  19.003  0.00  0.00    +0.000 C 
ATOM     20  C   UNL     1       7.657   4.464  17.330  0.00  0.00    +0.000 C 
ENDBRANCH  16  17
ENDBRANCH  13  16
ENDBRANCH   2  12
TORSDOF 4
ENDMDL
MODEL 7
REMARK VINA RESULT:      -6.4      4.451      7.282
REMARK  Name = 
REMARK  8 active torsions:
REMARK  status: ('A' for Active; 'I' for Inactive)
REMARK    1  A    between atoms: C_1  and  C_2
REMARK    2  A    between atoms: C_2  and  N_3
REMARK    3  A    between atoms: C_2  and  C_11
REMARK    4  A    between atoms: C_4  and  O_6
REMARK    5  A    between atoms: O_6  and  C_7
REMARK    6  A    between atoms: C_7  and  C_8
REMARK    7  A    between atoms: C_7  and  C_9
REMARK    8  A    between atoms: C_7  and  C_10
REMARK                            x       y       z     vdW  Elec       q    Type
REMARK                         _______ _______ _______ _____ _____    ______ ____
ROOT
ATOM      1  C   UNL     1       2.145   4.842  21.048  0.00  0.00    +0.000 C 
ATOM      2  C   UNL     1       2.698   5.444  19.763  0.00  0.00    +0.000 C 
ENDROOT
BRANCH   2   3
ATOM      3  C   UNL     1       2.201   6.888  19.578  0.00  0.00    +0.000 C 
ATOM      4  O   UNL     1       2.291   7.443  18.486  0.00  0.00    +0.000 OA
ATOM      5  N   UNL     1       1.619   7.406  20.717  0.00  0.00    +0.000 N 
ATOM      6  C   UNL     1       1.160   8.694  20.761  0.00  0.00    +0.000 A 
ATOM      7  N   UNL     1       1.017   9.551  19.784  0.00  0.00    +0.000 NA
ATOM      8  C   UNL     1       0.589  10.760  20.288  0.00  0.00    +0.000 A 
ATOM      9  C   UNL     1       0.442  10.812  21.658  0.00  0.00    +0.000 A 
ATOM     10  S   UNL     1       0.768   9.262  22.326  0.00  0.00    +0.000 S 
ATOM     11  H   UNL     1       1.565   6.864  21.570  0.00  0.00    +0.000 HD
ENDBRANCH   2   3
BRANCH   2  12
ATOM     12  N   UNL     1       4.150   5.440  19.784  0.00  0.00    +0.000 N 
ATOM     13  C   UNL     1       4.858   4.598  18.987  0.00  0.00    +0.000 C 
ATOM     14  O   UNL     1       4.324   3.808  18.216  0.00  0.00    +0.000 OA
ATOM     15  H   UNL     1       4.656   6.224  20.181  0.00  0.00    +0.000 HD
BRANCH  13  16
ATOM     16  O   UNL     1       6.183   4.744  19.205  0.00  0.00    +0.000 OA
BRANCH  16  17
ATOM     17  C   UNL     1       6.989   5.474  18.237  0.00  0.00    +0.000 C 
ATOM     18  C   UNL     1       7.603   4.522  17.205  0.00  0.00    +0.000 C 
ATOM     19  C   UNL     1       6.027   6.427  17.507  0.00  0.00    +0.000 C 
ATOM     20  C   UNL     1       8.049   6.333  18.941  0.00  0.00    +0.000 C 
ENDBRANCH  16  17
ENDBRANCH  13  16
ENDBRANCH   2  12
TORSDOF 4
ENDMDL
MODEL 8
REMARK VINA RESULT:      -6.3      2.824      6.207
REMARK  Name = 
REMARK  8 active torsions:
REMARK  status: ('A' for Active; 'I' for Inactive)
REMARK    1  A    between atoms: C_1  and  C_2
REMARK    2  A    between atoms: C_2  and  N_3
REMARK    3  A    between atoms: C_2  and  C_11
REMARK    4  A    between atoms: C_4  and  O_6
REMARK    5  A    between atoms: O_6  and  C_7
REMARK    6  A    between atoms: C_7  and  C_8
REMARK    7  A    between atoms: C_7  and  C_9
REMARK    8  A    between atoms: C_7  and  C_10
REMARK                            x       y       z     vdW  Elec       q    Type
REMARK                         _______ _______ _______ _____ _____    ______ ____
ROOT
ATOM      1  C   UNL     1       2.310   8.681  17.593  0.00  0.00    +0.000 C 
ATOM      2  C   UNL     1       3.330   7.644  18.046  0.00  0.00    +0.000 C 
ENDROOT
BRANCH   2   3
ATOM      3  C   UNL     1       2.683   6.626  19.003  0.00  0.00    +0.000 C 
ATOM      4  O   UNL     1       2.408   6.945  20.158  0.00  0.00    +0.000 OA
ATOM      5  N   UNL     1       2.415   5.414  18.399  0.00  0.00    +0.000 N 
ATOM      6  C   UNL     1       1.885   4.368  19.103  0.00  0.00    +0.000 A 
ATOM      7  N   UNL     1       1.395   4.356  20.315  0.00  0.00    +0.000 NA
ATOM      8  C   UNL     1       1.034   3.070  20.655  0.00  0.00    +0.000 A 
ATOM      9  C   UNL     1       1.285   2.112  19.696  0.00  0.00    +0.000 A 
ATOM     10  S   UNL     1       1.917   2.866  18.286  0.00  0.00    +0.000 S 
ATOM     11  H   UNL     1       2.655   5.249  17.431  0.00  0.00    +0.000 HD
ENDBRANCH   2   3
BRANCH   2  12
ATOM     12  N   UNL     1       3.879   6.938  16.902  0.00  0.00    +0.000 N 
ATOM     13  C   UNL     1       5.221   6.843  16.720  0.00  0.00    +0.000 C 
ATOM     14  O   UNL     1       6.034   7.336  17.496  0.00  0.00    +0.000 OA
ATOM     15  H   UNL     1       3.301   6.291  16.377  0.00  0.00    +0.000 HD
BRANCH  13  16
ATOM     16  O   UNL     1       5.496   6.179  15.576  0.00  0.00    +0.000 OA
BRANCH  16  17
ATOM     17  C   UNL     1       5.949   4.798  15.644  0.00  0.00    +0.000 C 
ATOM     18  C   UNL     1       4.877   3.898  16.269  0.00  0.00    +0.000 C 
ATOM     19  C   UNL     1       6.174   4.346  14.190  0.00  0.00    +0.000 C 
ATOM     20  C   UNL     1       7.295   4.695  16.376  0.00  0.00    +0.000 C 
ENDBRANCH  16  17
ENDBRANCH  13  16
ENDBRANCH   2  12
TORSDOF 4
ENDMDL
MODEL 9
REMARK VINA RESULT:      -6.2      2.867      6.166
REMARK  Name = 
REMARK  8 active torsions:
REMARK  status: ('A' for Active; 'I' for Inactive)
REMARK    1  A    between atoms: C_1  and  C_2
REMARK    2  A    between atoms: C_2  and  N_3
REMARK    3  A    between atoms: C_2  and  C_11
REMARK    4  A    between atoms: C_4  and  O_6
REMARK    5  A    between atoms: O_6  and  C_7
REMARK    6  A    between atoms: C_7  and  C_8
REMARK    7  A    between atoms: C_7  and  C_9
REMARK    8  A    between atoms: C_7  and  C_10
REMARK                            x       y       z     vdW  Elec       q    Type
REMARK                         _______ _______ _______ _____ _____    ______ ____
ROOT
ATOM      1  C   UNL     1       2.257   8.724  17.626  0.00  0.00    +0.000 C 
ATOM      2  C   UNL     1       3.281   7.671  18.030  0.00  0.00    +0.000 C 
ENDROOT
BRANCH   2   3
ATOM      3  C   UNL     1       2.654   6.638  18.983  0.00  0.00    +0.000 C 
ATOM      4  O   UNL     1       2.387   6.943  20.143  0.00  0.00    +0.000 OA
ATOM      5  N   UNL     1       2.391   5.430  18.369  0.00  0.00    +0.000 N 
ATOM      6  C   UNL     1       1.877   4.372  19.068  0.00  0.00    +0.000 A 
ATOM      7  N   UNL     1       1.399   4.343  20.285  0.00  0.00    +0.000 NA
ATOM      8  C   UNL     1       1.053   3.051  20.615  0.00  0.00    +0.000 A 
ATOM      9  C   UNL     1       1.304   2.104  19.645  0.00  0.00    +0.000 A 
ATOM     10  S   UNL     1       1.915   2.879  18.236  0.00  0.00    +0.000 S 
ATOM     11  H   UNL     1       2.623   5.276  17.397  0.00  0.00    +0.000 HD
ENDBRANCH   2   3
BRANCH   2  12
ATOM     12  N   UNL     1       3.794   6.985  16.857  0.00  0.00    +0.000 N 
ATOM     13  C   UNL     1       5.130   6.817  16.677  0.00  0.00    +0.000 C 
ATOM     14  O   UNL     1       5.965   7.223  17.478  0.00  0.00    +0.000 OA
ATOM     15  H   UNL     1       3.182   6.400  16.300  0.00  0.00    +0.000 HD
BRANCH  13  16
ATOM     16  O   UNL     1       5.373   6.190  15.506  0.00  0.00    +0.000 OA
BRANCH  16  17
ATOM     17  C   UNL     1       5.880   4.826  15.517  0.00  0.00    +0.000 C 
ATOM     18  C   UNL     1       7.268   4.761  16.165  0.00  0.00    +0.000 C 
ATOM     19  C   UNL     1       4.903   4.010  16.381  0.00  0.00    +0.000 C 
ATOM     20  C   UNL     1       5.867   4.222  14.105  0.00  0.00    +0.000 C 
ENDBRANCH  16  17
ENDBRANCH  13  16
ENDBRANCH   2  12
TORSDOF 4
ENDMDL
