MODEL 1
REMARK VINA RESULT:      -7.9      0.000      0.000
REMARK  Name = 
REMARK  12 active torsions:
REMARK  status: ('A' for Active; 'I' for Inactive)
REMARK    1  A    between atoms: C_1  and  C_2
REMARK    2  A    between atoms: C_2  and  C_3
REMARK    3  A    between atoms: C_2  and  C_4
REMARK    4  A    between atoms: C_2  and  C_5
REMARK    5  A    between atoms: C_5  and  O_7
REMARK    6  A    between atoms: O_7  and  C_8
REMARK    7  A    between atoms: C_8  and  N_9
REMARK    8  A    between atoms: C_11  and  C_12
REMARK    9  A    between atoms: C_14  and  C_15
REMARK   10  A    between atoms: C_15  and  O_16
REMARK   11  A    between atoms: C_17  and  O_18
REMARK   12  A    between atoms: C_19  and  O_20
REMARK                            x       y       z     vdW  Elec       q    Type
REMARK                         _______ _______ _______ _____ _____    ______ ____
ROOT
ATOM      1  N   UNL     1       2.597   5.588  19.426  0.00  0.00    +0.000 N 
ATOM      2  N   UNL     1       3.749   6.032  18.864  0.00  0.00    +0.000 NA
ATOM      3  C   UNL     1       4.155   4.996  18.109  0.00  0.00    +0.000 A 
ATOM      4  C   UNL     1       3.278   3.895  18.230  0.00  0.00    +0.000 A 
ATOM      5  N   UNL     1       3.319   2.663  17.672  0.00  0.00    +0.000 NA
ATOM      6  C   UNL     1       2.324   1.868  18.088  0.00  0.00    +0.000 A 
ATOM      7  N   UNL     1       1.353   2.155  18.977  0.00  0.00    +0.000 NA
ATOM      8  C   UNL     1       1.328   3.384  19.532  0.00  0.00    +0.000 A 
ATOM      9  N   UNL     1       0.347   3.632  20.471  0.00  0.00    +0.000 N 
ATOM     10  C   UNL     1       2.301   4.284  19.131  0.00  0.00    +0.000 A 
ATOM     11  H   UNL     1      -0.361   2.903  20.443  0.00  0.00    +0.000 HD
ATOM     12  H   UNL     1      -0.010   4.577  20.518  0.00  0.00    +0.000 HD
ENDROOT
BRANCH   3  13
ATOM     13  C   UNL     1       5.419   5.052  17.309  0.00  0.00    +0.000 C 
ATOM     14  O   UNL     1       6.558   4.555  18.065  0.00  0.00    +0.000 OA
ATOM     15  C   UNL     1       7.669   5.469  17.905  0.00  0.00    +0.000 C 
ATOM     16  C   UNL     1       7.300   6.395  16.753  0.00  0.00    +0.000 C 
ATOM     17  C   UNL     1       5.781   6.461  16.825  0.00  0.00    +0.000 C 
BRANCH  16  18
ATOM     18  O   UNL     1       7.664   5.819  15.482  0.00  0.00    +0.000 OA
ATOM     19  H   UNL     1       6.867   5.419  15.085  0.00  0.00    +0.000 HD
ENDBRANCH  16  18
BRANCH  17  20
ATOM     20  O   UNL     1       5.222   6.769  15.546  0.00  0.00    +0.000 OA
ATOM     21  H   UNL     1       4.687   7.581  15.674  0.00  0.00    +0.000 HD
ENDBRANCH  17  20
BRANCH  15  22
ATOM     22  C   UNL     1       7.911   6.212  19.221  0.00  0.00    +0.000 C 
BRANCH  22  23
ATOM     23  O   UNL     1       7.902   5.294  20.313  0.00  0.00    +0.000 OA
ATOM     24  H   UNL     1       6.961   5.130  20.514  0.00  0.00    +0.000 HD
ENDBRANCH  22  23
ENDBRANCH  15  22
ENDBRANCH   3  13
BRANCH   1  25
ATOM     25  C   UNL     1       1.826   6.484  20.277  0.00  0.00    +0.000 C 
BRANCH  25  26
ATOM     26  O   UNL     1       1.931   7.836  19.795  0.00  0.00    +0.000 OA
BRANCH  26  27
ATOM     27  C   UNL     1       1.203   8.740  20.513  0.00  0.00    +0.000 C 
ATOM     28  O   UNL     1       0.896   8.593  21.688  0.00  0.00    +0.000 OA
BRANCH  27  30
ATOM     29  C   UNL     1       1.148  11.235  20.417  0.00  0.00    +0.000 C 
ATOM     30  C   UNL     1       0.786   9.944  19.662  0.00  0.00    +0.000 C 
ATOM     31  C   UNL     1      -0.732   9.913  19.436  0.00  0.00    +0.000 C 
ATOM     32  C   UNL     1       1.523   9.929  18.319  0.00  0.00    +0.000 C 
ENDBRANCH  27  30
ENDBRANCH  26  27
ENDBRANCH  25  26
ENDBRANCH   1  25
TORSDOF 9
ENDMDL
MODEL 2
REMARK VINA RESULT:      -7.8      0.650      1.060
REMARK  Name = 
REMARK  12 active torsions:
REMARK  status: ('A' for Active; 'I' for Inactive)
REMARK    1  A    between atoms: C_1  and  C_2
REMARK    2  A    between atoms: C_2  and  C_3
REMARK    3  A    between atoms: C_2  and  C_4
REMARK    4  A    between atoms: C_2  and  C_5
REMARK    5  A    between atoms: C_5  and  O_7
REMARK    6  A    between atoms: O_7  and  C_8
REMARK    7  A    between atoms: C_8  and  N_9
REMARK    8  A    between atoms: C_11  and  C_12
REMARK    9  A    between atoms: C_14  and  C_15
REMARK   10  A    between atoms: C_15  and  O_16
REMARK   11  A    between atoms: C_17  and  O_18
REMARK   12  A    between atoms: C_19  and  O_20
REMARK                            x       y       z     vdW  Elec       q    Type
REMARK                         _______ _______ _______ _____ _____    ______ ____
ROOT
ATOM      1  N   UNL     1       2.522   5.666  19.342  0.00  0.00    +0.000 N 
ATOM      2  N   UNL     1       3.668   6.091  18.752  0.00  0.00    +0.000 NA
ATOM      3  C   UNL     1       4.064   5.032  18.025  0.00  0.00    +0.000 A 
ATOM      4  C   UNL     1       3.187   3.936  18.191  0.00  0.00    +0.000 A 
ATOM      5  N   UNL     1       3.221   2.687  17.670  0.00  0.00    +0.000 NA
ATOM      6  C   UNL     1       2.230   1.907  18.124  0.00  0.00    +0.000 A 
ATOM      7  N   UNL     1       1.271   2.223  19.014  0.00  0.00    +0.000 NA
ATOM      8  C   UNL     1       1.253   3.468  19.531  0.00  0.00    +0.000 A 
ATOM      9  N   UNL     1       0.284   3.746  20.474  0.00  0.00    +0.000 N 
ATOM     10  C   UNL     1       2.222   4.354  19.091  0.00  0.00    +0.000 A 
ATOM     11  H   UNL     1      -0.425   3.017  20.478  0.00  0.00    +0.000 HD
ATOM     12  H   UNL     1      -0.072   4.693  20.496  0.00  0.00    +0.000 HD
ENDROOT
BRANCH   3  13
ATOM     13  C   UNL     1       5.318   5.062  17.208  0.00  0.00    +0.000 C 
ATOM     14  O   UNL     1       6.431   4.437  17.906  0.00  0.00    +0.000 OA
ATOM     15  C   UNL     1       7.598   5.284  17.791  0.00  0.00    +0.000 C 
ATOM     16  C   UNL     1       7.278   6.313  16.715  0.00  0.00    +0.000 C 
ATOM     17  C   UNL     1       5.768   6.475  16.820  0.00  0.00    +0.000 C 
BRANCH  16  18
ATOM     18  O   UNL     1       7.585   5.808  15.400  0.00  0.00    +0.000 OA
ATOM     19  H   UNL     1       6.978   6.226  14.760  0.00  0.00    +0.000 HD
ENDBRANCH  16  18
BRANCH  17  20
ATOM     20  O   UNL     1       5.214   6.912  15.576  0.00  0.00    +0.000 OA
ATOM     21  H   UNL     1       5.617   7.787  15.395  0.00  0.00    +0.000 HD
ENDBRANCH  17  20
BRANCH  15  22
ATOM     22  C   UNL     1       7.907   5.912  19.153  0.00  0.00    +0.000 C 
BRANCH  22  23
ATOM     23  O   UNL     1       8.483   7.206  18.977  0.00  0.00    +0.000 OA
ATOM     24  H   UNL     1       7.762   7.774  18.644  0.00  0.00    +0.000 HD
ENDBRANCH  22  23
ENDBRANCH  15  22
ENDBRANCH   3  13
BRANCH   1  25
ATOM     25  C   UNL     1       1.762   6.590  20.173  0.00  0.00    +0.000 C 
BRANCH  25  26
ATOM     26  O   UNL     1       2.130   7.947  19.869  0.00  0.00    +0.000 OA
BRANCH  26  27
ATOM     27  C   UNL     1       1.117   8.847  20.031  0.00  0.00    +0.000 C 
ATOM     28  O   UNL     1       0.351   8.851  20.984  0.00  0.00    +0.000 OA
BRANCH  27  30
ATOM     29  C   UNL     1      -0.402   9.813  18.300  0.00  0.00    +0.000 C 
ATOM     30  C   UNL     1       1.031   9.830  18.859  0.00  0.00    +0.000 C 
ATOM     31  C   UNL     1       1.999   9.395  17.751  0.00  0.00    +0.000 C 
ATOM     32  C   UNL     1       1.366  11.250  19.329  0.00  0.00    +0.000 C 
ENDBRANCH  27  30
ENDBRANCH  26  27
ENDBRANCH  25  26
ENDBRANCH   1  25
TORSDOF 9
ENDMDL
MODEL 3
REMARK VINA RESULT:      -7.6      0.883      1.196
REMARK  Name = 
REMARK  12 active torsions:
REMARK  status: ('A' for Active; 'I' for Inactive)
REMARK    1  A    between atoms: C_1  and  C_2
REMARK    2  A    between atoms: C_2  and  C_3
REMARK    3  A    between atoms: C_2  and  C_4
REMARK    4  A    between atoms: C_2  and  C_5
REMARK    5  A    between atoms: C_5  and  O_7
REMARK    6  A    between atoms: O_7  and  C_8
REMARK    7  A    between atoms: C_8  and  N_9
REMARK    8  A    between atoms: C_11  and  C_12
REMARK    9  A    between atoms: C_14  and  C_15
REMARK   10  A    between atoms: C_15  and  O_16
REMARK   11  A    between atoms: C_17  and  O_18
REMARK   12  A    between atoms: C_19  and  O_20
REMARK                            x       y       z     vdW  Elec       q    Type
REMARK                         _______ _______ _______ _____ _____    ______ ____
ROOT
ATOM      1  N   UNL     1       2.522   5.338  19.538  0.00  0.00    +0.000 N 
ATOM      2  N   UNL     1       3.631   5.879  18.975  0.00  0.00    +0.000 NA
ATOM      3  C   UNL     1       4.167   4.859  18.282  0.00  0.00    +0.000 A 
ATOM      4  C   UNL     1       3.413   3.674  18.445  0.00  0.00    +0.000 A 
ATOM      5  N   UNL     1       3.603   2.428  17.952  0.00  0.00    +0.000 NA
ATOM      6  C   UNL     1       2.692   1.549  18.392  0.00  0.00    +0.000 A 
ATOM      7  N   UNL     1       1.675   1.770  19.246  0.00  0.00    +0.000 NA
ATOM      8  C   UNL     1       1.501   3.014  19.736  0.00  0.00    +0.000 A 
ATOM      9  N   UNL     1       0.478   3.198  20.643  0.00  0.00    +0.000 N 
ATOM     10  C   UNL     1       2.378   3.996  19.307  0.00  0.00    +0.000 A 
ATOM     11  H   UNL     1      -0.145   2.395  20.641  0.00  0.00    +0.000 HD
ATOM     12  H   UNL     1       0.017   4.100  20.634  0.00  0.00    +0.000 HD
ENDROOT
BRANCH   3  13
ATOM     13  C   UNL     1       5.435   5.015  17.503  0.00  0.00    +0.000 C 
ATOM     14  O   UNL     1       6.575   4.450  18.209  0.00  0.00    +0.000 OA
ATOM     15  C   UNL     1       7.676   5.386  18.158  0.00  0.00    +0.000 C 
ATOM     16  C   UNL     1       7.305   6.429  17.112  0.00  0.00    +0.000 C 
ATOM     17  C   UNL     1       5.785   6.472  17.180  0.00  0.00    +0.000 C 
BRANCH  16  18
ATOM     18  O   UNL     1       7.683   6.000  15.788  0.00  0.00    +0.000 OA
ATOM     19  H   UNL     1       7.270   6.601  15.139  0.00  0.00    +0.000 HD
ENDBRANCH  16  18
BRANCH  17  20
ATOM     20  O   UNL     1       5.231   6.913  15.937  0.00  0.00    +0.000 OA
ATOM     21  H   UNL     1       4.586   6.224  15.671  0.00  0.00    +0.000 HD
ENDBRANCH  17  20
BRANCH  15  22
ATOM     22  C   UNL     1       7.901   5.983  19.550  0.00  0.00    +0.000 C 
BRANCH  22  23
ATOM     23  O   UNL     1       8.740   5.126  20.322  0.00  0.00    +0.000 OA
ATOM     24  H   UNL     1       9.655   5.394  20.116  0.00  0.00    +0.000 HD
ENDBRANCH  22  23
ENDBRANCH  15  22
ENDBRANCH   3  13
BRANCH   1  25
ATOM     25  C   UNL     1       1.637   6.185  20.327  0.00  0.00    +0.000 C 
BRANCH  25  26
ATOM     26  O   UNL     1       2.232   7.481  20.518  0.00  0.00    +0.000 OA
BRANCH  26  27
ATOM     27  C   UNL     1       1.463   8.516  20.073  0.00  0.00    +0.000 C 
ATOM     28  O   UNL     1       1.379   8.851  18.900  0.00  0.00    +0.000 OA
BRANCH  27  30
ATOM     29  C   UNL     1       1.640   9.188  22.472  0.00  0.00    +0.000 C 
ATOM     30  C   UNL     1       0.745   9.232  21.222  0.00  0.00    +0.000 C 
ATOM     31  C   UNL     1      -0.574   8.512  21.533  0.00  0.00    +0.000 C 
ATOM     32  C   UNL     1       0.477  10.695  20.853  0.00  0.00    +0.000 C 
ENDBRANCH  27  30
ENDBRANCH  26  27
ENDBRANCH  25  26
ENDBRANCH   1  25
TORSDOF 9
ENDMDL
MODEL 4
REMARK VINA RESULT:      -7.5      1.148      2.128
REMARK  Name = 
REMARK  12 active torsions:
REMARK  status: ('A' for Active; 'I' for Inactive)
REMARK    1  A    between atoms: C_1  and  C_2
REMARK    2  A    between atoms: C_2  and  C_3
REMARK    3  A    between atoms: C_2  and  C_4
REMARK    4  A    between atoms: C_2  and  C_5
REMARK    5  A    between atoms: C_5  and  O_7
REMARK    6  A    between atoms: O_7  and  C_8
REMARK    7  A    between atoms: C_8  and  N_9
REMARK    8  A    between atoms: C_11  and  C_12
REMARK    9  A    between atoms: C_14  and  C_15
REMARK   10  A    between atoms: C_15  and  O_16
REMARK   11  A    between atoms: C_17  and  O_18
REMARK   12  A    between atoms: C_19  and  O_20
REMARK                            x       y       z     vdW  Elec       q    Type
REMARK                         _______ _______ _______ _____ _____    ______ ____
ROOT
ATOM      1  N   UNL     1       2.281   5.908  19.624  0.00  0.00    +0.000 N 
ATOM      2  N   UNL     1       3.307   6.633  19.111  0.00  0.00    +0.000 NA
ATOM      3  C   UNL     1       3.860   5.807  18.206  0.00  0.00    +0.000 A 
ATOM      4  C   UNL     1       3.204   4.555  18.183  0.00  0.00    +0.000 A 
ATOM      5  N   UNL     1       3.444   3.443  17.451  0.00  0.00    +0.000 NA
ATOM      6  C   UNL     1       2.630   2.426  17.766  0.00  0.00    +0.000 A 
ATOM      7  N   UNL     1       1.664   2.401  18.704  0.00  0.00    +0.000 NA
ATOM      8  C   UNL     1       1.440   3.513  19.432  0.00  0.00    +0.000 A 
ATOM      9  N   UNL     1       0.474   3.441  20.415  0.00  0.00    +0.000 N 
ATOM     10  C   UNL     1       2.214   4.626  19.149  0.00  0.00    +0.000 A 
ATOM     11  H   UNL     1      -0.090   2.604  20.295  0.00  0.00    +0.000 HD
ATOM     12  H   UNL     1      -0.047   4.287  20.605  0.00  0.00    +0.000 HD
ENDROOT
BRANCH   3  13
ATOM     13  C   UNL     1       5.056   6.209  17.400  0.00  0.00    +0.000 C 
ATOM     14  O   UNL     1       4.825   6.042  15.974  0.00  0.00    +0.000 OA
ATOM     15  C   UNL     1       5.971   5.387  15.382  0.00  0.00    +0.000 C 
ATOM     16  C   UNL     1       7.081   5.437  16.425  0.00  0.00    +0.000 C 
ATOM     17  C   UNL     1       6.325   5.422  17.746  0.00  0.00    +0.000 C 
BRANCH  16  18
ATOM     18  O   UNL     1       7.818   6.674  16.344  0.00  0.00    +0.000 OA
ATOM     19  H   UNL     1       8.732   6.470  16.067  0.00  0.00    +0.000 HD
ENDBRANCH  16  18
BRANCH  17  20
ATOM     20  O   UNL     1       7.095   6.038  18.781  0.00  0.00    +0.000 OA
ATOM     21  H   UNL     1       7.042   7.003  18.618  0.00  0.00    +0.000 HD
ENDBRANCH  17  20
BRANCH  15  22
ATOM     22  C   UNL     1       5.589   3.960  14.979  0.00  0.00    +0.000 C 
BRANCH  22  23
ATOM     23  O   UNL     1       6.417   3.515  13.906  0.00  0.00    +0.000 OA
ATOM     24  H   UNL     1       6.413   4.238  13.250  0.00  0.00    +0.000 HD
ENDBRANCH  22  23
ENDBRANCH  15  22
ENDBRANCH   3  13
BRANCH   1  25
ATOM     25  C   UNL     1       1.398   6.518  20.610  0.00  0.00    +0.000 C 
BRANCH  25  26
ATOM     26  O   UNL     1       1.641   7.935  20.682  0.00  0.00    +0.000 OA
BRANCH  26  27
ATOM     27  C   UNL     1       0.512   8.684  20.850  0.00  0.00    +0.000 C 
ATOM     28  O   UNL     1      -0.390   8.397  21.623  0.00  0.00    +0.000 OA
BRANCH  27  30
ATOM     29  C   UNL     1       0.989  11.131  20.715  0.00  0.00    +0.000 C 
ATOM     30  C   UNL     1       0.494   9.907  19.927  0.00  0.00    +0.000 C 
ATOM     31  C   UNL     1      -0.940  10.171  19.451  0.00  0.00    +0.000 C 
ATOM     32  C   UNL     1       1.419   9.681  18.726  0.00  0.00    +0.000 C 
ENDBRANCH  27  30
ENDBRANCH  26  27
ENDBRANCH  25  26
ENDBRANCH   1  25
TORSDOF 9
ENDMDL
MODEL 5
REMARK VINA RESULT:      -7.5      3.494      7.514
REMARK  Name = 
REMARK  12 active torsions:
REMARK  status: ('A' for Active; 'I' for Inactive)
REMARK    1  A    between atoms: C_1  and  C_2
REMARK    2  A    between atoms: C_2  and  C_3
REMARK    3  A    between atoms: C_2  and  C_4
REMARK    4  A    between atoms: C_2  and  C_5
REMARK    5  A    between atoms: C_5  and  O_7
REMARK    6  A    between atoms: O_7  and  C_8
REMARK    7  A    between atoms: C_8  and  N_9
REMARK    8  A    between atoms: C_11  and  C_12
REMARK    9  A    between atoms: C_14  and  C_15
REMARK   10  A    between atoms: C_15  and  O_16
REMARK   11  A    between atoms: C_17  and  O_18
REMARK   12  A    between atoms: C_19  and  O_20
REMARK                            x       y       z     vdW  Elec       q    Type
REMARK                         _______ _______ _______ _____ _____    ______ ____
ROOT
ATOM      1  N   UNL     1       4.979   4.943  16.771  0.00  0.00    +0.000 N 
ATOM      2  N   UNL     1       4.030   4.237  17.435  0.00  0.00    +0.000 NA
ATOM      3  C   UNL     1       4.441   4.273  18.714  0.00  0.00    +0.000 A 
ATOM      4  C   UNL     1       5.666   4.968  18.841  0.00  0.00    +0.000 A 
ATOM      5  N   UNL     1       6.435   5.217  19.927  0.00  0.00    +0.000 NA
ATOM      6  C   UNL     1       7.570   5.863  19.625  0.00  0.00    +0.000 A 
ATOM      7  N   UNL     1       8.004   6.246  18.409  0.00  0.00    +0.000 NA
ATOM      8  C   UNL     1       7.232   5.984  17.335  0.00  0.00    +0.000 A 
ATOM      9  N   UNL     1       7.726   6.350  16.099  0.00  0.00    +0.000 N 
ATOM     10  C   UNL     1       6.022   5.350  17.559  0.00  0.00    +0.000 A 
ATOM     11  H   UNL     1       8.521   6.974  16.207  0.00  0.00    +0.000 HD
ATOM     12  H   UNL     1       7.048   6.633  15.402  0.00  0.00    +0.000 HD
ENDROOT
BRANCH   3  13
ATOM     13  C   UNL     1       3.679   3.592  19.807  0.00  0.00    +0.000 C 
ATOM     14  O   UNL     1       3.266   2.251  19.422  0.00  0.00    +0.000 OA
ATOM     15  C   UNL     1       1.878   2.061  19.783  0.00  0.00    +0.000 C 
ATOM     16  C   UNL     1       1.514   3.213  20.711  0.00  0.00    +0.000 C 
ATOM     17  C   UNL     1       2.415   4.345  20.239  0.00  0.00    +0.000 C 
BRANCH  16  18
ATOM     18  O   UNL     1       1.852   2.910  22.079  0.00  0.00    +0.000 OA
ATOM     19  H   UNL     1       1.064   2.535  22.516  0.00  0.00    +0.000 HD
ENDBRANCH  16  18
BRANCH  17  20
ATOM     20  O   UNL     1       2.658   5.277  21.295  0.00  0.00    +0.000 OA
ATOM     21  H   UNL     1       2.357   4.836  22.117  0.00  0.00    +0.000 HD
ENDBRANCH  17  20
BRANCH  15  22
ATOM     22  C   UNL     1       1.023   2.016  18.514  0.00  0.00    +0.000 C 
BRANCH  22  23
ATOM     23  O   UNL     1       1.860   1.965  17.360  0.00  0.00    +0.000 OA
ATOM     24  H   UNL     1       2.773   2.076  17.689  0.00  0.00    +0.000 HD
ENDBRANCH  22  23
ENDBRANCH  15  22
ENDBRANCH   3  13
BRANCH   1  25
ATOM     25  C   UNL     1       4.827   5.174  15.341  0.00  0.00    +0.000 C 
BRANCH  25  26
ATOM     26  O   UNL     1       5.039   3.948  14.617  0.00  0.00    +0.000 OA
BRANCH  26  27
ATOM     27  C   UNL     1       6.233   3.892  13.958  0.00  0.00    +0.000 C 
ATOM     28  O   UNL     1       7.317   4.095  14.487  0.00  0.00    +0.000 OA
BRANCH  27  30
ATOM     29  C   UNL     1       6.974   4.498  11.652  0.00  0.00    +0.000 C 
ATOM     30  C   UNL     1       6.051   3.578  12.469  0.00  0.00    +0.000 C 
ATOM     31  C   UNL     1       4.597   3.847  12.060  0.00  0.00    +0.000 C 
ATOM     32  C   UNL     1       6.422   2.119  12.183  0.00  0.00    +0.000 C 
ENDBRANCH  27  30
ENDBRANCH  26  27
ENDBRANCH  25  26
ENDBRANCH   1  25
TORSDOF 9
ENDMDL
MODEL 6
REMARK VINA RESULT:      -7.4      0.881      1.414
REMARK  Name = 
REMARK  12 active torsions:
REMARK  status: ('A' for Active; 'I' for Inactive)
REMARK    1  A    between atoms: C_1  and  C_2
REMARK    2  A    between atoms: C_2  and  C_3
REMARK    3  A    between atoms: C_2  and  C_4
REMARK    4  A    between atoms: C_2  and  C_5
REMARK    5  A    between atoms: C_5  and  O_7
REMARK    6  A    between atoms: O_7  and  C_8
REMARK    7  A    between atoms: C_8  and  N_9
REMARK    8  A    between atoms: C_11  and  C_12
REMARK    9  A    between atoms: C_14  and  C_15
REMARK   10  A    between atoms: C_15  and  O_16
REMARK   11  A    between atoms: C_17  and  O_18
REMARK   12  A    between atoms: C_19  and  O_20
REMARK                            x       y       z     vdW  Elec       q    Type
REMARK                         _______ _______ _______ _____ _____    ______ ____
ROOT
ATOM      1  N   UNL     1       2.948   5.131  19.987  0.00  0.00    +0.000 N 
ATOM      2  N   UNL     1       4.107   5.585  19.448  0.00  0.00    +0.000 NA
ATOM      3  C   UNL     1       4.339   4.737  18.431  0.00  0.00    +0.000 A 
ATOM      4  C   UNL     1       3.346   3.733  18.361  0.00  0.00    +0.000 A 
ATOM      5  N   UNL     1       3.206   2.682  17.519  0.00  0.00    +0.000 NA
ATOM      6  C   UNL     1       2.152   1.912  17.819  0.00  0.00    +0.000 A 
ATOM      7  N   UNL     1       1.280   2.062  18.835  0.00  0.00    +0.000 NA
ATOM      8  C   UNL     1       1.436   3.108  19.671  0.00  0.00    +0.000 A 
ATOM      9  N   UNL     1       0.552   3.209  20.726  0.00  0.00    +0.000 N 
ATOM     10  C   UNL     1       2.481   3.979  19.414  0.00  0.00    +0.000 A 
ATOM     11  H   UNL     1      -0.237   2.585  20.588  0.00  0.00    +0.000 HD
ATOM     12  H   UNL     1       0.314   4.144  21.034  0.00  0.00    +0.000 HD
ENDROOT
BRANCH   3  13
ATOM     13  C   UNL     1       5.548   4.866  17.557  0.00  0.00    +0.000 C 
ATOM     14  O   UNL     1       6.758   4.445  18.246  0.00  0.00    +0.000 OA
ATOM     15  C   UNL     1       7.798   5.424  18.017  0.00  0.00    +0.000 C 
ATOM     16  C   UNL     1       7.305   6.318  16.886  0.00  0.00    +0.000 C 
ATOM     17  C   UNL     1       5.792   6.291  17.049  0.00  0.00    +0.000 C 
BRANCH  16  18
ATOM     18  O   UNL     1       7.628   5.757  15.598  0.00  0.00    +0.000 OA
ATOM     19  H   UNL     1       8.272   6.344  15.159  0.00  0.00    +0.000 HD
ENDBRANCH  16  18
BRANCH  17  20
ATOM     20  O   UNL     1       5.140   6.555  15.804  0.00  0.00    +0.000 OA
ATOM     21  H   UNL     1       4.408   5.907  15.741  0.00  0.00    +0.000 HD
ENDBRANCH  17  20
BRANCH  15  22
ATOM     22  C   UNL     1       8.071   6.190  19.314  0.00  0.00    +0.000 C 
BRANCH  22  23
ATOM     23  O   UNL     1       7.814   5.354  20.442  0.00  0.00    +0.000 OA
ATOM     24  H   UNL     1       8.245   5.793  21.200  0.00  0.00    +0.000 HD
ENDBRANCH  22  23
ENDBRANCH  15  22
ENDBRANCH   3  13
BRANCH   1  25
ATOM     25  C   UNL     1       2.344   5.858  21.096  0.00  0.00    +0.000 C 
BRANCH  25  26
ATOM     26  O   UNL     1       1.180   6.574  20.643  0.00  0.00    +0.000 OA
BRANCH  26  27
ATOM     27  C   UNL     1       1.429   7.865  20.278  0.00  0.00    +0.000 C 
ATOM     28  O   UNL     1       2.147   8.185  19.341  0.00  0.00    +0.000 OA
BRANCH  27  30
ATOM     29  C   UNL     1       0.440  10.154  20.414  0.00  0.00    +0.000 C 
ATOM     30  C   UNL     1       0.731   8.866  21.204  0.00  0.00    +0.000 C 
ATOM     31  C   UNL     1       1.653   9.207  22.382  0.00  0.00    +0.000 C 
ATOM     32  C   UNL     1      -0.592   8.286  21.716  0.00  0.00    +0.000 C 
ENDBRANCH  27  30
ENDBRANCH  26  27
ENDBRANCH  25  26
ENDBRANCH   1  25
TORSDOF 9
ENDMDL
MODEL 7
REMARK VINA RESULT:      -7.2      0.790      1.361
REMARK  Name = 
REMARK  12 active torsions:
REMARK  status: ('A' for Active; 'I' for Inactive)
REMARK    1  A    between atoms: C_1  and  C_2
REMARK    2  A    between atoms: C_2  and  C_3
REMARK    3  A    between atoms: C_2  and  C_4
REMARK    4  A    between atoms: C_2  and  C_5
REMARK    5  A    between atoms: C_5  and  O_7
REMARK    6  A    between atoms: O_7  and  C_8
REMARK    7  A    between atoms: C_8  and  N_9
REMARK    8  A    between atoms: C_11  and  C_12
REMARK    9  A    between atoms: C_14  and  C_15
REMARK   10  A    between atoms: C_15  and  O_16
REMARK   11  A    between atoms: C_17  and  O_18
REMARK   12  A    between atoms: C_19  and  O_20
REMARK                            x       y       z     vdW  Elec       q    Type
REMARK                         _______ _______ _______ _____ _____    ______ ____
ROOT
ATOM      1  N   UNL     1       2.430   5.765  18.913  0.00  0.00    +0.000 N 
ATOM      2  N   UNL     1       3.544   6.159  18.248  0.00  0.00    +0.000 NA
ATOM      3  C   UNL     1       4.101   5.003  17.847  0.00  0.00    +0.000 A 
ATOM      4  C   UNL     1       3.355   3.889  18.296  0.00  0.00    +0.000 A 
ATOM      5  N   UNL     1       3.565   2.561  18.141  0.00  0.00    +0.000 NA
ATOM      6  C   UNL     1       2.654   1.812  18.776  0.00  0.00    +0.000 A 
ATOM      7  N   UNL     1       1.619   2.231  19.529  0.00  0.00    +0.000 NA
ATOM      8  C   UNL     1       1.426   3.556  19.682  0.00  0.00    +0.000 A 
ATOM      9  N   UNL     1       0.383   3.953  20.495  0.00  0.00    +0.000 N 
ATOM     10  C   UNL     1       2.302   4.407  19.030  0.00  0.00    +0.000 A 
ATOM     11  H   UNL     1      -0.232   3.167  20.689  0.00  0.00    +0.000 HD
ATOM     12  H   UNL     1      -0.085   4.816  20.250  0.00  0.00    +0.000 HD
ENDROOT
BRANCH   3  13
ATOM     13  C   UNL     1       5.383   4.972  17.074  0.00  0.00    +0.000 C 
ATOM     14  O   UNL     1       6.478   4.438  17.868  0.00  0.00    +0.000 OA
ATOM     15  C   UNL     1       7.638   5.288  17.708  0.00  0.00    +0.000 C 
ATOM     16  C   UNL     1       7.341   6.200  16.524  0.00  0.00    +0.000 C 
ATOM     17  C   UNL     1       5.827   6.347  16.561  0.00  0.00    +0.000 C 
BRANCH  16  18
ATOM     18  O   UNL     1       7.701   5.571  15.277  0.00  0.00    +0.000 OA
ATOM     19  H   UNL     1       7.582   6.221  14.558  0.00  0.00    +0.000 HD
ENDBRANCH  16  18
BRANCH  17  20
ATOM     20  O   UNL     1       5.311   6.647  15.262  0.00  0.00    +0.000 OA
ATOM     21  H   UNL     1       4.978   7.568  15.311  0.00  0.00    +0.000 HD
ENDBRANCH  17  20
BRANCH  15  22
ATOM     22  C   UNL     1       7.891   6.055  19.009  0.00  0.00    +0.000 C 
BRANCH  22  23
ATOM     23  O   UNL     1       7.475   5.274  20.128  0.00  0.00    +0.000 OA
ATOM     24  H   UNL     1       6.561   5.556  20.323  0.00  0.00    +0.000 HD
ENDBRANCH  22  23
ENDBRANCH  15  22
ENDBRANCH   3  13
BRANCH   1  25
ATOM     25  C   UNL     1       1.522   6.774  19.445  0.00  0.00    +0.000 C 
BRANCH  25  26
ATOM     26  O   UNL     1       2.170   8.059  19.469  0.00  0.00    +0.000 OA
BRANCH  26  27
ATOM     27  C   UNL     1       1.692   8.939  18.543  0.00  0.00    +0.000 C 
ATOM     28  O   UNL     1       1.917   8.860  17.343  0.00  0.00    +0.000 OA
BRANCH  27  30
ATOM     29  C   UNL     1      -0.565  10.004  18.634  0.00  0.00    +0.000 C 
ATOM     30  C   UNL     1       0.869  10.059  19.188  0.00  0.00    +0.000 C 
ATOM     31  C   UNL     1       1.484  11.420  18.833  0.00  0.00    +0.000 C 
ATOM     32  C   UNL     1       0.823   9.878  20.708  0.00  0.00    +0.000 C 
ENDBRANCH  27  30
ENDBRANCH  26  27
ENDBRANCH  25  26
ENDBRANCH   1  25
TORSDOF 9
ENDMDL
MODEL 8
REMARK VINA RESULT:      -7.2      1.169      1.442
REMARK  Name = 
REMARK  12 active torsions:
REMARK  status: ('A' for Active; 'I' for Inactive)
REMARK    1  A    between atoms: C_1  and  C_2
REMARK    2  A    between atoms: C_2  and  C_3
REMARK    3  A    between atoms: C_2  and  C_4
REMARK    4  A    between atoms: C_2  and  C_5
REMARK    5  A    between atoms: C_5  and  O_7
REMARK    6  A    between atoms: O_7  and  C_8
REMARK    7  A    between atoms: C_8  and  N_9
REMARK    8  A    between atoms: C_11  and  C_12
REMARK    9  A    between atoms: C_14  and  C_15
REMARK   10  A    between atoms: C_15  and  O_16
REMARK   11  A    between atoms: C_17  and  O_18
REMARK   12  A    between atoms: C_19  and  O_20
REMARK                            x       y       z     vdW  Elec       q    Type
REMARK                         _______ _______ _______ _____ _____    ______ ____
ROOT
ATOM      1  N   UNL     1       2.683   5.546  19.807  0.00  0.00    +0.000 N 
ATOM      2  N   UNL     1       3.980   5.828  19.529  0.00  0.00    +0.000 NA
ATOM      3  C   UNL     1       4.419   4.723  18.900  0.00  0.00    +0.000 A 
ATOM      4  C   UNL     1       3.407   3.739  18.822  0.00  0.00    +0.000 A 
ATOM      5  N   UNL     1       3.424   2.490  18.301  0.00  0.00    +0.000 NA
ATOM      6  C   UNL     1       2.268   1.836  18.479  0.00  0.00    +0.000 A 
ATOM      7  N   UNL     1       1.161   2.271  19.111  0.00  0.00    +0.000 NA
ATOM      8  C   UNL     1       1.160   3.514  19.632  0.00  0.00    +0.000 A 
ATOM      9  N   UNL     1       0.027   3.913  20.311  0.00  0.00    +0.000 N 
ATOM     10  C   UNL     1       2.304   4.276  19.464  0.00  0.00    +0.000 A 
ATOM     11  H   UNL     1      -0.740   3.273  20.125  0.00  0.00    +0.000 HD
ATOM     12  H   UNL     1      -0.211   4.896  20.264  0.00  0.00    +0.000 HD
ENDROOT
BRANCH   3  13
ATOM     13  C   UNL     1       5.832   4.598  18.421  0.00  0.00    +0.000 C 
ATOM     14  O   UNL     1       6.672   5.669  18.932  0.00  0.00    +0.000 OA
ATOM     15  C   UNL     1       7.473   6.200  17.851  0.00  0.00    +0.000 C 
ATOM     16  C   UNL     1       7.353   5.208  16.701  0.00  0.00    +0.000 C 
ATOM     17  C   UNL     1       5.967   4.609  16.894  0.00  0.00    +0.000 C 
BRANCH  16  18
ATOM     18  O   UNL     1       8.322   4.147  16.822  0.00  0.00    +0.000 OA
ATOM     19  H   UNL     1       8.087   3.441  16.191  0.00  0.00    +0.000 HD
ENDBRANCH  16  18
BRANCH  17  20
ATOM     20  O   UNL     1       5.893   3.301  16.320  0.00  0.00    +0.000 OA
ATOM     21  H   UNL     1       6.307   3.373  15.434  0.00  0.00    +0.000 HD
ENDBRANCH  17  20
BRANCH  15  22
ATOM     22  C   UNL     1       6.977   7.603  17.491  0.00  0.00    +0.000 C 
BRANCH  22  23
ATOM     23  O   UNL     1       8.027   8.554  17.659  0.00  0.00    +0.000 OA
ATOM     24  H   UNL     1       7.712   9.177  18.342  0.00  0.00    +0.000 HD
ENDBRANCH  22  23
ENDBRANCH  15  22
ENDBRANCH   3  13
BRANCH   1  25
ATOM     25  C   UNL     1       1.853   6.560  20.443  0.00  0.00    +0.000 C 
BRANCH  25  26
ATOM     26  O   UNL     1       2.036   7.830  19.791  0.00  0.00    +0.000 OA
BRANCH  26  27
ATOM     27  C   UNL     1       1.138   8.784  20.171  0.00  0.00    +0.000 C 
ATOM     28  O   UNL     1       0.536   8.772  21.236  0.00  0.00    +0.000 OA
BRANCH  27  30
ATOM     29  C   UNL     1       1.286  11.230  19.689  0.00  0.00    +0.000 C 
ATOM     30  C   UNL     1       0.947   9.854  19.091  0.00  0.00    +0.000 C 
ATOM     31  C   UNL     1      -0.517   9.863  18.629  0.00  0.00    +0.000 C 
ATOM     32  C   UNL     1       1.877   9.584  17.903  0.00  0.00    +0.000 C 
ENDBRANCH  27  30
ENDBRANCH  26  27
ENDBRANCH  25  26
ENDBRANCH   1  25
TORSDOF 9
ENDMDL
MODEL 9
REMARK VINA RESULT:      -7.1      1.755      6.192
REMARK  Name = 
REMARK  12 active torsions:
REMARK  status: ('A' for Active; 'I' for Inactive)
REMARK    1  A    between atoms: C_1  and  C_2
REMARK    2  A    between atoms: C_2  and  C_3
REMARK    3  A    between atoms: C_2  and  C_4
REMARK    4  A    between atoms: C_2  and  C_5
REMARK    5  A    between atoms: C_5  and  O_7
REMARK    6  A    between atoms: O_7  and  C_8
REMARK    7  A    between atoms: C_8  and  N_9
REMARK    8  A    between atoms: C_11  and  C_12
REMARK    9  A    between atoms: C_14  and  C_15
REMARK   10  A    between atoms: C_15  and  O_16
REMARK   11  A    between atoms: C_17  and  O_18
REMARK   12  A    between atoms: C_19  and  O_20
REMARK                            x       y       z     vdW  Elec       q    Type
REMARK                         _______ _______ _______ _____ _____    ______ ____
ROOT
ATOM      1  N   UNL     1       4.362   5.441  19.440  0.00  0.00    +0.000 N 
ATOM      2  N   UNL     1       3.747   6.620  19.172  0.00  0.00    +0.000 NA
ATOM      3  C   UNL     1       2.472   6.406  19.540  0.00  0.00    +0.000 A 
ATOM      4  C   UNL     1       2.284   5.082  20.000  0.00  0.00    +0.000 A 
ATOM      5  N   UNL     1       1.173   4.445  20.439  0.00  0.00    +0.000 NA
ATOM      6  C   UNL     1       1.393   3.156  20.731  0.00  0.00    +0.000 A 
ATOM      7  N   UNL     1       2.544   2.467  20.616  0.00  0.00    +0.000 NA
ATOM      8  C   UNL     1       3.642   3.111  20.171  0.00  0.00    +0.000 A 
ATOM      9  N   UNL     1       4.794   2.367  20.023  0.00  0.00    +0.000 N 
ATOM     10  C   UNL     1       3.514   4.458  19.877  0.00  0.00    +0.000 A 
ATOM     11  H   UNL     1       4.698   1.469  20.490  0.00  0.00    +0.000 HD
ATOM     12  H   UNL     1       5.671   2.845  20.187  0.00  0.00    +0.000 HD
ENDROOT
BRANCH   3  13
ATOM     13  C   UNL     1       1.422   7.464  19.399  0.00  0.00    +0.000 C 
ATOM     14  O   UNL     1       1.435   8.063  18.074  0.00  0.00    +0.000 OA
ATOM     15  C   UNL     1       1.359   9.502  18.204  0.00  0.00    +0.000 C 
ATOM     16  C   UNL     1       0.966   9.782  19.648  0.00  0.00    +0.000 C 
ATOM     17  C   UNL     1       1.560   8.607  20.411  0.00  0.00    +0.000 C 
BRANCH  16  18
ATOM     18  O   UNL     1      -0.466   9.749  19.816  0.00  0.00    +0.000 OA
ATOM     19  H   UNL     1      -0.729  10.505  20.375  0.00  0.00    +0.000 HD
ENDBRANCH  16  18
BRANCH  17  20
ATOM     20  O   UNL     1       0.837   8.367  21.621  0.00  0.00    +0.000 OA
ATOM     21  H   UNL     1      -0.109   8.322  21.365  0.00  0.00    +0.000 HD
ENDBRANCH  17  20
BRANCH  15  22
ATOM     22  C   UNL     1       2.706  10.119  17.816  0.00  0.00    +0.000 C 
BRANCH  22  23
ATOM     23  O   UNL     1       2.513  11.440  17.311  0.00  0.00    +0.000 OA
ATOM     24  H   UNL     1       1.720  11.393  16.744  0.00  0.00    +0.000 HD
ENDBRANCH  22  23
ENDBRANCH  15  22
ENDBRANCH   3  13
BRANCH   1  25
ATOM     25  C   UNL     1       5.797   5.319  19.222  0.00  0.00    +0.000 C 
BRANCH  25  26
ATOM     26  O   UNL     1       6.068   4.254  18.294  0.00  0.00    +0.000 OA
BRANCH  26  27
ATOM     27  C   UNL     1       6.648   4.666  17.129  0.00  0.00    +0.000 C 
ATOM     28  O   UNL     1       7.810   5.036  17.036  0.00  0.00    +0.000 OA
BRANCH  27  30
ATOM     29  C   UNL     1       5.239   6.089  15.637  0.00  0.00    +0.000 C 
ATOM     30  C   UNL     1       5.659   4.645  15.959  0.00  0.00    +0.000 C 
ATOM     31  C   UNL     1       4.411   3.844  16.353  0.00  0.00    +0.000 C 
ATOM     32  C   UNL     1       6.315   4.029  14.718  0.00  0.00    +0.000 C 
ENDBRANCH  27  30
ENDBRANCH  26  27
ENDBRANCH  25  26
ENDBRANCH   1  25
TORSDOF 9
ENDMDL
