MODEL 1
REMARK VINA RESULT:      -7.8      0.000      0.000
REMARK  Name = 
REMARK  4 active torsions:
REMARK  status: ('A' for Active; 'I' for Inactive)
REMARK    1  A    between atoms: C_2  and  C_3
REMARK    2  A    between atoms: C_3  and  C_12
REMARK    3  A    between atoms: C_4  and  C_5
REMARK    4  A    between atoms: C_12  and  C_14
REMARK                            x       y       z     vdW  Elec       q    Type
REMARK                         _______ _______ _______ _____ _____    ______ ____
ROOT
ATOM      1  C   UNL     1       5.679   4.947  16.980  0.00  0.00    +0.000 C 
ATOM      2  C   UNL     1       4.464   4.525  16.569  0.00  0.00    +0.000 C 
ENDROOT
BRANCH   2   3
ATOM      3  C   UNL     1       3.416   4.022  17.482  0.00  0.00    +0.000 A 
ATOM      4  C   UNL     1       3.292   2.634  17.659  0.00  0.00    +0.000 A 
ATOM      5  C   UNL     1       2.358   2.112  18.558  0.00  0.00    +0.000 A 
ATOM      6  C   UNL     1       1.538   2.964  19.296  0.00  0.00    +0.000 A 
ATOM      7  C   UNL     1       1.640   4.343  19.121  0.00  0.00    +0.000 A 
ATOM      8  C   UNL     1       2.569   4.871  18.217  0.00  0.00    +0.000 A 
ATOM      9 CL   UNL     1       2.640   6.591  18.046  0.00  0.00    +0.000 Cl
ENDBRANCH   2   3
BRANCH   1  11
ATOM     10  N   UNL     1       6.334   4.857  19.681  0.00  0.00    +0.000 NA
ATOM     11  C   UNL     1       6.037   4.897  18.456  0.00  0.00    +0.000 C 
ENDBRANCH   1  11
BRANCH   1  12
ATOM     12  C   UNL     1       6.673   5.418  15.974  0.00  0.00    +0.000 C 
ATOM     13  O   UNL     1       7.507   6.273  16.270  0.00  0.00    +0.000 OA
BRANCH  12  14
ATOM     14  C   UNL     1       6.652   4.879  14.585  0.00  0.00    +0.000 A 
ATOM     15  C   UNL     1       7.609   5.361  13.680  0.00  0.00    +0.000 A 
ATOM     16  C   UNL     1       7.667   4.860  12.377  0.00  0.00    +0.000 A 
ATOM     17  C   UNL     1       6.773   3.873  11.970  0.00  0.00    +0.000 A 
ATOM     18  C   UNL     1       5.826   3.380  12.866  0.00  0.00    +0.000 A 
ATOM     19  C   UNL     1       5.771   3.870  14.175  0.00  0.00    +0.000 A 
ENDBRANCH  12  14
ENDBRANCH   1  12
TORSDOF 4
ENDMDL
MODEL 2
REMARK VINA RESULT:      -7.7      0.113      1.113
REMARK  Name = 
REMARK  4 active torsions:
REMARK  status: ('A' for Active; 'I' for Inactive)
REMARK    1  A    between atoms: C_2  and  C_3
REMARK    2  A    between atoms: C_3  and  C_12
REMARK    3  A    between atoms: C_4  and  C_5
REMARK    4  A    between atoms: C_12  and  C_14
REMARK                            x       y       z     vdW  Elec       q    Type
REMARK                         _______ _______ _______ _____ _____    ______ ____
ROOT
ATOM      1  C   UNL     1       5.724   5.001  16.971  0.00  0.00    +0.000 C 
ATOM      2  C   UNL     1       4.498   4.634  16.543  0.00  0.00    +0.000 C 
ENDROOT
BRANCH   2   3
ATOM      3  C   UNL     1       3.431   4.130  17.434  0.00  0.00    +0.000 A 
ATOM      4  C   UNL     1       3.270   2.741  17.566  0.00  0.00    +0.000 A 
ATOM      5  C   UNL     1       2.318   2.215  18.443  0.00  0.00    +0.000 A 
ATOM      6  C   UNL     1       1.515   3.065  19.203  0.00  0.00    +0.000 A 
ATOM      7  C   UNL     1       1.655   4.446  19.073  0.00  0.00    +0.000 A 
ATOM      8  C   UNL     1       2.603   4.977  18.191  0.00  0.00    +0.000 A 
ATOM      9 CL   UNL     1       2.719   6.699  18.075  0.00  0.00    +0.000 Cl
ENDBRANCH   2   3
BRANCH   1  11
ATOM     10  N   UNL     1       6.367   4.789  19.668  0.00  0.00    +0.000 NA
ATOM     11  C   UNL     1       6.075   4.886  18.445  0.00  0.00    +0.000 C 
ENDBRANCH   1  11
BRANCH   1  12
ATOM     12  C   UNL     1       6.735   5.479  15.986  0.00  0.00    +0.000 C 
ATOM     13  O   UNL     1       7.532   6.367  16.286  0.00  0.00    +0.000 OA
BRANCH  12  14
ATOM     14  C   UNL     1       6.776   4.906  14.611  0.00  0.00    +0.000 A 
ATOM     15  C   UNL     1       5.829   3.926  14.280  0.00  0.00    +0.000 A 
ATOM     16  C   UNL     1       5.789   3.385  12.993  0.00  0.00    +0.000 A 
ATOM     17  C   UNL     1       6.693   3.820  12.027  0.00  0.00    +0.000 A 
ATOM     18  C   UNL     1       7.631   4.801  12.343  0.00  0.00    +0.000 A 
ATOM     19  C   UNL     1       7.667   5.354  13.627  0.00  0.00    +0.000 A 
ENDBRANCH  12  14
ENDBRANCH   1  12
TORSDOF 4
ENDMDL
MODEL 3
REMARK VINA RESULT:      -7.5      1.760      1.944
REMARK  Name = 
REMARK  4 active torsions:
REMARK  status: ('A' for Active; 'I' for Inactive)
REMARK    1  A    between atoms: C_2  and  C_3
REMARK    2  A    between atoms: C_3  and  C_12
REMARK    3  A    between atoms: C_4  and  C_5
REMARK    4  A    between atoms: C_12  and  C_14
REMARK                            x       y       z     vdW  Elec       q    Type
REMARK                         _______ _______ _______ _____ _____    ______ ____
ROOT
ATOM      1  C   UNL     1       5.310   4.588  16.935  0.00  0.00    +0.000 C 
ATOM      2  C   UNL     1       4.739   3.424  17.311  0.00  0.00    +0.000 C 
ENDROOT
BRANCH   2   3
ATOM      3  C   UNL     1       3.455   3.335  18.037  0.00  0.00    +0.000 A 
ATOM      4  C   UNL     1       2.293   3.808  17.403  0.00  0.00    +0.000 A 
ATOM      5  C   UNL     1       1.046   3.689  18.022  0.00  0.00    +0.000 A 
ATOM      6  C   UNL     1       0.937   3.094  19.278  0.00  0.00    +0.000 A 
ATOM      7  C   UNL     1       2.082   2.631  19.925  0.00  0.00    +0.000 A 
ATOM      8  C   UNL     1       3.335   2.754  19.312  0.00  0.00    +0.000 A 
ATOM      9 CL   UNL     1       4.714   2.165  20.173  0.00  0.00    +0.000 Cl
ENDBRANCH   2   3
BRANCH   1  11
ATOM     10  N   UNL     1       4.077   7.000  17.564  0.00  0.00    +0.000 NA
ATOM     11  C   UNL     1       4.636   5.906  17.279  0.00  0.00    +0.000 C 
ENDBRANCH   1  11
BRANCH   1  12
ATOM     12  C   UNL     1       6.620   4.569  16.223  0.00  0.00    +0.000 C 
ATOM     13  O   UNL     1       7.675   4.671  16.848  0.00  0.00    +0.000 OA
BRANCH  12  14
ATOM     14  C   UNL     1       6.667   4.455  14.738  0.00  0.00    +0.000 A 
ATOM     15  C   UNL     1       7.632   5.208  14.053  0.00  0.00    +0.000 A 
ATOM     16  C   UNL     1       7.755   5.107  12.665  0.00  0.00    +0.000 A 
ATOM     17  C   UNL     1       6.916   4.253  11.952  0.00  0.00    +0.000 A 
ATOM     18  C   UNL     1       5.961   3.493  12.626  0.00  0.00    +0.000 A 
ATOM     19  C   UNL     1       5.843   3.582  14.016  0.00  0.00    +0.000 A 
ENDBRANCH  12  14
ENDBRANCH   1  12
TORSDOF 4
ENDMDL
MODEL 4
REMARK VINA RESULT:      -7.5      1.351      1.848
REMARK  Name = 
REMARK  4 active torsions:
REMARK  status: ('A' for Active; 'I' for Inactive)
REMARK    1  A    between atoms: C_2  and  C_3
REMARK    2  A    between atoms: C_3  and  C_12
REMARK    3  A    between atoms: C_4  and  C_5
REMARK    4  A    between atoms: C_12  and  C_14
REMARK                            x       y       z     vdW  Elec       q    Type
REMARK                         _______ _______ _______ _____ _____    ______ ____
ROOT
ATOM      1  C   UNL     1       5.852   5.531  17.357  0.00  0.00    +0.000 C 
ATOM      2  C   UNL     1       4.516   5.453  17.180  0.00  0.00    +0.000 C 
ENDROOT
BRANCH   2   3
ATOM      3  C   UNL     1       3.555   5.192  18.272  0.00  0.00    +0.000 A 
ATOM      4  C   UNL     1       3.066   6.284  19.009  0.00  0.00    +0.000 A 
ATOM      5  C   UNL     1       2.109   6.096  20.010  0.00  0.00    +0.000 A 
ATOM      6  C   UNL     1       1.623   4.819  20.288  0.00  0.00    +0.000 A 
ATOM      7  C   UNL     1       2.108   3.725  19.574  0.00  0.00    +0.000 A 
ATOM      8  C   UNL     1       3.072   3.907  18.575  0.00  0.00    +0.000 A 
ATOM      9 CL   UNL     1       3.634   2.505  17.732  0.00  0.00    +0.000 Cl
ENDBRANCH   2   3
BRANCH   1  11
ATOM     10  N   UNL     1       6.935   5.149  19.890  0.00  0.00    +0.000 NA
ATOM     11  C   UNL     1       6.444   5.322  18.742  0.00  0.00    +0.000 C 
ENDBRANCH   1  11
BRANCH   1  12
ATOM     12  C   UNL     1       6.737   5.780  16.184  0.00  0.00    +0.000 C 
ATOM     13  O   UNL     1       7.650   6.602  16.251  0.00  0.00    +0.000 OA
BRANCH  12  14
ATOM     14  C   UNL     1       6.509   5.056  14.902  0.00  0.00    +0.000 A 
ATOM     15  C   UNL     1       7.470   5.196  13.890  0.00  0.00    +0.000 A 
ATOM     16  C   UNL     1       7.334   4.505  12.683  0.00  0.00    +0.000 A 
ATOM     17  C   UNL     1       6.238   3.669  12.480  0.00  0.00    +0.000 A 
ATOM     18  C   UNL     1       5.284   3.516  13.484  0.00  0.00    +0.000 A 
ATOM     19  C   UNL     1       5.422   4.196  14.698  0.00  0.00    +0.000 A 
ENDBRANCH  12  14
ENDBRANCH   1  12
TORSDOF 4
ENDMDL
MODEL 5
REMARK VINA RESULT:      -7.4      1.499      1.922
REMARK  Name = 
REMARK  4 active torsions:
REMARK  status: ('A' for Active; 'I' for Inactive)
REMARK    1  A    between atoms: C_2  and  C_3
REMARK    2  A    between atoms: C_3  and  C_12
REMARK    3  A    between atoms: C_4  and  C_5
REMARK    4  A    between atoms: C_12  and  C_14
REMARK                            x       y       z     vdW  Elec       q    Type
REMARK                         _______ _______ _______ _____ _____    ______ ____
ROOT
ATOM      1  C   UNL     1       6.280   4.610  15.593  0.00  0.00    +0.000 C 
ATOM      2  C   UNL     1       4.944   4.529  15.764  0.00  0.00    +0.000 C 
ENDROOT
BRANCH   2   3
ATOM      3  C   UNL     1       4.291   4.373  17.081  0.00  0.00    +0.000 A 
ATOM      4  C   UNL     1       4.049   3.074  17.558  0.00  0.00    +0.000 A 
ATOM      5  C   UNL     1       3.491   2.872  18.823  0.00  0.00    +0.000 A 
ATOM      6  C   UNL     1       3.169   3.962  19.633  0.00  0.00    +0.000 A 
ATOM      7  C   UNL     1       3.391   5.257  19.168  0.00  0.00    +0.000 A 
ATOM      8  C   UNL     1       3.944   5.463  17.898  0.00  0.00    +0.000 A 
ATOM      9 CL   UNL     1       4.188   7.096  17.382  0.00  0.00    +0.000 Cl
ENDBRANCH   2   3
BRANCH   1  11
ATOM     10  N   UNL     1       7.969   4.440  17.796  0.00  0.00    +0.000 NA
ATOM     11  C   UNL     1       7.203   4.517  16.797  0.00  0.00    +0.000 C 
ENDBRANCH   1  11
BRANCH   1  12
ATOM     12  C   UNL     1       6.839   4.748  14.218  0.00  0.00    +0.000 C 
ATOM     13  O   UNL     1       7.737   5.556  13.985  0.00  0.00    +0.000 OA
BRANCH  12  14
ATOM     14  C   UNL     1       6.297   3.927  13.099  0.00  0.00    +0.000 A 
ATOM     15  C   UNL     1       7.187   3.097  12.403  0.00  0.00    +0.000 A 
ATOM     16  C   UNL     1       6.728   2.271  11.374  0.00  0.00    +0.000 A 
ATOM     17  C   UNL     1       5.377   2.266  11.035  0.00  0.00    +0.000 A 
ATOM     18  C   UNL     1       4.483   3.080  11.729  0.00  0.00    +0.000 A 
ATOM     19  C   UNL     1       4.936   3.900  12.767  0.00  0.00    +0.000 A 
ENDBRANCH  12  14
ENDBRANCH   1  12
TORSDOF 4
ENDMDL
MODEL 6
REMARK VINA RESULT:      -7.4      2.939      6.431
REMARK  Name = 
REMARK  4 active torsions:
REMARK  status: ('A' for Active; 'I' for Inactive)
REMARK    1  A    between atoms: C_2  and  C_3
REMARK    2  A    between atoms: C_3  and  C_12
REMARK    3  A    between atoms: C_4  and  C_5
REMARK    4  A    between atoms: C_12  and  C_14
REMARK                            x       y       z     vdW  Elec       q    Type
REMARK                         _______ _______ _______ _____ _____    ______ ____
ROOT
ATOM      1  C   UNL     1       4.331   3.964  17.494  0.00  0.00    +0.000 C 
ATOM      2  C   UNL     1       4.637   4.910  18.407  0.00  0.00    +0.000 C 
ENDROOT
BRANCH   2   3
ATOM      3  C   UNL     1       5.809   5.805  18.303  0.00  0.00    +0.000 A 
ATOM      4  C   UNL     1       6.913   5.561  19.136  0.00  0.00    +0.000 A 
ATOM      5  C   UNL     1       8.069   6.340  19.033  0.00  0.00    +0.000 A 
ATOM      6  C   UNL     1       8.142   7.371  18.096  0.00  0.00    +0.000 A 
ATOM      7  C   UNL     1       7.049   7.633  17.272  0.00  0.00    +0.000 A 
ATOM      8  C   UNL     1       5.887   6.860  17.376  0.00  0.00    +0.000 A 
ATOM      9 CL   UNL     1       4.566   7.243  16.327  0.00  0.00    +0.000 Cl
ENDBRANCH   2   3
BRANCH   1  11
ATOM     10  N   UNL     1       5.976   3.593  15.283  0.00  0.00    +0.000 NA
ATOM     11  C   UNL     1       5.230   3.761  16.285  0.00  0.00    +0.000 C 
ENDBRANCH   1  11
BRANCH   1  12
ATOM     12  C   UNL     1       3.135   3.099  17.703  0.00  0.00    +0.000 C 
ATOM     13  O   UNL     1       2.640   2.477  16.764  0.00  0.00    +0.000 OA
BRANCH  12  14
ATOM     14  C   UNL     1       2.504   2.999  19.049  0.00  0.00    +0.000 A 
ATOM     15  C   UNL     1       3.261   2.438  20.088  0.00  0.00    +0.000 A 
ATOM     16  C   UNL     1       2.739   2.359  21.382  0.00  0.00    +0.000 A 
ATOM     17  C   UNL     1       1.460   2.842  21.647  0.00  0.00    +0.000 A 
ATOM     18  C   UNL     1       0.705   3.411  20.623  0.00  0.00    +0.000 A 
ATOM     19  C   UNL     1       1.227   3.502  19.329  0.00  0.00    +0.000 A 
ENDBRANCH  12  14
ENDBRANCH   1  12
TORSDOF 4
ENDMDL
MODEL 7
REMARK VINA RESULT:      -7.4      1.773      2.243
REMARK  Name = 
REMARK  4 active torsions:
REMARK  status: ('A' for Active; 'I' for Inactive)
REMARK    1  A    between atoms: C_2  and  C_3
REMARK    2  A    between atoms: C_3  and  C_12
REMARK    3  A    between atoms: C_4  and  C_5
REMARK    4  A    between atoms: C_12  and  C_14
REMARK                            x       y       z     vdW  Elec       q    Type
REMARK                         _______ _______ _______ _____ _____    ______ ____
ROOT
ATOM      1  C   UNL     1       5.371   4.584  16.957  0.00  0.00    +0.000 C 
ATOM      2  C   UNL     1       4.810   3.425  17.360  0.00  0.00    +0.000 C 
ENDROOT
BRANCH   2   3
ATOM      3  C   UNL     1       3.505   3.339  18.050  0.00  0.00    +0.000 A 
ATOM      4  C   UNL     1       2.364   3.819  17.386  0.00  0.00    +0.000 A 
ATOM      5  C   UNL     1       1.099   3.703  17.968  0.00  0.00    +0.000 A 
ATOM      6  C   UNL     1       0.953   3.104  19.219  0.00  0.00    +0.000 A 
ATOM      7  C   UNL     1       2.077   2.635  19.896  0.00  0.00    +0.000 A 
ATOM      8  C   UNL     1       3.347   2.755  19.319  0.00  0.00    +0.000 A 
ATOM      9 CL   UNL     1       4.699   2.156  20.216  0.00  0.00    +0.000 Cl
ENDBRANCH   2   3
BRANCH   1  11
ATOM     10  N   UNL     1       4.075   6.994  17.452  0.00  0.00    +0.000 NA
ATOM     11  C   UNL     1       4.663   5.901  17.227  0.00  0.00    +0.000 C 
ENDBRANCH   1  11
BRANCH   1  12
ATOM     12  C   UNL     1       6.702   4.563  16.286  0.00  0.00    +0.000 C 
ATOM     13  O   UNL     1       7.737   4.656  16.944  0.00  0.00    +0.000 OA
BRANCH  12  14
ATOM     14  C   UNL     1       6.796   4.458  14.802  0.00  0.00    +0.000 A 
ATOM     15  C   UNL     1       5.891   3.611  14.146  0.00  0.00    +0.000 A 
ATOM     16  C   UNL     1       5.901   3.507  12.753  0.00  0.00    +0.000 A 
ATOM     17  C   UNL     1       6.813   4.249  12.006  0.00  0.00    +0.000 A 
ATOM     18  C   UNL     1       7.709   5.102  12.649  0.00  0.00    +0.000 A 
ATOM     19  C   UNL     1       7.694   5.218  14.042  0.00  0.00    +0.000 A 
ENDBRANCH  12  14
ENDBRANCH   1  12
TORSDOF 4
ENDMDL
MODEL 8
REMARK VINA RESULT:      -7.3      1.032      1.118
REMARK  Name = 
REMARK  4 active torsions:
REMARK  status: ('A' for Active; 'I' for Inactive)
REMARK    1  A    between atoms: C_2  and  C_3
REMARK    2  A    between atoms: C_3  and  C_12
REMARK    3  A    between atoms: C_4  and  C_5
REMARK    4  A    between atoms: C_12  and  C_14
REMARK                            x       y       z     vdW  Elec       q    Type
REMARK                         _______ _______ _______ _____ _____    ______ ____
ROOT
ATOM      1  C   UNL     1       4.717   5.184  17.248  0.00  0.00    +0.000 C 
ATOM      2  C   UNL     1       3.375   5.109  17.128  0.00  0.00    +0.000 C 
ENDROOT
BRANCH   2   3
ATOM      3  C   UNL     1       2.496   4.446  18.114  0.00  0.00    +0.000 A 
ATOM      4  C   UNL     1       2.088   3.125  17.866  0.00  0.00    +0.000 A 
ATOM      5  C   UNL     1       1.308   2.434  18.798  0.00  0.00    +0.000 A 
ATOM      6  C   UNL     1       0.928   3.047  19.991  0.00  0.00    +0.000 A 
ATOM      7  C   UNL     1       1.314   4.362  20.245  0.00  0.00    +0.000 A 
ATOM      8  C   UNL     1       2.089   5.061  19.312  0.00  0.00    +0.000 A 
ATOM      9 CL   UNL     1       2.529   6.691  19.688  0.00  0.00    +0.000 Cl
ENDBRANCH   2   3
BRANCH   1  11
ATOM     10  N   UNL     1       5.977   4.014  19.433  0.00  0.00    +0.000 NA
ATOM     11  C   UNL     1       5.406   4.544  18.442  0.00  0.00    +0.000 C 
ENDBRANCH   1  11
BRANCH   1  12
ATOM     12  C   UNL     1       5.515   5.859  16.185  0.00  0.00    +0.000 C 
ATOM     13  O   UNL     1       5.887   7.024  16.325  0.00  0.00    +0.000 OA
BRANCH  12  14
ATOM     14  C   UNL     1       5.848   5.141  14.923  0.00  0.00    +0.000 A 
ATOM     15  C   UNL     1       7.119   5.345  14.368  0.00  0.00    +0.000 A 
ATOM     16  C   UNL     1       7.505   4.664  13.211  0.00  0.00    +0.000 A 
ATOM     17  C   UNL     1       6.624   3.773  12.601  0.00  0.00    +0.000 A 
ATOM     18  C   UNL     1       5.363   3.556  13.152  0.00  0.00    +0.000 A 
ATOM     19  C   UNL     1       4.977   4.226  14.317  0.00  0.00    +0.000 A 
ENDBRANCH  12  14
ENDBRANCH   1  12
TORSDOF 4
ENDMDL
MODEL 9
REMARK VINA RESULT:      -7.3      1.587      2.190
REMARK  Name = 
REMARK  4 active torsions:
REMARK  status: ('A' for Active; 'I' for Inactive)
REMARK    1  A    between atoms: C_2  and  C_3
REMARK    2  A    between atoms: C_3  and  C_12
REMARK    3  A    between atoms: C_4  and  C_5
REMARK    4  A    between atoms: C_12  and  C_14
REMARK                            x       y       z     vdW  Elec       q    Type
REMARK                         _______ _______ _______ _____ _____    ______ ____
ROOT
ATOM      1  C   UNL     1       6.296   4.525  15.516  0.00  0.00    +0.000 C 
ATOM      2  C   UNL     1       4.964   4.471  15.726  0.00  0.00    +0.000 C 
ENDROOT
BRANCH   2   3
ATOM      3  C   UNL     1       4.346   4.358  17.064  0.00  0.00    +0.000 A 
ATOM      4  C   UNL     1       4.065   3.076  17.565  0.00  0.00    +0.000 A 
ATOM      5  C   UNL     1       3.538   2.913  18.849  0.00  0.00    +0.000 A 
ATOM      6  C   UNL     1       3.287   4.025  19.653  0.00  0.00    +0.000 A 
ATOM      7  C   UNL     1       3.548   5.304  19.164  0.00  0.00    +0.000 A 
ATOM      8  C   UNL     1       4.069   5.472  17.876  0.00  0.00    +0.000 A 
ATOM      9 CL   UNL     1       4.364   7.087  17.331  0.00  0.00    +0.000 Cl
ENDBRANCH   2   3
BRANCH   1  11
ATOM     10  N   UNL     1       8.043   4.382  17.675  0.00  0.00    +0.000 NA
ATOM     11  C   UNL     1       7.251   4.447  16.696  0.00  0.00    +0.000 C 
ENDBRANCH   1  11
BRANCH   1  12
ATOM     12  C   UNL     1       6.819   4.620  14.123  0.00  0.00    +0.000 C 
ATOM     13  O   UNL     1       7.711   5.420  13.841  0.00  0.00    +0.000 OA
BRANCH  12  14
ATOM     14  C   UNL     1       6.246   3.766  13.044  0.00  0.00    +0.000 A 
ATOM     15  C   UNL     1       4.901   3.958  12.701  0.00  0.00    +0.000 A 
ATOM     16  C   UNL     1       4.321   3.219  11.666  0.00  0.00    +0.000 A 
ATOM     17  C   UNL     1       5.083   2.285  10.968  0.00  0.00    +0.000 A 
ATOM     18  C   UNL     1       6.424   2.095  11.295  0.00  0.00    +0.000 A 
ATOM     19  C   UNL     1       7.011   2.841  12.322  0.00  0.00    +0.000 A 
ENDBRANCH  12  14
ENDBRANCH   1  12
TORSDOF 4
ENDMDL
