MODEL 1
REMARK VINA RESULT:      -6.4      0.000      0.000
REMARK  Name = 
REMARK  5 active torsions:
REMARK  status: ('A' for Active; 'I' for Inactive)
REMARK    1  A    between atoms: C_1  and  N_2
REMARK    2  A    between atoms: C_6  and  N_7
REMARK    3  A    between atoms: N_10  and  C_11
REMARK    4  A    between atoms: C_11  and  C_12
REMARK    5  A    between atoms: C_12  and  C_13
REMARK                            x       y       z     vdW  Elec       q    Type
REMARK                         _______ _______ _______ _____ _____    ______ ____
ROOT
ATOM      1  N   UNL     1       7.173   6.729  17.046  0.00  0.00    +0.000 N 
ATOM      2  C   UNL     1       7.919   7.482  17.916  0.00  0.00    +0.000 C 
ATOM      3  O   UNL     1       8.421   7.050  18.943  0.00  0.00    +0.000 OA
ATOM      4  N   UNL     1       7.998   8.798  17.521  0.00  0.00    +0.000 N 
ATOM      5  H   UNL     1       7.278   6.992  16.076  0.00  0.00    +0.000 HD
ATOM      6  H   UNL     1       7.252   9.103  16.913  0.00  0.00    +0.000 HD
ENDROOT
BRANCH   1  12
ATOM      7  C   UNL     1       6.066   3.980  13.834  0.00  0.00    +0.000 C 
ATOM      8  N   UNL     1       5.934   4.735  15.084  0.00  0.00    +0.000 NA
ATOM      9  C   UNL     1       4.696   4.342  15.777  0.00  0.00    +0.000 C 
ATOM     10  C   UNL     1       4.518   5.119  17.081  0.00  0.00    +0.000 C 
ATOM     11  C   UNL     1       5.728   4.965  17.997  0.00  0.00    +0.000 C 
ATOM     12  C   UNL     1       7.037   5.286  17.272  0.00  0.00    +0.000 C 
ATOM     13  C   UNL     1       7.116   4.498  15.942  0.00  0.00    +0.000 C 
ENDBRANCH   1  12
BRANCH   4  14
ATOM     14  C   UNL     1       8.591   9.764  18.434  0.00  0.00    +0.000 C 
BRANCH  14  15
ATOM     15  C   UNL     1       8.762  11.151  17.815  0.00  0.00    +0.000 C 
BRANCH  15  16
ATOM     16  C   UNL     1       9.899  11.913  18.448  0.00  0.00    +0.000 A 
ATOM     17  C   UNL     1      10.124  13.253  18.120  0.00  0.00    +0.000 A 
ATOM     18  C   UNL     1      11.198  13.912  18.705  0.00  0.00    +0.000 A 
ATOM     19  N   UNL     1      12.050  13.331  19.577  0.00  0.00    +0.000 NA
ATOM     20  C   UNL     1      11.821  12.036  19.876  0.00  0.00    +0.000 A 
ATOM     21  C   UNL     1      10.775  11.294  19.345  0.00  0.00    +0.000 A 
ENDBRANCH  15  16
ENDBRANCH  14  15
ENDBRANCH   4  14
TORSDOF 4
ENDMDL
MODEL 2
REMARK VINA RESULT:      -6.4      0.793      1.258
REMARK  Name = 
REMARK  5 active torsions:
REMARK  status: ('A' for Active; 'I' for Inactive)
REMARK    1  A    between atoms: C_1  and  N_2
REMARK    2  A    between atoms: C_6  and  N_7
REMARK    3  A    between atoms: N_10  and  C_11
REMARK    4  A    between atoms: C_11  and  C_12
REMARK    5  A    between atoms: C_12  and  C_13
REMARK                            x       y       z     vdW  Elec       q    Type
REMARK                         _______ _______ _______ _____ _____    ______ ____
ROOT
ATOM      1  N   UNL     1       7.180   6.768  16.972  0.00  0.00    +0.000 N 
ATOM      2  C   UNL     1       7.913   7.554  17.824  0.00  0.00    +0.000 C 
ATOM      3  O   UNL     1       8.419   7.156  18.863  0.00  0.00    +0.000 OA
ATOM      4  N   UNL     1       7.976   8.860  17.394  0.00  0.00    +0.000 N 
ATOM      5  H   UNL     1       7.283   7.006  15.996  0.00  0.00    +0.000 HD
ATOM      6  H   UNL     1       7.227   9.139  16.777  0.00  0.00    +0.000 HD
ENDROOT
BRANCH   1  12
ATOM      7  C   UNL     1       6.112   3.920  13.833  0.00  0.00    +0.000 C 
ATOM      8  N   UNL     1       5.968   4.706  15.063  0.00  0.00    +0.000 NA
ATOM      9  C   UNL     1       4.735   4.316  15.765  0.00  0.00    +0.000 C 
ATOM     10  C   UNL     1       4.545   5.125  17.048  0.00  0.00    +0.000 C 
ATOM     11  C   UNL     1       5.756   5.012  17.969  0.00  0.00    +0.000 C 
ATOM     12  C   UNL     1       7.062   5.330  17.237  0.00  0.00    +0.000 C 
ATOM     13  C   UNL     1       7.153   4.508  15.928  0.00  0.00    +0.000 C 
ENDBRANCH   1  12
BRANCH   4  14
ATOM     14  C   UNL     1       8.554   9.857  18.281  0.00  0.00    +0.000 C 
BRANCH  14  15
ATOM     15  C   UNL     1       8.263  11.293  17.846  0.00  0.00    +0.000 C 
BRANCH  15  16
ATOM     16  C   UNL     1       9.507  12.146  17.852  0.00  0.00    +0.000 A 
ATOM     17  C   UNL     1      10.773  11.554  17.857  0.00  0.00    +0.000 A 
ATOM     18  C   UNL     1      11.893  12.374  17.889  0.00  0.00    +0.000 A 
ATOM     19  N   UNL     1      11.835  13.723  17.920  0.00  0.00    +0.000 NA
ATOM     20  C   UNL     1      10.605  14.276  17.922  0.00  0.00    +0.000 A 
ATOM     21  C   UNL     1       9.428  13.542  17.890  0.00  0.00    +0.000 A 
ENDBRANCH  15  16
ENDBRANCH  14  15
ENDBRANCH   4  14
TORSDOF 4
ENDMDL
MODEL 3
REMARK VINA RESULT:      -6.4      5.687      7.687
REMARK  Name = 
REMARK  5 active torsions:
REMARK  status: ('A' for Active; 'I' for Inactive)
REMARK    1  A    between atoms: C_1  and  N_2
REMARK    2  A    between atoms: C_6  and  N_7
REMARK    3  A    between atoms: N_10  and  C_11
REMARK    4  A    between atoms: C_11  and  C_12
REMARK    5  A    between atoms: C_12  and  C_13
REMARK                            x       y       z     vdW  Elec       q    Type
REMARK                         _______ _______ _______ _____ _____    ______ ____
ROOT
ATOM      1  N   UNL     1       4.389   4.262  18.925  0.00  0.00    +0.000 N 
ATOM      2  C   UNL     1       5.398   4.926  18.273  0.00  0.00    +0.000 C 
ATOM      3  O   UNL     1       5.369   6.115  17.992  0.00  0.00    +0.000 OA
ATOM      4  N   UNL     1       6.430   4.083  17.929  0.00  0.00    +0.000 N 
ATOM      5  H   UNL     1       4.708   3.526  19.540  0.00  0.00    +0.000 HD
ATOM      6  H   UNL     1       6.176   3.109  17.857  0.00  0.00    +0.000 HD
ENDROOT
BRANCH   1  12
ATOM      7  C   UNL     1       1.528   2.511  21.726  0.00  0.00    +0.000 C 
ATOM      8  N   UNL     1       2.030   3.072  20.468  0.00  0.00    +0.000 NA
ATOM      9  C   UNL     1       0.926   3.207  19.504  0.00  0.00    +0.000 C 
ATOM     10  C   UNL     1       1.415   3.780  18.173  0.00  0.00    +0.000 C 
ATOM     11  C   UNL     1       2.137   5.109  18.365  0.00  0.00    +0.000 C 
ATOM     12  C   UNL     1       3.236   5.015  19.428  0.00  0.00    +0.000 C 
ATOM     13  C   UNL     1       2.671   4.382  20.722  0.00  0.00    +0.000 C 
ENDBRANCH   1  12
BRANCH   4  14
ATOM     14  C   UNL     1       7.485   4.592  17.067  0.00  0.00    +0.000 C 
BRANCH  14  15
ATOM     15  C   UNL     1       6.977   5.567  16.004  0.00  0.00    +0.000 C 
BRANCH  15  16
ATOM     16  C   UNL     1       6.844   4.907  14.654  0.00  0.00    +0.000 A 
ATOM     17  C   UNL     1       7.752   5.196  13.631  0.00  0.00    +0.000 A 
ATOM     18  C   UNL     1       7.579   4.588  12.394  0.00  0.00    +0.000 A 
ATOM     19  N   UNL     1       6.577   3.728  12.115  0.00  0.00    +0.000 NA
ATOM     20  C   UNL     1       5.707   3.467  13.112  0.00  0.00    +0.000 A 
ATOM     21  C   UNL     1       5.796   4.023  14.380  0.00  0.00    +0.000 A 
ENDBRANCH  15  16
ENDBRANCH  14  15
ENDBRANCH   4  14
TORSDOF 4
ENDMDL
MODEL 4
REMARK VINA RESULT:      -6.3      4.901      8.592
REMARK  Name = 
REMARK  5 active torsions:
REMARK  status: ('A' for Active; 'I' for Inactive)
REMARK    1  A    between atoms: C_1  and  N_2
REMARK    2  A    between atoms: C_6  and  N_7
REMARK    3  A    between atoms: N_10  and  C_11
REMARK    4  A    between atoms: C_11  and  C_12
REMARK    5  A    between atoms: C_12  and  C_13
REMARK                            x       y       z     vdW  Elec       q    Type
REMARK                         _______ _______ _______ _____ _____    ______ ____
ROOT
ATOM      1  N   UNL     1       4.614   6.399  18.619  0.00  0.00    +0.000 N 
ATOM      2  C   UNL     1       3.282   6.168  18.850  0.00  0.00    +0.000 C 
ATOM      3  O   UNL     1       2.395   6.387  18.038  0.00  0.00    +0.000 OA
ATOM      4  N   UNL     1       3.053   5.705  20.126  0.00  0.00    +0.000 N 
ATOM      5  H   UNL     1       5.232   5.737  19.068  0.00  0.00    +0.000 HD
ATOM      6  H   UNL     1       3.771   5.936  20.796  0.00  0.00    +0.000 HD
ENDROOT
BRANCH   1  12
ATOM      7  C   UNL     1       5.810   3.544  15.534  0.00  0.00    +0.000 C 
ATOM      8  N   UNL     1       5.953   4.616  16.523  0.00  0.00    +0.000 NA
ATOM      9  C   UNL     1       7.321   5.158  16.481  0.00  0.00    +0.000 C 
ATOM     10  C   UNL     1       7.511   6.272  17.510  0.00  0.00    +0.000 C 
ATOM     11  C   UNL     1       6.480   7.382  17.333  0.00  0.00    +0.000 C 
ATOM     12  C   UNL     1       5.052   6.833  17.288  0.00  0.00    +0.000 C 
ATOM     13  C   UNL     1       4.957   5.679  16.261  0.00  0.00    +0.000 C 
ENDBRANCH   1  12
BRANCH   4  14
ATOM     14  C   UNL     1       1.678   5.594  20.590  0.00  0.00    +0.000 C 
BRANCH  14  15
ATOM     15  C   UNL     1       1.181   4.150  20.661  0.00  0.00    +0.000 C 
BRANCH  15  16
ATOM     16  C   UNL     1       1.991   3.231  19.781  0.00  0.00    +0.000 A 
ATOM     17  C   UNL     1       3.166   2.646  20.260  0.00  0.00    +0.000 A 
ATOM     18  C   UNL     1       3.898   1.826  19.409  0.00  0.00    +0.000 A 
ATOM     19  N   UNL     1       3.542   1.560  18.135  0.00  0.00    +0.000 NA
ATOM     20  C   UNL     1       2.408   2.140  17.688  0.00  0.00    +0.000 A 
ATOM     21  C   UNL     1       1.610   2.971  18.460  0.00  0.00    +0.000 A 
ENDBRANCH  15  16
ENDBRANCH  14  15
ENDBRANCH   4  14
TORSDOF 4
ENDMDL
MODEL 5
REMARK VINA RESULT:      -6.3      5.717      7.769
REMARK  Name = 
REMARK  5 active torsions:
REMARK  status: ('A' for Active; 'I' for Inactive)
REMARK    1  A    between atoms: C_1  and  N_2
REMARK    2  A    between atoms: C_6  and  N_7
REMARK    3  A    between atoms: N_10  and  C_11
REMARK    4  A    between atoms: C_11  and  C_12
REMARK    5  A    between atoms: C_12  and  C_13
REMARK                            x       y       z     vdW  Elec       q    Type
REMARK                         _______ _______ _______ _____ _____    ______ ____
ROOT
ATOM      1  N   UNL     1       4.200   4.166  18.613  0.00  0.00    +0.000 N 
ATOM      2  C   UNL     1       5.267   4.858  18.098  0.00  0.00    +0.000 C 
ATOM      3  O   UNL     1       5.298   6.073  17.964  0.00  0.00    +0.000 OA
ATOM      4  N   UNL     1       6.283   4.019  17.703  0.00  0.00    +0.000 N 
ATOM      5  H   UNL     1       4.458   3.348  19.147  0.00  0.00    +0.000 HD
ATOM      6  H   UNL     1       5.997   3.073  17.499  0.00  0.00    +0.000 HD
ENDROOT
BRANCH   1  12
ATOM      7  C   UNL     1       1.683   2.533  21.790  0.00  0.00    +0.000 C 
ATOM      8  N   UNL     1       2.047   3.004  20.450  0.00  0.00    +0.000 NA
ATOM      9  C   UNL     1       0.862   2.996  19.577  0.00  0.00    +0.000 C 
ATOM     10  C   UNL     1       1.207   3.471  18.165  0.00  0.00    +0.000 C 
ATOM     11  C   UNL     1       1.865   4.846  18.180  0.00  0.00    +0.000 C 
ATOM     12  C   UNL     1       3.051   4.903  19.147  0.00  0.00    +0.000 C 
ATOM     13  C   UNL     1       2.631   4.361  20.535  0.00  0.00    +0.000 C 
ENDBRANCH   1  12
BRANCH   4  14
ATOM     14  C   UNL     1       7.402   4.582  16.962  0.00  0.00    +0.000 C 
BRANCH  14  15
ATOM     15  C   UNL     1       6.973   5.589  15.895  0.00  0.00    +0.000 C 
BRANCH  15  16
ATOM     16  C   UNL     1       6.817   4.942  14.542  0.00  0.00    +0.000 A 
ATOM     17  C   UNL     1       5.783   4.030  14.307  0.00  0.00    +0.000 A 
ATOM     18  C   UNL     1       5.690   3.437  13.054  0.00  0.00    +0.000 A 
ATOM     19  N   UNL     1       6.545   3.686  12.040  0.00  0.00    +0.000 NA
ATOM     20  C   UNL     1       7.539   4.563  12.288  0.00  0.00    +0.000 A 
ATOM     21  C   UNL     1       7.716   5.207  13.504  0.00  0.00    +0.000 A 
ENDBRANCH  15  16
ENDBRANCH  14  15
ENDBRANCH   4  14
TORSDOF 4
ENDMDL
MODEL 6
REMARK VINA RESULT:      -6.3      7.019      7.845
REMARK  Name = 
REMARK  5 active torsions:
REMARK  status: ('A' for Active; 'I' for Inactive)
REMARK    1  A    between atoms: C_1  and  N_2
REMARK    2  A    between atoms: C_6  and  N_7
REMARK    3  A    between atoms: N_10  and  C_11
REMARK    4  A    between atoms: C_11  and  C_12
REMARK    5  A    between atoms: C_12  and  C_13
REMARK                            x       y       z     vdW  Elec       q    Type
REMARK                         _______ _______ _______ _____ _____    ______ ____
ROOT
ATOM      1  N   UNL     1       2.397   5.634  18.845  0.00  0.00    +0.000 N 
ATOM      2  C   UNL     1       2.410   6.992  19.036  0.00  0.00    +0.000 C 
ATOM      3  O   UNL     1       2.455   7.532  20.132  0.00  0.00    +0.000 OA
ATOM      4  N   UNL     1       2.318   7.680  17.848  0.00  0.00    +0.000 N 
ATOM      5  H   UNL     1       2.878   5.329  18.011  0.00  0.00    +0.000 HD
ATOM      6  H   UNL     1       1.902   7.161  17.089  0.00  0.00    +0.000 HD
ENDROOT
BRANCH   1  12
ATOM      7  C   UNL     1       3.708   1.489  18.394  0.00  0.00    +0.000 C 
ATOM      8  N   UNL     1       2.807   2.605  18.699  0.00  0.00    +0.000 NA
ATOM      9  C   UNL     1       1.542   2.092  19.247  0.00  0.00    +0.000 C 
ATOM     10  C   UNL     1       0.570   3.229  19.566  0.00  0.00    +0.000 C 
ATOM     11  C   UNL     1       1.195   4.255  20.505  0.00  0.00    +0.000 C 
ATOM     12  C   UNL     1       2.555   4.741  19.997  0.00  0.00    +0.000 C 
ATOM     13  C   UNL     1       3.457   3.531  19.652  0.00  0.00    +0.000 C 
ENDBRANCH   1  12
BRANCH   4  14
ATOM     14  C   UNL     1       2.126   9.122  17.892  0.00  0.00    +0.000 C 
BRANCH  14  15
ATOM     15  C   UNL     1       0.674   9.529  18.140  0.00  0.00    +0.000 C 
BRANCH  15  16
ATOM     16  C   UNL     1       0.518  10.302  19.426  0.00  0.00    +0.000 A 
ATOM     17  C   UNL     1      -0.244   9.784  20.477  0.00  0.00    +0.000 A 
ATOM     18  C   UNL     1      -0.384  10.538  21.635  0.00  0.00    +0.000 A 
ATOM     19  N   UNL     1       0.173  11.755  21.809  0.00  0.00    +0.000 NA
ATOM     20  C   UNL     1       0.899  12.242  20.782  0.00  0.00    +0.000 A 
ATOM     21  C   UNL     1       1.098  11.565  19.587  0.00  0.00    +0.000 A 
ENDBRANCH  15  16
ENDBRANCH  14  15
ENDBRANCH   4  14
TORSDOF 4
ENDMDL
MODEL 7
REMARK VINA RESULT:      -6.3      4.899      8.555
REMARK  Name = 
REMARK  5 active torsions:
REMARK  status: ('A' for Active; 'I' for Inactive)
REMARK    1  A    between atoms: C_1  and  N_2
REMARK    2  A    between atoms: C_6  and  N_7
REMARK    3  A    between atoms: N_10  and  C_11
REMARK    4  A    between atoms: C_11  and  C_12
REMARK    5  A    between atoms: C_12  and  C_13
REMARK                            x       y       z     vdW  Elec       q    Type
REMARK                         _______ _______ _______ _____ _____    ______ ____
ROOT
ATOM      1  N   UNL     1       4.607   6.406  18.633  0.00  0.00    +0.000 N 
ATOM      2  C   UNL     1       3.276   6.172  18.868  0.00  0.00    +0.000 C 
ATOM      3  O   UNL     1       2.386   6.388  18.058  0.00  0.00    +0.000 OA
ATOM      4  N   UNL     1       3.052   5.709  20.145  0.00  0.00    +0.000 N 
ATOM      5  H   UNL     1       5.228   5.746  19.081  0.00  0.00    +0.000 HD
ATOM      6  H   UNL     1       3.772   5.943  20.813  0.00  0.00    +0.000 HD
ENDROOT
BRANCH   1  12
ATOM      7  C   UNL     1       5.814   3.551  15.551  0.00  0.00    +0.000 C 
ATOM      8  N   UNL     1       5.953   4.627  16.539  0.00  0.00    +0.000 NA
ATOM      9  C   UNL     1       7.317   5.176  16.492  0.00  0.00    +0.000 C 
ATOM     10  C   UNL     1       7.503   6.294  17.519  0.00  0.00    +0.000 C 
ATOM     11  C   UNL     1       6.465   7.397  17.342  0.00  0.00    +0.000 C 
ATOM     12  C   UNL     1       5.040   6.840  17.301  0.00  0.00    +0.000 C 
ATOM     13  C   UNL     1       4.950   5.683  16.276  0.00  0.00    +0.000 C 
ENDBRANCH   1  12
BRANCH   4  14
ATOM     14  C   UNL     1       1.679   5.595  20.613  0.00  0.00    +0.000 C 
BRANCH  14  15
ATOM     15  C   UNL     1       1.165   4.156  20.628  0.00  0.00    +0.000 C 
BRANCH  15  16
ATOM     16  C   UNL     1       2.008   3.248  19.768  0.00  0.00    +0.000 A 
ATOM     17  C   UNL     1       1.620   2.950  18.459  0.00  0.00    +0.000 A 
ATOM     18  C   UNL     1       2.410   2.088  17.709  0.00  0.00    +0.000 A 
ATOM     19  N   UNL     1       3.540   1.513  18.171  0.00  0.00    +0.000 NA
ATOM     20  C   UNL     1       3.895   1.807  19.439  0.00  0.00    +0.000 A 
ATOM     21  C   UNL     1       3.173   2.655  20.266  0.00  0.00    +0.000 A 
ENDBRANCH  15  16
ENDBRANCH  14  15
ENDBRANCH   4  14
TORSDOF 4
ENDMDL
MODEL 8
REMARK VINA RESULT:      -6.2      1.124      1.550
REMARK  Name = 
REMARK  5 active torsions:
REMARK  status: ('A' for Active; 'I' for Inactive)
REMARK    1  A    between atoms: C_1  and  N_2
REMARK    2  A    between atoms: C_6  and  N_7
REMARK    3  A    between atoms: N_10  and  C_11
REMARK    4  A    between atoms: C_11  and  C_12
REMARK    5  A    between atoms: C_12  and  C_13
REMARK                            x       y       z     vdW  Elec       q    Type
REMARK                         _______ _______ _______ _____ _____    ______ ____
ROOT
ATOM      1  N   UNL     1       7.269   6.809  16.956  0.00  0.00    +0.000 N 
ATOM      2  C   UNL     1       7.927   7.617  17.847  0.00  0.00    +0.000 C 
ATOM      3  O   UNL     1       8.401   7.230  18.905  0.00  0.00    +0.000 OA
ATOM      4  N   UNL     1       7.951   8.929  17.433  0.00  0.00    +0.000 N 
ATOM      5  H   UNL     1       7.406   7.062  15.988  0.00  0.00    +0.000 HD
ATOM      6  H   UNL     1       7.220   9.182  16.784  0.00  0.00    +0.000 HD
ENDROOT
BRANCH   1  12
ATOM      7  C   UNL     1       6.085   3.985  13.837  0.00  0.00    +0.000 C 
ATOM      8  N   UNL     1       5.996   4.747  15.087  0.00  0.00    +0.000 NA
ATOM      9  C   UNL     1       4.818   4.314  15.854  0.00  0.00    +0.000 C 
ATOM     10  C   UNL     1       4.685   5.098  17.161  0.00  0.00    +0.000 C 
ATOM     11  C   UNL     1       5.952   5.001  18.005  0.00  0.00    +0.000 C 
ATOM     12  C   UNL     1       7.203   5.364  17.202  0.00  0.00    +0.000 C 
ATOM     13  C   UNL     1       7.235   4.566  15.876  0.00  0.00    +0.000 C 
ENDBRANCH   1  12
BRANCH   4  14
ATOM     14  C   UNL     1       8.443   9.941  18.355  0.00  0.00    +0.000 C 
BRANCH  14  15
ATOM     15  C   UNL     1       9.729  10.616  17.879  0.00  0.00    +0.000 C 
BRANCH  15  16
ATOM     16  C   UNL     1       9.622  12.120  17.914  0.00  0.00    +0.000 A 
ATOM     17  C   UNL     1      10.768  12.910  18.048  0.00  0.00    +0.000 A 
ATOM     18  C   UNL     1      10.624  14.290  18.103  0.00  0.00    +0.000 A 
ATOM     19  N   UNL     1       9.433  14.923  18.038  0.00  0.00    +0.000 NA
ATOM     20  C   UNL     1       8.339  14.145  17.916  0.00  0.00    +0.000 A 
ATOM     21  C   UNL     1       8.379  12.759  17.852  0.00  0.00    +0.000 A 
ENDBRANCH  15  16
ENDBRANCH  14  15
ENDBRANCH   4  14
TORSDOF 4
ENDMDL
MODEL 9
REMARK VINA RESULT:      -6.1      6.663      9.290
REMARK  Name = 
REMARK  5 active torsions:
REMARK  status: ('A' for Active; 'I' for Inactive)
REMARK    1  A    between atoms: C_1  and  N_2
REMARK    2  A    between atoms: C_6  and  N_7
REMARK    3  A    between atoms: N_10  and  C_11
REMARK    4  A    between atoms: C_11  and  C_12
REMARK    5  A    between atoms: C_12  and  C_13
REMARK                            x       y       z     vdW  Elec       q    Type
REMARK                         _______ _______ _______ _____ _____    ______ ____
ROOT
ATOM      1  N   UNL     1       2.327   7.334  18.324  0.00  0.00    +0.000 N 
ATOM      2  C   UNL     1       1.780   8.408  18.978  0.00  0.00    +0.000 C 
ATOM      3  O   UNL     1       1.706   8.508  20.194  0.00  0.00    +0.000 OA
ATOM      4  N   UNL     1       1.280   9.344  18.102  0.00  0.00    +0.000 N 
ATOM      5  H   UNL     1       2.802   7.572  17.464  0.00  0.00    +0.000 HD
ATOM      6  H   UNL     1       1.047   8.987  17.187  0.00  0.00    +0.000 HD
ENDROOT
BRANCH   1  12
ATOM      7  C   UNL     1       5.272   4.640  16.543  0.00  0.00    +0.000 C 
ATOM      8  N   UNL     1       4.007   5.060  17.154  0.00  0.00    +0.000 NA
ATOM      9  C   UNL     1       3.154   3.885  17.395  0.00  0.00    +0.000 C 
ATOM     10  C   UNL     1       1.818   4.286  18.022  0.00  0.00    +0.000 C 
ATOM     11  C   UNL     1       2.017   5.088  19.304  0.00  0.00    +0.000 C 
ATOM     12  C   UNL     1       2.971   6.267  19.098  0.00  0.00    +0.000 C 
ATOM     13  C   UNL     1       4.274   5.785  18.416  0.00  0.00    +0.000 C 
ENDBRANCH   1  12
BRANCH   4  14
ATOM     14  C   UNL     1       0.498  10.449  18.637  0.00  0.00    +0.000 C 
BRANCH  14  15
ATOM     15  C   UNL     1      -0.904  10.035  19.084  0.00  0.00    +0.000 C 
BRANCH  15  16
ATOM     16  C   UNL     1      -1.946  10.361  18.043  0.00  0.00    +0.000 A 
ATOM     17  C   UNL     1      -1.881   9.785  16.771  0.00  0.00    +0.000 A 
ATOM     18  C   UNL     1      -2.844  10.132  15.832  0.00  0.00    +0.000 A 
ATOM     19  N   UNL     1      -3.848  11.001  16.073  0.00  0.00    +0.000 NA
ATOM     20  C   UNL     1      -3.890  11.552  17.304  0.00  0.00    +0.000 A 
ATOM     21  C   UNL     1      -2.976  11.269  18.308  0.00  0.00    +0.000 A 
ENDBRANCH  15  16
ENDBRANCH  14  15
ENDBRANCH   4  14
TORSDOF 4
ENDMDL
