MODEL 1
REMARK VINA RESULT:      -6.9      0.000      0.000
REMARK  Name = 
REMARK  10 active torsions:
REMARK  status: ('A' for Active; 'I' for Inactive)
REMARK    1  A    between atoms: C_1  and  C_2
REMARK    2  A    between atoms: C_2  and  O_3
REMARK    3  A    between atoms: O_3  and  C_4
REMARK    4  A    between atoms: C_4  and  C_6
REMARK    5  A    between atoms: C_6  and  C_7
REMARK    6  A    between atoms: C_9  and  N_10
REMARK    7  A    between atoms: N_10  and  C_11
REMARK    8  A    between atoms: N_10  and  N_13
REMARK    9  A    between atoms: C_11  and  C_12
REMARK   10  A    between atoms: C_14  and  C_15
REMARK                            x       y       z     vdW  Elec       q    Type
REMARK                         _______ _______ _______ _____ _____    ______ ____
ROOT
ATOM      1  N   UNL     1       6.669   4.779  18.193  0.00  0.00    +0.000 N 
ENDROOT
BRANCH   1   3
ATOM      2  C   UNL     1       6.525   5.173  15.723  0.00  0.00    +0.000 C 
ATOM      3  C   UNL     1       6.967   4.548  16.838  0.00  0.00    +0.000 C 
BRANCH   2   4
ATOM      4  C   UNL     1       7.115   4.852  14.420  0.00  0.00    +0.000 C 
ATOM      5  O   UNL     1       8.021   5.483  13.899  0.00  0.00    +0.000 OA
BRANCH   4   6
ATOM      6  O   UNL     1       6.429   3.831  13.846  0.00  0.00    +0.000 OA
BRANCH   6   8
ATOM      7  C   UNL     1       5.476   2.818  11.911  0.00  0.00    +0.000 C 
ATOM      8  C   UNL     1       6.569   3.739  12.424  0.00  0.00    +0.000 C 
ENDBRANCH   6   8
ENDBRANCH   4   6
ENDBRANCH   2   4
BRANCH   2   9
ATOM      9  C   UNL     1       5.467   6.245  15.918  0.00  0.00    +0.000 C 
ATOM     10  N   UNL     1       4.587   7.134  16.080  0.00  0.00    +0.000 NA
ENDBRANCH   2   9
ENDBRANCH   1   3
BRANCH   1  11
ATOM     11  C   UNL     1       7.536   5.567  19.109  0.00  0.00    +0.000 C 
ATOM     12  C   UNL     1       7.984   6.911  18.538  0.00  0.00    +0.000 C 
ENDBRANCH   1  11
BRANCH   1  13
ATOM     13  N   UNL     1       5.648   4.079  18.815  0.00  0.00    +0.000 NA
ATOM     14  C   UNL     1       4.446   4.526  18.608  0.00  0.00    +0.000 C 
BRANCH  14  15
ATOM     15  C   UNL     1       3.231   3.946  19.199  0.00  0.00    +0.000 A 
ATOM     16  C   UNL     1       2.503   2.950  18.550  0.00  0.00    +0.000 A 
ATOM     17  C   UNL     1       1.358   2.434  19.159  0.00  0.00    +0.000 A 
ATOM     18  C   UNL     1       0.950   2.910  20.406  0.00  0.00    +0.000 A 
ATOM     19  C   UNL     1       1.685   3.902  21.055  0.00  0.00    +0.000 A 
ATOM     20  C   UNL     1       2.825   4.420  20.451  0.00  0.00    +0.000 A 
ENDBRANCH  14  15
ENDBRANCH   1  13
TORSDOF 8
ENDMDL
MODEL 2
REMARK VINA RESULT:      -6.8      2.889      3.911
REMARK  Name = 
REMARK  10 active torsions:
REMARK  status: ('A' for Active; 'I' for Inactive)
REMARK    1  A    between atoms: C_1  and  C_2
REMARK    2  A    between atoms: C_2  and  O_3
REMARK    3  A    between atoms: O_3  and  C_4
REMARK    4  A    between atoms: C_4  and  C_6
REMARK    5  A    between atoms: C_6  and  C_7
REMARK    6  A    between atoms: C_9  and  N_10
REMARK    7  A    between atoms: N_10  and  C_11
REMARK    8  A    between atoms: N_10  and  N_13
REMARK    9  A    between atoms: C_11  and  C_12
REMARK   10  A    between atoms: C_14  and  C_15
REMARK                            x       y       z     vdW  Elec       q    Type
REMARK                         _______ _______ _______ _____ _____    ______ ____
ROOT
ATOM      1  N   UNL     1       4.426   5.283  17.188  0.00  0.00    +0.000 N 
ENDROOT
BRANCH   1   3
ATOM      2  C   UNL     1       6.447   4.870  15.765  0.00  0.00    +0.000 C 
ATOM      3  C   UNL     1       5.153   5.194  15.987  0.00  0.00    +0.000 C 
BRANCH   2   4
ATOM      4  C   UNL     1       6.932   4.685  14.394  0.00  0.00    +0.000 C 
ATOM      5  O   UNL     1       7.710   5.439  13.831  0.00  0.00    +0.000 OA
BRANCH   4   6
ATOM      6  O   UNL     1       6.303   3.627  13.825  0.00  0.00    +0.000 OA
BRANCH   6   8
ATOM      7  C   UNL     1       4.969   3.257  11.885  0.00  0.00    +0.000 C 
ATOM      8  C   UNL     1       6.359   3.594  12.394  0.00  0.00    +0.000 C 
ENDBRANCH   6   8
ENDBRANCH   4   6
ENDBRANCH   2   4
BRANCH   2   9
ATOM      9  C   UNL     1       7.312   4.647  16.993  0.00  0.00    +0.000 C 
ATOM     10  N   UNL     1       8.031   4.463  18.013  0.00  0.00    +0.000 NA
ENDBRANCH   2   9
ENDBRANCH   1   3
BRANCH   1  11
ATOM     11  C   UNL     1       3.876   4.108  17.913  0.00  0.00    +0.000 C 
ATOM     12  C   UNL     1       4.644   3.743  19.182  0.00  0.00    +0.000 C 
ENDBRANCH   1  11
BRANCH   1  13
ATOM     13  N   UNL     1       3.981   6.512  17.647  0.00  0.00    +0.000 NA
ATOM     14  C   UNL     1       2.812   6.516  18.216  0.00  0.00    +0.000 C 
BRANCH  14  15
ATOM     15  C   UNL     1       2.148   7.718  18.740  0.00  0.00    +0.000 A 
ATOM     16  C   UNL     1       1.754   7.815  20.074  0.00  0.00    +0.000 A 
ATOM     17  C   UNL     1       1.129   8.981  20.518  0.00  0.00    +0.000 A 
ATOM     18  C   UNL     1       0.903  10.038  19.634  0.00  0.00    +0.000 A 
ATOM     19  C   UNL     1       1.304   9.939  18.302  0.00  0.00    +0.000 A 
ATOM     20  C   UNL     1       1.926   8.778  17.855  0.00  0.00    +0.000 A 
ENDBRANCH  14  15
ENDBRANCH   1  13
TORSDOF 8
ENDMDL
MODEL 3
REMARK VINA RESULT:      -6.7      2.705      3.796
REMARK  Name = 
REMARK  10 active torsions:
REMARK  status: ('A' for Active; 'I' for Inactive)
REMARK    1  A    between atoms: C_1  and  C_2
REMARK    2  A    between atoms: C_2  and  O_3
REMARK    3  A    between atoms: O_3  and  C_4
REMARK    4  A    between atoms: C_4  and  C_6
REMARK    5  A    between atoms: C_6  and  C_7
REMARK    6  A    between atoms: C_9  and  N_10
REMARK    7  A    between atoms: N_10  and  C_11
REMARK    8  A    between atoms: N_10  and  N_13
REMARK    9  A    between atoms: C_11  and  C_12
REMARK   10  A    between atoms: C_14  and  C_15
REMARK                            x       y       z     vdW  Elec       q    Type
REMARK                         _______ _______ _______ _____ _____    ______ ____
ROOT
ATOM      1  N   UNL     1       4.387   4.176  18.259  0.00  0.00    +0.000 N 
ENDROOT
BRANCH   1   3
ATOM      2  C   UNL     1       6.376   4.643  16.808  0.00  0.00    +0.000 C 
ATOM      3  C   UNL     1       5.079   4.345  17.046  0.00  0.00    +0.000 C 
BRANCH   2   4
ATOM      4  C   UNL     1       6.899   4.603  15.440  0.00  0.00    +0.000 C 
ATOM      5  O   UNL     1       7.717   5.390  14.993  0.00  0.00    +0.000 OA
BRANCH   4   6
ATOM      6  O   UNL     1       6.257   3.640  14.732  0.00  0.00    +0.000 OA
BRANCH   6   8
ATOM      7  C   UNL     1       6.177   3.318  12.372  0.00  0.00    +0.000 C 
ATOM      8  C   UNL     1       5.609   4.103  13.541  0.00  0.00    +0.000 C 
ENDBRANCH   6   8
ENDBRANCH   4   6
ENDBRANCH   2   4
BRANCH   2   9
ATOM      9  C   UNL     1       7.239   4.937  18.024  0.00  0.00    +0.000 C 
ATOM     10  N   UNL     1       7.955   5.182  19.032  0.00  0.00    +0.000 NA
ENDBRANCH   2   9
ENDBRANCH   1   3
BRANCH   1  11
ATOM     11  C   UNL     1       4.011   2.852  18.822  0.00  0.00    +0.000 C 
ATOM     12  C   UNL     1       3.311   2.929  20.177  0.00  0.00    +0.000 C 
ENDBRANCH   1  11
BRANCH   1  13
ATOM     13  N   UNL     1       3.806   5.264  18.891  0.00  0.00    +0.000 NA
ATOM     14  C   UNL     1       3.112   6.058  18.131  0.00  0.00    +0.000 C 
BRANCH  14  15
ATOM     15  C   UNL     1       2.444   7.281  18.600  0.00  0.00    +0.000 A 
ATOM     16  C   UNL     1       2.221   8.365  17.753  0.00  0.00    +0.000 A 
ATOM     17  C   UNL     1       1.581   9.501  18.251  0.00  0.00    +0.000 A 
ATOM     18  C   UNL     1       1.167   9.548  19.583  0.00  0.00    +0.000 A 
ATOM     19  C   UNL     1       1.386   8.458  20.426  0.00  0.00    +0.000 A 
ATOM     20  C   UNL     1       2.026   7.325  19.934  0.00  0.00    +0.000 A 
ENDBRANCH  14  15
ENDBRANCH   1  13
TORSDOF 8
ENDMDL
MODEL 4
REMARK VINA RESULT:      -6.7      1.331      2.244
REMARK  Name = 
REMARK  10 active torsions:
REMARK  status: ('A' for Active; 'I' for Inactive)
REMARK    1  A    between atoms: C_1  and  C_2
REMARK    2  A    between atoms: C_2  and  O_3
REMARK    3  A    between atoms: O_3  and  C_4
REMARK    4  A    between atoms: C_4  and  C_6
REMARK    5  A    between atoms: C_6  and  C_7
REMARK    6  A    between atoms: C_9  and  N_10
REMARK    7  A    between atoms: N_10  and  C_11
REMARK    8  A    between atoms: N_10  and  N_13
REMARK    9  A    between atoms: C_11  and  C_12
REMARK   10  A    between atoms: C_14  and  C_15
REMARK                            x       y       z     vdW  Elec       q    Type
REMARK                         _______ _______ _______ _____ _____    ______ ____
ROOT
ATOM      1  N   UNL     1       4.728   5.874  16.439  0.00  0.00    +0.000 N 
ENDROOT
BRANCH   1   3
ATOM      2  C   UNL     1       6.443   4.803  14.959  0.00  0.00    +0.000 C 
ATOM      3  C   UNL     1       5.298   5.475  15.216  0.00  0.00    +0.000 C 
BRANCH   2   4
ATOM      4  C   UNL     1       6.741   4.357  13.595  0.00  0.00    +0.000 C 
ATOM      5  O   UNL     1       7.520   4.919  12.842  0.00  0.00    +0.000 OA
BRANCH   4   6
ATOM      6  O   UNL     1       5.943   3.309  13.272  0.00  0.00    +0.000 OA
BRANCH   6   8
ATOM      7  C   UNL     1       4.398   3.196  11.460  0.00  0.00    +0.000 C 
ATOM      8  C   UNL     1       5.852   3.035  11.869  0.00  0.00    +0.000 C 
ENDBRANCH   6   8
ENDBRANCH   4   6
ENDBRANCH   2   4
BRANCH   2   9
ATOM      9  C   UNL     1       7.330   4.489  16.152  0.00  0.00    +0.000 C 
ATOM     10  N   UNL     1       8.066   4.227  17.142  0.00  0.00    +0.000 NA
ENDBRANCH   2   9
ENDBRANCH   1   3
BRANCH   1  11
ATOM     11  C   UNL     1       4.923   7.218  17.045  0.00  0.00    +0.000 C 
ATOM     12  C   UNL     1       6.349   7.483  17.523  0.00  0.00    +0.000 C 
ENDBRANCH   1  11
BRANCH   1  13
ATOM     13  N   UNL     1       4.131   4.940  17.271  0.00  0.00    +0.000 NA
ATOM     14  C   UNL     1       3.202   5.394  18.058  0.00  0.00    +0.000 C 
BRANCH  14  15
ATOM     15  C   UNL     1       2.470   4.576  19.036  0.00  0.00    +0.000 A 
ATOM     16  C   UNL     1       2.696   4.694  20.406  0.00  0.00    +0.000 A 
ATOM     17  C   UNL     1       1.971   3.893  21.290  0.00  0.00    +0.000 A 
ATOM     18  C   UNL     1       1.030   2.983  20.804  0.00  0.00    +0.000 A 
ATOM     19  C   UNL     1       0.802   2.873  19.432  0.00  0.00    +0.000 A 
ATOM     20  C   UNL     1       1.524   3.668  18.549  0.00  0.00    +0.000 A 
ENDBRANCH  14  15
ENDBRANCH   1  13
TORSDOF 8
ENDMDL
MODEL 5
REMARK VINA RESULT:      -6.7      0.363      1.112
REMARK  Name = 
REMARK  10 active torsions:
REMARK  status: ('A' for Active; 'I' for Inactive)
REMARK    1  A    between atoms: C_1  and  C_2
REMARK    2  A    between atoms: C_2  and  O_3
REMARK    3  A    between atoms: O_3  and  C_4
REMARK    4  A    between atoms: C_4  and  C_6
REMARK    5  A    between atoms: C_6  and  C_7
REMARK    6  A    between atoms: C_9  and  N_10
REMARK    7  A    between atoms: N_10  and  C_11
REMARK    8  A    between atoms: N_10  and  N_13
REMARK    9  A    between atoms: C_11  and  C_12
REMARK   10  A    between atoms: C_14  and  C_15
REMARK                            x       y       z     vdW  Elec       q    Type
REMARK                         _______ _______ _______ _____ _____    ______ ____
ROOT
ATOM      1  N   UNL     1       6.679   4.775  18.291  0.00  0.00    +0.000 N 
ENDROOT
BRANCH   1   3
ATOM      2  C   UNL     1       6.507   5.127  15.816  0.00  0.00    +0.000 C 
ATOM      3  C   UNL     1       6.929   4.496  16.935  0.00  0.00    +0.000 C 
BRANCH   2   4
ATOM      4  C   UNL     1       7.042   4.737  14.508  0.00  0.00    +0.000 C 
ATOM      5  O   UNL     1       7.859   5.389  13.877  0.00  0.00    +0.000 OA
BRANCH   4   6
ATOM      6  O   UNL     1       6.411   3.619  14.070  0.00  0.00    +0.000 OA
BRANCH   6   8
ATOM      7  C   UNL     1       5.947   2.716  11.914  0.00  0.00    +0.000 C 
ATOM      8  C   UNL     1       5.594   3.807  12.909  0.00  0.00    +0.000 C 
ENDBRANCH   6   8
ENDBRANCH   4   6
ENDBRANCH   2   4
BRANCH   2   9
ATOM      9  C   UNL     1       5.532   6.275  16.010  0.00  0.00    +0.000 C 
ATOM     10  N   UNL     1       4.723   7.229  16.172  0.00  0.00    +0.000 NA
ENDBRANCH   2   9
ENDBRANCH   1   3
BRANCH   1  11
ATOM     11  C   UNL     1       7.614   5.530  19.167  0.00  0.00    +0.000 C 
ATOM     12  C   UNL     1       8.074   6.864  18.581  0.00  0.00    +0.000 C 
ENDBRANCH   1  11
BRANCH   1  13
ATOM     13  N   UNL     1       5.634   4.152  18.954  0.00  0.00    +0.000 NA
ATOM     14  C   UNL     1       4.440   4.456  18.542  0.00  0.00    +0.000 C 
BRANCH  14  15
ATOM     15  C   UNL     1       3.200   3.929  19.130  0.00  0.00    +0.000 A 
ATOM     16  C   UNL     1       2.920   4.061  20.489  0.00  0.00    +0.000 A 
ATOM     17  C   UNL     1       1.727   3.542  20.994  0.00  0.00    +0.000 A 
ATOM     18  C   UNL     1       0.824   2.900  20.145  0.00  0.00    +0.000 A 
ATOM     19  C   UNL     1       1.105   2.776  18.785  0.00  0.00    +0.000 A 
ATOM     20  C   UNL     1       2.294   3.289  18.278  0.00  0.00    +0.000 A 
ENDBRANCH  14  15
ENDBRANCH   1  13
TORSDOF 8
ENDMDL
MODEL 6
REMARK VINA RESULT:      -6.7      2.676      6.869
REMARK  Name = 
REMARK  10 active torsions:
REMARK  status: ('A' for Active; 'I' for Inactive)
REMARK    1  A    between atoms: C_1  and  C_2
REMARK    2  A    between atoms: C_2  and  O_3
REMARK    3  A    between atoms: O_3  and  C_4
REMARK    4  A    between atoms: C_4  and  C_6
REMARK    5  A    between atoms: C_6  and  C_7
REMARK    6  A    between atoms: C_9  and  N_10
REMARK    7  A    between atoms: N_10  and  C_11
REMARK    8  A    between atoms: N_10  and  N_13
REMARK    9  A    between atoms: C_11  and  C_12
REMARK   10  A    between atoms: C_14  and  C_15
REMARK                            x       y       z     vdW  Elec       q    Type
REMARK                         _______ _______ _______ _____ _____    ______ ____
ROOT
ATOM      1  N   UNL     1       5.545   4.613  18.057  0.00  0.00    +0.000 N 
ENDROOT
BRANCH   1   3
ATOM      2  C   UNL     1       3.533   3.345  18.847  0.00  0.00    +0.000 C 
ATOM      3  C   UNL     1       4.181   4.269  18.103  0.00  0.00    +0.000 C 
BRANCH   2   4
ATOM      4  C   UNL     1       2.069   3.288  18.833  0.00  0.00    +0.000 C 
ATOM      5  O   UNL     1       1.415   2.538  18.126  0.00  0.00    +0.000 OA
BRANCH   4   6
ATOM      6  O   UNL     1       1.565   4.262  19.633  0.00  0.00    +0.000 OA
BRANCH   6   8
ATOM      7  C   UNL     1       1.273   2.823  21.509  0.00  0.00    +0.000 C 
ATOM      8  C   UNL     1       1.886   4.123  21.021  0.00  0.00    +0.000 C 
ENDBRANCH   6   8
ENDBRANCH   4   6
ENDBRANCH   2   4
BRANCH   2   9
ATOM      9  C   UNL     1       4.394   2.451  19.723  0.00  0.00    +0.000 C 
ATOM     10  N   UNL     1       5.109   1.710  20.451  0.00  0.00    +0.000 NA
ENDBRANCH   2   9
ENDBRANCH   1   3
BRANCH   1  11
ATOM     11  C   UNL     1       6.245   5.370  19.128  0.00  0.00    +0.000 C 
ATOM     12  C   UNL     1       7.616   5.905  18.716  0.00  0.00    +0.000 C 
ENDBRANCH   1  11
BRANCH   1  13
ATOM     13  N   UNL     1       6.267   4.459  16.884  0.00  0.00    +0.000 NA
ATOM     14  C   UNL     1       5.603   4.641  15.782  0.00  0.00    +0.000 C 
BRANCH  14  15
ATOM     15  C   UNL     1       6.174   4.495  14.435  0.00  0.00    +0.000 A 
ATOM     16  C   UNL     1       7.306   5.206  14.038  0.00  0.00    +0.000 A 
ATOM     17  C   UNL     1       7.806   5.028  12.747  0.00  0.00    +0.000 A 
ATOM     18  C   UNL     1       7.180   4.144  11.866  0.00  0.00    +0.000 A 
ATOM     19  C   UNL     1       6.052   3.430  12.270  0.00  0.00    +0.000 A 
ATOM     20  C   UNL     1       5.549   3.607  13.554  0.00  0.00    +0.000 A 
ENDBRANCH  14  15
ENDBRANCH   1  13
TORSDOF 8
ENDMDL
MODEL 7
REMARK VINA RESULT:      -6.7      1.901      2.483
REMARK  Name = 
REMARK  10 active torsions:
REMARK  status: ('A' for Active; 'I' for Inactive)
REMARK    1  A    between atoms: C_1  and  C_2
REMARK    2  A    between atoms: C_2  and  O_3
REMARK    3  A    between atoms: O_3  and  C_4
REMARK    4  A    between atoms: C_4  and  C_6
REMARK    5  A    between atoms: C_6  and  C_7
REMARK    6  A    between atoms: C_9  and  N_10
REMARK    7  A    between atoms: N_10  and  C_11
REMARK    8  A    between atoms: N_10  and  N_13
REMARK    9  A    between atoms: C_11  and  C_12
REMARK   10  A    between atoms: C_14  and  C_15
REMARK                            x       y       z     vdW  Elec       q    Type
REMARK                         _______ _______ _______ _____ _____    ______ ____
ROOT
ATOM      1  N   UNL     1       5.852   4.379  16.074  0.00  0.00    +0.000 N 
ENDROOT
BRANCH   1   3
ATOM      2  C   UNL     1       6.220   4.064  13.616  0.00  0.00    +0.000 C 
ATOM      3  C   UNL     1       5.556   3.905  14.783  0.00  0.00    +0.000 C 
BRANCH   2   4
ATOM      4  C   UNL     1       5.792   3.328  12.423  0.00  0.00    +0.000 C 
ATOM      5  O   UNL     1       6.478   2.503  11.840  0.00  0.00    +0.000 OA
BRANCH   4   6
ATOM      6  O   UNL     1       4.582   3.784  12.013  0.00  0.00    +0.000 OA
BRANCH   6   8
ATOM      7  C   UNL     1       3.199   3.839  10.073  0.00  0.00    +0.000 C 
ATOM      8  C   UNL     1       3.912   2.942  11.068  0.00  0.00    +0.000 C 
ENDBRANCH   6   8
ENDBRANCH   4   6
ENDBRANCH   2   4
BRANCH   2   9
ATOM      9  C   UNL     1       7.441   4.968  13.645  0.00  0.00    +0.000 C 
ATOM     10  N   UNL     1       8.455   5.717  13.670  0.00  0.00    +0.000 NA
ENDBRANCH   2   9
ENDBRANCH   1   3
BRANCH   1  11
ATOM     11  C   UNL     1       7.221   4.408  16.653  0.00  0.00    +0.000 C 
ATOM     12  C   UNL     1       7.392   5.405  17.798  0.00  0.00    +0.000 C 
ENDBRANCH   1  11
BRANCH   1  13
ATOM     13  N   UNL     1       4.833   4.634  16.977  0.00  0.00    +0.000 NA
ATOM     14  C   UNL     1       4.178   3.595  17.402  0.00  0.00    +0.000 C 
BRANCH  14  15
ATOM     15  C   UNL     1       3.044   3.654  18.336  0.00  0.00    +0.000 A 
ATOM     16  C   UNL     1       1.941   2.812  18.203  0.00  0.00    +0.000 A 
ATOM     17  C   UNL     1       0.893   2.910  19.119  0.00  0.00    +0.000 A 
ATOM     18  C   UNL     1       0.951   3.841  20.158  0.00  0.00    +0.000 A 
ATOM     19  C   UNL     1       2.060   4.677  20.291  0.00  0.00    +0.000 A 
ATOM     20  C   UNL     1       3.105   4.584  19.379  0.00  0.00    +0.000 A 
ENDBRANCH  14  15
ENDBRANCH   1  13
TORSDOF 8
ENDMDL
MODEL 8
REMARK VINA RESULT:      -6.6      3.229      4.887
REMARK  Name = 
REMARK  10 active torsions:
REMARK  status: ('A' for Active; 'I' for Inactive)
REMARK    1  A    between atoms: C_1  and  C_2
REMARK    2  A    between atoms: C_2  and  O_3
REMARK    3  A    between atoms: O_3  and  C_4
REMARK    4  A    between atoms: C_4  and  C_6
REMARK    5  A    between atoms: C_6  and  C_7
REMARK    6  A    between atoms: C_9  and  N_10
REMARK    7  A    between atoms: N_10  and  C_11
REMARK    8  A    between atoms: N_10  and  N_13
REMARK    9  A    between atoms: C_11  and  C_12
REMARK   10  A    between atoms: C_14  and  C_15
REMARK                            x       y       z     vdW  Elec       q    Type
REMARK                         _______ _______ _______ _____ _____    ______ ____
ROOT
ATOM      1  N   UNL     1       3.617   4.242  17.901  0.00  0.00    +0.000 N 
ENDROOT
BRANCH   1   3
ATOM      2  C   UNL     1       5.951   4.620  17.068  0.00  0.00    +0.000 C 
ATOM      3  C   UNL     1       5.005   4.443  18.018  0.00  0.00    +0.000 C 
BRANCH   2   4
ATOM      4  C   UNL     1       7.319   4.978  17.452  0.00  0.00    +0.000 C 
ATOM      5  O   UNL     1       7.993   4.356  18.258  0.00  0.00    +0.000 OA
BRANCH   4   6
ATOM      6  O   UNL     1       7.667   6.151  16.867  0.00  0.00    +0.000 OA
BRANCH   6   8
ATOM      7  C   UNL     1       8.111   8.236  17.931  0.00  0.00    +0.000 C 
ATOM      8  C   UNL     1       7.026   7.308  17.415  0.00  0.00    +0.000 C 
ENDBRANCH   6   8
ENDBRANCH   4   6
ENDBRANCH   2   4
BRANCH   2   9
ATOM      9  C   UNL     1       5.494   4.501  15.624  0.00  0.00    +0.000 C 
ATOM     10  N   UNL     1       5.114   4.403  14.426  0.00  0.00    +0.000 NA
ENDBRANCH   2   9
ENDBRANCH   1   3
BRANCH   1  11
ATOM     11  C   UNL     1       2.999   2.957  17.483  0.00  0.00    +0.000 C 
ATOM     12  C   UNL     1       3.515   1.740  18.249  0.00  0.00    +0.000 C 
ENDBRANCH   1  11
BRANCH   1  13
ATOM     13  N   UNL     1       2.748   5.320  17.948  0.00  0.00    +0.000 NA
ATOM     14  C   UNL     1       3.090   6.290  18.741  0.00  0.00    +0.000 C 
BRANCH  14  15
ATOM     15  C   UNL     1       2.292   7.506  18.957  0.00  0.00    +0.000 A 
ATOM     16  C   UNL     1       1.790   7.839  20.214  0.00  0.00    +0.000 A 
ATOM     17  C   UNL     1       1.039   9.006  20.362  0.00  0.00    +0.000 A 
ATOM     18  C   UNL     1       0.796   9.831  19.262  0.00  0.00    +0.000 A 
ATOM     19  C   UNL     1       1.306   9.497  18.008  0.00  0.00    +0.000 A 
ATOM     20  C   UNL     1       2.053   8.334  17.856  0.00  0.00    +0.000 A 
ENDBRANCH  14  15
ENDBRANCH   1  13
TORSDOF 8
ENDMDL
MODEL 9
REMARK VINA RESULT:      -6.6      1.266      2.437
REMARK  Name = 
REMARK  10 active torsions:
REMARK  status: ('A' for Active; 'I' for Inactive)
REMARK    1  A    between atoms: C_1  and  C_2
REMARK    2  A    between atoms: C_2  and  O_3
REMARK    3  A    between atoms: O_3  and  C_4
REMARK    4  A    between atoms: C_4  and  C_6
REMARK    5  A    between atoms: C_6  and  C_7
REMARK    6  A    between atoms: C_9  and  N_10
REMARK    7  A    between atoms: N_10  and  C_11
REMARK    8  A    between atoms: N_10  and  N_13
REMARK    9  A    between atoms: C_11  and  C_12
REMARK   10  A    between atoms: C_14  and  C_15
REMARK                            x       y       z     vdW  Elec       q    Type
REMARK                         _______ _______ _______ _____ _____    ______ ____
ROOT
ATOM      1  N   UNL     1       4.340   6.131  16.829  0.00  0.00    +0.000 N 
ENDROOT
BRANCH   1   3
ATOM      2  C   UNL     1       6.380   5.184  15.724  0.00  0.00    +0.000 C 
ATOM      3  C   UNL     1       5.184   5.812  15.749  0.00  0.00    +0.000 C 
BRANCH   2   4
ATOM      4  C   UNL     1       6.992   4.819  14.444  0.00  0.00    +0.000 C 
ATOM      5  O   UNL     1       7.875   5.459  13.895  0.00  0.00    +0.000 OA
BRANCH   4   6
ATOM      6  O   UNL     1       6.353   3.742  13.921  0.00  0.00    +0.000 OA
BRANCH   6   8
ATOM      7  C   UNL     1       5.044   3.283  11.983  0.00  0.00    +0.000 C 
ATOM      8  C   UNL     1       6.430   3.633  12.495  0.00  0.00    +0.000 C 
ENDBRANCH   6   8
ENDBRANCH   4   6
ENDBRANCH   2   4
BRANCH   2   9
ATOM      9  C   UNL     1       6.988   4.827  17.071  0.00  0.00    +0.000 C 
ATOM     10  N   UNL     1       7.493   4.532  18.188  0.00  0.00    +0.000 NA
ENDBRANCH   2   9
ENDBRANCH   1   3
BRANCH   1  11
ATOM     11  C   UNL     1       4.374   7.431  17.551  0.00  0.00    +0.000 C 
ATOM     12  C   UNL     1       3.023   8.141  17.616  0.00  0.00    +0.000 C 
ENDBRANCH   1  11
BRANCH   1  13
ATOM     13  N   UNL     1       3.577   5.147  17.436  0.00  0.00    +0.000 NA
ATOM     14  C   UNL     1       3.503   5.205  18.732  0.00  0.00    +0.000 C 
BRANCH  14  15
ATOM     15  C   UNL     1       2.772   4.239  19.566  0.00  0.00    +0.000 A 
ATOM     16  C   UNL     1       2.588   4.442  20.932  0.00  0.00    +0.000 A 
ATOM     17  C   UNL     1       1.885   3.492  21.675  0.00  0.00    +0.000 A 
ATOM     18  C   UNL     1       1.370   2.353  21.053  0.00  0.00    +0.000 A 
ATOM     19  C   UNL     1       1.550   2.158  19.684  0.00  0.00    +0.000 A 
ATOM     20  C   UNL     1       2.252   3.101  18.941  0.00  0.00    +0.000 A 
ENDBRANCH  14  15
ENDBRANCH   1  13
TORSDOF 8
ENDMDL
