MODEL 1
REMARK VINA RESULT:      -8.3      0.000      0.000
REMARK  Name = 
REMARK  9 active torsions:
REMARK  status: ('A' for Active; 'I' for Inactive)
REMARK    1  A    between atoms: C_1  and  C_2
REMARK    2  A    between atoms: C_2  and  S_3
REMARK    3  A    between atoms: S_3  and  N_6
REMARK    4  A    between atoms: N_6  and  C_7
REMARK    5  A    between atoms: C_10  and  C_11
REMARK    6  A    between atoms: C_11  and  C_12
REMARK    7  A    between atoms: C_12  and  N_13
REMARK    8  A    between atoms: C_14  and  C_16
REMARK    9  A    between atoms: C_22  and  C_23
REMARK                            x       y       z     vdW  Elec       q    Type
REMARK                         _______ _______ _______ _____ _____    ______ ____
ROOT
ATOM      1  N   UNL     1       2.345   7.782  18.358  0.00  0.00    +0.000 N 
ATOM      2  C   UNL     1       2.268   7.140  19.573  0.00  0.00    +0.000 C 
ATOM      3  O   UNL     1       1.920   7.698  20.611  0.00  0.00    +0.000 OA
ATOM      4  H   UNL     1       2.624   7.246  17.537  0.00  0.00    +0.000 HD
ENDROOT
BRANCH   2   5
ATOM      5  C   UNL     1       2.608   5.703  19.593  0.00  0.00    +0.000 A 
ATOM      6  C   UNL     1       2.054   4.859  20.569  0.00  0.00    +0.000 A 
ATOM      7  C   UNL     1       2.364   3.505  20.546  0.00  0.00    +0.000 A 
ATOM      8  N   UNL     1       3.163   2.892  19.640  0.00  0.00    +0.000 NA
ATOM      9  C   UNL     1       3.668   3.753  18.742  0.00  0.00    +0.000 A 
ATOM     10  N   UNL     1       4.496   3.447  17.706  0.00  0.00    +0.000 N 
ATOM     11  C   UNL     1       4.826   4.615  17.066  0.00  0.00    +0.000 A 
ATOM     12  N   UNL     1       4.200   5.646  17.602  0.00  0.00    +0.000 NA
ATOM     13  C   UNL     1       3.469   5.124  18.653  0.00  0.00    +0.000 A 
ATOM     14  H   UNL     1       4.818   2.520  17.476  0.00  0.00    +0.000 HD
BRANCH  11  15
ATOM     15  C   UNL     1       5.763   4.695  15.921  0.00  0.00    +0.000 A 
ATOM     16  C   UNL     1       5.619   4.141  14.629  0.00  0.00    +0.000 A 
ATOM     17  C   UNL     1       6.746   4.509  13.933  0.00  0.00    +0.000 A 
ATOM     18  O   UNL     1       7.581   5.232  14.726  0.00  0.00    +0.000 OA
ATOM     19  C   UNL     1       6.977   5.338  15.940  0.00  0.00    +0.000 A 
ENDBRANCH  11  15
ENDBRANCH   2   5
BRANCH   1  20
ATOM     20  C   UNL     1       1.998   9.179  18.202  0.00  0.00    +0.000 C 
BRANCH  20  21
ATOM     21  C   UNL     1       0.506   9.397  17.915  0.00  0.00    +0.000 C 
BRANCH  21  25
ATOM     22  C   UNL     1      -1.296  12.250  20.613  0.00  0.00    +0.000 A 
ATOM     23  C   UNL     1      -2.037  11.713  19.565  0.00  0.00    +0.000 A 
ATOM     24  C   UNL     1      -1.458  10.782  18.703  0.00  0.00    +0.000 A 
ATOM     25  C   UNL     1      -0.123  10.382  18.874  0.00  0.00    +0.000 A 
ATOM     26  C   UNL     1       0.602  10.901  19.957  0.00  0.00    +0.000 A 
ATOM     27  C   UNL     1       0.019  11.833  20.823  0.00  0.00    +0.000 A 
BRANCH  22  28
ATOM     28  N   UNL     1      -1.913  13.183  21.496  0.00  0.00    +0.000 N 
ATOM     29  H   UNL     1      -1.287  13.894  21.880  0.00  0.00    +0.000 HD
BRANCH  28  30
ATOM     30  S   UNL     1      -2.864  12.556  22.749  0.00  0.00    +0.000 S 
ATOM     31  O   UNL     1      -2.100  11.447  23.280  0.00  0.00    +0.000 OA
ATOM     32  O   UNL     1      -4.226  12.376  22.294  0.00  0.00    +0.000 OA
BRANCH  30  34
ATOM     33  C   UNL     1      -1.396  14.449  24.065  0.00  0.00    +0.000 C 
ATOM     34  C   UNL     1      -2.800  13.891  23.939  0.00  0.00    +0.000 C 
ENDBRANCH  30  34
ENDBRANCH  28  30
ENDBRANCH  22  28
ENDBRANCH  21  25
ENDBRANCH  20  21
ENDBRANCH   1  20
TORSDOF 8
ENDMDL
MODEL 2
REMARK VINA RESULT:      -8.3      2.974      5.197
REMARK  Name = 
REMARK  9 active torsions:
REMARK  status: ('A' for Active; 'I' for Inactive)
REMARK    1  A    between atoms: C_1  and  C_2
REMARK    2  A    between atoms: C_2  and  S_3
REMARK    3  A    between atoms: S_3  and  N_6
REMARK    4  A    between atoms: N_6  and  C_7
REMARK    5  A    between atoms: C_10  and  C_11
REMARK    6  A    between atoms: C_11  and  C_12
REMARK    7  A    between atoms: C_12  and  N_13
REMARK    8  A    between atoms: C_14  and  C_16
REMARK    9  A    between atoms: C_22  and  C_23
REMARK                            x       y       z     vdW  Elec       q    Type
REMARK                         _______ _______ _______ _____ _____    ______ ____
ROOT
ATOM      1  N   UNL     1       3.710   3.135  17.902  0.00  0.00    +0.000 N 
ATOM      2  C   UNL     1       4.717   3.363  18.813  0.00  0.00    +0.000 C 
ATOM      3  O   UNL     1       4.799   2.776  19.890  0.00  0.00    +0.000 OA
ATOM      4  H   UNL     1       3.721   3.649  17.022  0.00  0.00    +0.000 HD
ENDROOT
BRANCH   2   5
ATOM      5  C   UNL     1       5.746   4.354  18.439  0.00  0.00    +0.000 A 
ATOM      6  C   UNL     1       6.321   5.181  19.418  0.00  0.00    +0.000 A 
ATOM      7  C   UNL     1       7.310   6.083  19.046  0.00  0.00    +0.000 A 
ATOM      8  N   UNL     1       7.802   6.243  17.794  0.00  0.00    +0.000 NA
ATOM      9  C   UNL     1       7.206   5.433  16.904  0.00  0.00    +0.000 A 
ATOM     10  N   UNL     1       7.482   5.351  15.574  0.00  0.00    +0.000 N 
ATOM     11  C   UNL     1       6.614   4.448  15.015  0.00  0.00    +0.000 A 
ATOM     12  N   UNL     1       5.838   3.901  15.932  0.00  0.00    +0.000 NA
ATOM     13  C   UNL     1       6.196   4.505  17.122  0.00  0.00    +0.000 A 
ATOM     14  H   UNL     1       8.191   5.884  15.096  0.00  0.00    +0.000 HD
BRANCH  11  15
ATOM     15  C   UNL     1       6.565   4.135  13.568  0.00  0.00    +0.000 A 
ATOM     16  C   UNL     1       5.608   3.367  12.867  0.00  0.00    +0.000 A 
ATOM     17  C   UNL     1       5.998   3.389  11.549  0.00  0.00    +0.000 A 
ATOM     18  O   UNL     1       7.145   4.102  11.402  0.00  0.00    +0.000 OA
ATOM     19  C   UNL     1       7.489   4.552  12.639  0.00  0.00    +0.000 A 
ENDBRANCH  11  15
ENDBRANCH   2   5
BRANCH   1  20
ATOM     20  C   UNL     1       2.667   2.159  18.136  0.00  0.00    +0.000 C 
BRANCH  20  21
ATOM     21  C   UNL     1       1.345   2.793  18.589  0.00  0.00    +0.000 C 
BRANCH  21  25
ATOM     22  C   UNL     1       1.939   6.823  20.029  0.00  0.00    +0.000 A 
ATOM     23  C   UNL     1       1.980   6.554  18.664  0.00  0.00    +0.000 A 
ATOM     24  C   UNL     1       1.774   5.254  18.201  0.00  0.00    +0.000 A 
ATOM     25  C   UNL     1       1.534   4.204  19.100  0.00  0.00    +0.000 A 
ATOM     26  C   UNL     1       1.458   4.494  20.470  0.00  0.00    +0.000 A 
ATOM     27  C   UNL     1       1.660   5.798  20.934  0.00  0.00    +0.000 A 
BRANCH  22  28
ATOM     28  N   UNL     1       2.129   8.160  20.481  0.00  0.00    +0.000 N 
ATOM     29  H   UNL     1       3.006   8.329  20.979  0.00  0.00    +0.000 HD
BRANCH  28  30
ATOM     30  S   UNL     1       0.862   8.876  21.347  0.00  0.00    +0.000 S 
ATOM     31  O   UNL     1       1.454   9.294  22.600  0.00  0.00    +0.000 OA
ATOM     32  O   UNL     1      -0.303   8.018  21.320  0.00  0.00    +0.000 OA
BRANCH  30  34
ATOM     33  C   UNL     1       0.646  10.042  18.884  0.00  0.00    +0.000 C 
ATOM     34  C   UNL     1       0.552  10.341  20.368  0.00  0.00    +0.000 C 
ENDBRANCH  30  34
ENDBRANCH  28  30
ENDBRANCH  22  28
ENDBRANCH  21  25
ENDBRANCH  20  21
ENDBRANCH   1  20
TORSDOF 8
ENDMDL
MODEL 3
REMARK VINA RESULT:      -8.1      1.406      1.665
REMARK  Name = 
REMARK  9 active torsions:
REMARK  status: ('A' for Active; 'I' for Inactive)
REMARK    1  A    between atoms: C_1  and  C_2
REMARK    2  A    between atoms: C_2  and  S_3
REMARK    3  A    between atoms: S_3  and  N_6
REMARK    4  A    between atoms: N_6  and  C_7
REMARK    5  A    between atoms: C_10  and  C_11
REMARK    6  A    between atoms: C_11  and  C_12
REMARK    7  A    between atoms: C_12  and  N_13
REMARK    8  A    between atoms: C_14  and  C_16
REMARK    9  A    between atoms: C_22  and  C_23
REMARK                            x       y       z     vdW  Elec       q    Type
REMARK                         _______ _______ _______ _____ _____    ______ ____
ROOT
ATOM      1  N   UNL     1       2.364   7.565  18.796  0.00  0.00    +0.000 N 
ATOM      2  C   UNL     1       2.116   6.900  19.975  0.00  0.00    +0.000 C 
ATOM      3  O   UNL     1       1.611   7.435  20.959  0.00  0.00    +0.000 OA
ATOM      4  H   UNL     1       2.768   7.047  18.017  0.00  0.00    +0.000 HD
ENDROOT
BRANCH   2   5
ATOM      5  C   UNL     1       2.467   5.466  20.021  0.00  0.00    +0.000 A 
ATOM      6  C   UNL     1       1.871   4.621  20.971  0.00  0.00    +0.000 A 
ATOM      7  C   UNL     1       2.194   3.270  20.973  0.00  0.00    +0.000 A 
ATOM      8  N   UNL     1       3.046   2.661  20.113  0.00  0.00    +0.000 NA
ATOM      9  C   UNL     1       3.590   3.522  19.238  0.00  0.00    +0.000 A 
ATOM     10  N   UNL     1       4.474   3.218  18.249  0.00  0.00    +0.000 N 
ATOM     11  C   UNL     1       4.827   4.386  17.621  0.00  0.00    +0.000 A 
ATOM     12  N   UNL     1       4.163   5.414  18.118  0.00  0.00    +0.000 NA
ATOM     13  C   UNL     1       3.383   4.891  19.132  0.00  0.00    +0.000 A 
ATOM     14  H   UNL     1       4.816   2.293  18.041  0.00  0.00    +0.000 HD
BRANCH  11  15
ATOM     15  C   UNL     1       5.822   4.469  16.527  0.00  0.00    +0.000 A 
ATOM     16  C   UNL     1       5.604   4.381  15.134  0.00  0.00    +0.000 A 
ATOM     17  C   UNL     1       6.839   4.534  14.548  0.00  0.00    +0.000 A 
ATOM     18  O   UNL     1       7.800   4.686  15.496  0.00  0.00    +0.000 OA
ATOM     19  C   UNL     1       7.174   4.642  16.703  0.00  0.00    +0.000 A 
ENDBRANCH  11  15
ENDBRANCH   2   5
BRANCH   1  20
ATOM     20  C   UNL     1       2.026   8.961  18.614  0.00  0.00    +0.000 C 
BRANCH  20  21
ATOM     21  C   UNL     1       0.790   9.167  17.727  0.00  0.00    +0.000 C 
BRANCH  21  25
ATOM     22  C   UNL     1      -1.851  12.243  19.221  0.00  0.00    +0.000 A 
ATOM     23  C   UNL     1      -2.365  11.166  18.506  0.00  0.00    +0.000 A 
ATOM     24  C   UNL     1      -1.512  10.167  18.036  0.00  0.00    +0.000 A 
ATOM     25  C   UNL     1      -0.130  10.238  18.269  0.00  0.00    +0.000 A 
ATOM     26  C   UNL     1       0.372  11.309  19.024  0.00  0.00    +0.000 A 
ATOM     27  C   UNL     1      -0.485  12.309  19.498  0.00  0.00    +0.000 A 
BRANCH  22  28
ATOM     28  N   UNL     1      -2.741  13.241  19.712  0.00  0.00    +0.000 N 
ATOM     29  H   UNL     1      -2.490  14.202  19.470  0.00  0.00    +0.000 HD
BRANCH  28  30
ATOM     30  S   UNL     1      -3.150  13.179  21.354  0.00  0.00    +0.000 S 
ATOM     31  O   UNL     1      -3.023  14.543  21.823  0.00  0.00    +0.000 OA
ATOM     32  O   UNL     1      -2.441  12.096  22.001  0.00  0.00    +0.000 OA
BRANCH  30  34
ATOM     33  C   UNL     1      -5.463  13.111  19.899  0.00  0.00    +0.000 C 
ATOM     34  C   UNL     1      -4.893  12.786  21.266  0.00  0.00    +0.000 C 
ENDBRANCH  30  34
ENDBRANCH  28  30
ENDBRANCH  22  28
ENDBRANCH  21  25
ENDBRANCH  20  21
ENDBRANCH   1  20
TORSDOF 8
ENDMDL
MODEL 4
REMARK VINA RESULT:      -8.0      1.493      1.940
REMARK  Name = 
REMARK  9 active torsions:
REMARK  status: ('A' for Active; 'I' for Inactive)
REMARK    1  A    between atoms: C_1  and  C_2
REMARK    2  A    between atoms: C_2  and  S_3
REMARK    3  A    between atoms: S_3  and  N_6
REMARK    4  A    between atoms: N_6  and  C_7
REMARK    5  A    between atoms: C_10  and  C_11
REMARK    6  A    between atoms: C_11  and  C_12
REMARK    7  A    between atoms: C_12  and  N_13
REMARK    8  A    between atoms: C_14  and  C_16
REMARK    9  A    between atoms: C_22  and  C_23
REMARK                            x       y       z     vdW  Elec       q    Type
REMARK                         _______ _______ _______ _____ _____    ______ ____
ROOT
ATOM      1  N   UNL     1       2.387   6.727  18.967  0.00  0.00    +0.000 N 
ATOM      2  C   UNL     1       2.126   5.711  19.859  0.00  0.00    +0.000 C 
ATOM      3  O   UNL     1       1.645   5.898  20.974  0.00  0.00    +0.000 OA
ATOM      4  H   UNL     1       2.770   6.489  18.053  0.00  0.00    +0.000 HD
ENDROOT
BRANCH   2   5
ATOM      5  C   UNL     1       2.434   4.336  19.416  0.00  0.00    +0.000 A 
ATOM      6  C   UNL     1       1.784   3.240  20.007  0.00  0.00    +0.000 A 
ATOM      7  C   UNL     1       2.067   1.960  19.549  0.00  0.00    +0.000 A 
ATOM      8  N   UNL     1       2.925   1.650  18.548  0.00  0.00    +0.000 NA
ATOM      9  C   UNL     1       3.520   2.737  18.032  0.00  0.00    +0.000 A 
ATOM     10  N   UNL     1       4.424   2.758  17.014  0.00  0.00    +0.000 N 
ATOM     11  C   UNL     1       4.829   4.056  16.832  0.00  0.00    +0.000 A 
ATOM     12  N   UNL     1       4.183   4.875  17.640  0.00  0.00    +0.000 NA
ATOM     13  C   UNL     1       3.357   4.067  18.399  0.00  0.00    +0.000 A 
ATOM     14  H   UNL     1       4.744   1.948  16.507  0.00  0.00    +0.000 HD
BRANCH  11  15
ATOM     15  C   UNL     1       5.858   4.471  15.851  0.00  0.00    +0.000 A 
ATOM     16  C   UNL     1       5.969   4.110  14.489  0.00  0.00    +0.000 A 
ATOM     17  C   UNL     1       7.079   4.768  14.014  0.00  0.00    +0.000 A 
ATOM     18  O   UNL     1       7.668   5.488  15.004  0.00  0.00    +0.000 OA
ATOM     19  C   UNL     1       6.920   5.299  16.125  0.00  0.00    +0.000 A 
ENDBRANCH  11  15
ENDBRANCH   2   5
BRANCH   1  20
ATOM     20  C   UNL     1       2.092   8.112  19.270  0.00  0.00    +0.000 C 
BRANCH  20  21
ATOM     21  C   UNL     1       1.863   8.963  18.014  0.00  0.00    +0.000 C 
BRANCH  21  25
ATOM     22  C   UNL     1      -0.577  12.425  18.868  0.00  0.00    +0.000 A 
ATOM     23  C   UNL     1       0.810  12.538  18.827  0.00  0.00    +0.000 A 
ATOM     24  C   UNL     1       1.594  11.422  18.538  0.00  0.00    +0.000 A 
ATOM     25  C   UNL     1       1.001  10.174  18.294  0.00  0.00    +0.000 A 
ATOM     26  C   UNL     1      -0.399  10.080  18.300  0.00  0.00    +0.000 A 
ATOM     27  C   UNL     1      -1.186  11.201  18.586  0.00  0.00    +0.000 A 
BRANCH  22  28
ATOM     28  N   UNL     1      -1.362  13.581  19.142  0.00  0.00    +0.000 N 
ATOM     29  H   UNL     1      -0.935  14.470  18.873  0.00  0.00    +0.000 HD
BRANCH  28  30
ATOM     30  S   UNL     1      -2.004  13.733  20.703  0.00  0.00    +0.000 S 
ATOM     31  O   UNL     1      -3.065  12.751  20.769  0.00  0.00    +0.000 OA
ATOM     32  O   UNL     1      -2.255  15.126  21.001  0.00  0.00    +0.000 OA
BRANCH  30  34
ATOM     33  C   UNL     1      -1.054  11.954  22.548  0.00  0.00    +0.000 C 
ATOM     34  C   UNL     1      -0.641  13.142  21.701  0.00  0.00    +0.000 C 
ENDBRANCH  30  34
ENDBRANCH  28  30
ENDBRANCH  22  28
ENDBRANCH  21  25
ENDBRANCH  20  21
ENDBRANCH   1  20
TORSDOF 8
ENDMDL
MODEL 5
REMARK VINA RESULT:      -8.0      1.353      1.490
REMARK  Name = 
REMARK  9 active torsions:
REMARK  status: ('A' for Active; 'I' for Inactive)
REMARK    1  A    between atoms: C_1  and  C_2
REMARK    2  A    between atoms: C_2  and  S_3
REMARK    3  A    between atoms: S_3  and  N_6
REMARK    4  A    between atoms: N_6  and  C_7
REMARK    5  A    between atoms: C_10  and  C_11
REMARK    6  A    between atoms: C_11  and  C_12
REMARK    7  A    between atoms: C_12  and  N_13
REMARK    8  A    between atoms: C_14  and  C_16
REMARK    9  A    between atoms: C_22  and  C_23
REMARK                            x       y       z     vdW  Elec       q    Type
REMARK                         _______ _______ _______ _____ _____    ______ ____
ROOT
ATOM      1  N   UNL     1       2.342   7.277  18.790  0.00  0.00    +0.000 N 
ATOM      2  C   UNL     1       2.049   6.446  19.848  0.00  0.00    +0.000 C 
ATOM      3  O   UNL     1       1.578   6.846  20.910  0.00  0.00    +0.000 OA
ATOM      4  H   UNL     1       2.714   6.867  17.934  0.00  0.00    +0.000 HD
ENDROOT
BRANCH   2   5
ATOM      5  C   UNL     1       2.305   5.004  19.657  0.00  0.00    +0.000 A 
ATOM      6  C   UNL     1       1.622   4.055  20.435  0.00  0.00    +0.000 A 
ATOM      7  C   UNL     1       1.857   2.704  20.213  0.00  0.00    +0.000 A 
ATOM      8  N   UNL     1       2.698   2.190  19.284  0.00  0.00    +0.000 NA
ATOM      9  C   UNL     1       3.327   3.146  18.581  0.00  0.00    +0.000 A 
ATOM     10  N   UNL     1       4.224   2.953  17.577  0.00  0.00    +0.000 N 
ATOM     11  C   UNL     1       4.674   4.182  17.166  0.00  0.00    +0.000 A 
ATOM     12  N   UNL     1       4.061   5.156  17.814  0.00  0.00    +0.000 NA
ATOM     13  C   UNL     1       3.213   4.525  18.705  0.00  0.00    +0.000 A 
ATOM     14  H   UNL     1       4.513   2.054  17.222  0.00  0.00    +0.000 HD
BRANCH  11  15
ATOM     15  C   UNL     1       5.710   4.379  16.126  0.00  0.00    +0.000 A 
ATOM     16  C   UNL     1       5.572   4.298  14.722  0.00  0.00    +0.000 A 
ATOM     17  C   UNL     1       6.815   4.577  14.204  0.00  0.00    +0.000 A 
ATOM     18  O   UNL     1       7.709   4.799  15.203  0.00  0.00    +0.000 OA
ATOM     19  C   UNL     1       7.030   4.673  16.375  0.00  0.00    +0.000 A 
ENDBRANCH  11  15
ENDBRANCH   2   5
BRANCH   1  20
ATOM     20  C   UNL     1       2.097   8.703  18.841  0.00  0.00    +0.000 C 
BRANCH  20  21
ATOM     21  C   UNL     1       0.986   9.153  17.883  0.00  0.00    +0.000 C 
BRANCH  21  25
ATOM     22  C   UNL     1      -1.242  12.543  19.370  0.00  0.00    +0.000 A 
ATOM     23  C   UNL     1      -1.904  11.487  18.750  0.00  0.00    +0.000 A 
ATOM     24  C   UNL     1      -1.184  10.388  18.283  0.00  0.00    +0.000 A 
ATOM     25  C   UNL     1       0.211  10.335  18.423  0.00  0.00    +0.000 A 
ATOM     26  C   UNL     1       0.863  11.387  19.083  0.00  0.00    +0.000 A 
ATOM     27  C   UNL     1       0.140  12.488  19.554  0.00  0.00    +0.000 A 
BRANCH  22  28
ATOM     28  N   UNL     1      -1.997  13.647  19.861  0.00  0.00    +0.000 N 
ATOM     29  H   UNL     1      -1.838  14.531  19.374  0.00  0.00    +0.000 HD
BRANCH  28  30
ATOM     30  S   UNL     1      -1.969  13.928  21.531  0.00  0.00    +0.000 S 
ATOM     31  O   UNL     1      -3.053  14.857  21.772  0.00  0.00    +0.000 OA
ATOM     32  O   UNL     1      -0.620  14.225  21.960  0.00  0.00    +0.000 OA
BRANCH  30  34
ATOM     33  C   UNL     1      -1.323  11.654  22.903  0.00  0.00    +0.000 C 
ATOM     34  C   UNL     1      -2.462  12.329  22.164  0.00  0.00    +0.000 C 
ENDBRANCH  30  34
ENDBRANCH  28  30
ENDBRANCH  22  28
ENDBRANCH  21  25
ENDBRANCH  20  21
ENDBRANCH   1  20
TORSDOF 8
ENDMDL
MODEL 6
REMARK VINA RESULT:      -8.0      1.078      1.480
REMARK  Name = 
REMARK  9 active torsions:
REMARK  status: ('A' for Active; 'I' for Inactive)
REMARK    1  A    between atoms: C_1  and  C_2
REMARK    2  A    between atoms: C_2  and  S_3
REMARK    3  A    between atoms: S_3  and  N_6
REMARK    4  A    between atoms: N_6  and  C_7
REMARK    5  A    between atoms: C_10  and  C_11
REMARK    6  A    between atoms: C_11  and  C_12
REMARK    7  A    between atoms: C_12  and  N_13
REMARK    8  A    between atoms: C_14  and  C_16
REMARK    9  A    between atoms: C_22  and  C_23
REMARK                            x       y       z     vdW  Elec       q    Type
REMARK                         _______ _______ _______ _____ _____    ______ ____
ROOT
ATOM      1  N   UNL     1       2.481   7.633  18.627  0.00  0.00    +0.000 N 
ATOM      2  C   UNL     1       2.213   6.932  19.780  0.00  0.00    +0.000 C 
ATOM      3  O   UNL     1       1.594   7.405  20.730  0.00  0.00    +0.000 OA
ATOM      4  H   UNL     1       2.985   7.164  17.874  0.00  0.00    +0.000 HD
ENDROOT
BRANCH   2   5
ATOM      5  C   UNL     1       2.688   5.535  19.839  0.00  0.00    +0.000 A 
ATOM      6  C   UNL     1       2.240   4.677  20.857  0.00  0.00    +0.000 A 
ATOM      7  C   UNL     1       2.676   3.358  20.871  0.00  0.00    +0.000 A 
ATOM      8  N   UNL     1       3.510   2.792  19.966  0.00  0.00    +0.000 NA
ATOM      9  C   UNL     1       3.911   3.664  19.027  0.00  0.00    +0.000 A 
ATOM     10  N   UNL     1       4.741   3.401  17.981  0.00  0.00    +0.000 N 
ATOM     11  C   UNL     1       4.944   4.571  17.295  0.00  0.00    +0.000 A 
ATOM     12  N   UNL     1       4.235   5.557  17.812  0.00  0.00    +0.000 NA
ATOM     13  C   UNL     1       3.580   5.007  18.898  0.00  0.00    +0.000 A 
ATOM     14  H   UNL     1       5.144   2.501  17.774  0.00  0.00    +0.000 HD
BRANCH  11  15
ATOM     15  C   UNL     1       5.843   4.699  16.125  0.00  0.00    +0.000 A 
ATOM     16  C   UNL     1       5.639   4.233  14.806  0.00  0.00    +0.000 A 
ATOM     17  C   UNL     1       6.753   4.614  14.095  0.00  0.00    +0.000 A 
ATOM     18  O   UNL     1       7.635   5.261  14.901  0.00  0.00    +0.000 OA
ATOM     19  C   UNL     1       7.076   5.307  16.140  0.00  0.00    +0.000 A 
ENDBRANCH  11  15
ENDBRANCH   2   5
BRANCH   1  20
ATOM     20  C   UNL     1       2.032   8.996  18.433  0.00  0.00    +0.000 C 
BRANCH  20  21
ATOM     21  C   UNL     1       0.666   9.082  17.740  0.00  0.00    +0.000 C 
BRANCH  21  25
ATOM     22  C   UNL     1      -1.729  12.309  19.326  0.00  0.00    +0.000 A 
ATOM     23  C   UNL     1      -0.375  12.227  19.633  0.00  0.00    +0.000 A 
ATOM     24  C   UNL     1       0.399  11.192  19.109  0.00  0.00    +0.000 A 
ATOM     25  C   UNL     1      -0.176  10.219  18.276  0.00  0.00    +0.000 A 
ATOM     26  C   UNL     1      -1.533  10.334  17.943  0.00  0.00    +0.000 A 
ATOM     27  C   UNL     1      -2.309  11.375  18.467  0.00  0.00    +0.000 A 
BRANCH  22  28
ATOM     28  N   UNL     1      -2.499  13.386  19.853  0.00  0.00    +0.000 N 
ATOM     29  H   UNL     1      -1.970  14.236  20.060  0.00  0.00    +0.000 HD
BRANCH  28  30
ATOM     30  S   UNL     1      -3.522  13.046  21.159  0.00  0.00    +0.000 S 
ATOM     31  O   UNL     1      -2.704  12.300  22.091  0.00  0.00    +0.000 OA
ATOM     32  O   UNL     1      -4.779  12.515  20.677  0.00  0.00    +0.000 OA
BRANCH  30  34
ATOM     33  C   UNL     1      -5.250  14.934  22.118  0.00  0.00    +0.000 C 
ATOM     34  C   UNL     1      -3.782  14.681  21.836  0.00  0.00    +0.000 C 
ENDBRANCH  30  34
ENDBRANCH  28  30
ENDBRANCH  22  28
ENDBRANCH  21  25
ENDBRANCH  20  21
ENDBRANCH   1  20
TORSDOF 8
ENDMDL
MODEL 7
REMARK VINA RESULT:      -8.0      1.861      2.275
REMARK  Name = 
REMARK  9 active torsions:
REMARK  status: ('A' for Active; 'I' for Inactive)
REMARK    1  A    between atoms: C_1  and  C_2
REMARK    2  A    between atoms: C_2  and  S_3
REMARK    3  A    between atoms: S_3  and  N_6
REMARK    4  A    between atoms: N_6  and  C_7
REMARK    5  A    between atoms: C_10  and  C_11
REMARK    6  A    between atoms: C_11  and  C_12
REMARK    7  A    between atoms: C_12  and  N_13
REMARK    8  A    between atoms: C_14  and  C_16
REMARK    9  A    between atoms: C_22  and  C_23
REMARK                            x       y       z     vdW  Elec       q    Type
REMARK                         _______ _______ _______ _____ _____    ______ ____
ROOT
ATOM      1  N   UNL     1       1.830   7.332  20.872  0.00  0.00    +0.000 N 
ATOM      2  C   UNL     1       2.273   6.788  19.687  0.00  0.00    +0.000 C 
ATOM      3  O   UNL     1       2.297   7.408  18.627  0.00  0.00    +0.000 OA
ATOM      4  H   UNL     1       1.859   6.759  21.715  0.00  0.00    +0.000 HD
ENDROOT
BRANCH   2   5
ATOM      5  C   UNL     1       2.756   5.394  19.731  0.00  0.00    +0.000 A 
ATOM      6  C   UNL     1       2.322   4.526  20.746  0.00  0.00    +0.000 A 
ATOM      7  C   UNL     1       2.765   3.209  20.746  0.00  0.00    +0.000 A 
ATOM      8  N   UNL     1       3.594   2.655  19.829  0.00  0.00    +0.000 NA
ATOM      9  C   UNL     1       3.981   3.536  18.893  0.00  0.00    +0.000 A 
ATOM     10  N   UNL     1       4.803   3.286  17.838  0.00  0.00    +0.000 N 
ATOM     11  C   UNL     1       4.993   4.462  17.158  0.00  0.00    +0.000 A 
ATOM     12  N   UNL     1       4.283   5.440  17.690  0.00  0.00    +0.000 NA
ATOM     13  C   UNL     1       3.642   4.878  18.778  0.00  0.00    +0.000 A 
ATOM     14  H   UNL     1       5.209   2.389  17.620  0.00  0.00    +0.000 HD
BRANCH  11  15
ATOM     15  C   UNL     1       5.881   4.603  15.981  0.00  0.00    +0.000 A 
ATOM     16  C   UNL     1       5.715   4.062  14.686  0.00  0.00    +0.000 A 
ATOM     17  C   UNL     1       6.796   4.494  13.955  0.00  0.00    +0.000 A 
ATOM     18  O   UNL     1       7.625   5.245  14.727  0.00  0.00    +0.000 OA
ATOM     19  C   UNL     1       7.063   5.305  15.964  0.00  0.00    +0.000 A 
ENDBRANCH  11  15
ENDBRANCH   2   5
BRANCH   1  20
ATOM     20  C   UNL     1       1.371   8.702  20.966  0.00  0.00    +0.000 C 
BRANCH  20  21
ATOM     21  C   UNL     1       0.747   9.032  22.329  0.00  0.00    +0.000 C 
BRANCH  21  25
ATOM     22  C   UNL     1      -1.522  12.707  22.238  0.00  0.00    +0.000 A 
ATOM     23  C   UNL     1      -0.493  12.497  21.325  0.00  0.00    +0.000 A 
ATOM     24  C   UNL     1       0.229  11.304  21.348  0.00  0.00    +0.000 A 
ATOM     25  C   UNL     1      -0.064  10.308  22.292  0.00  0.00    +0.000 A 
ATOM     26  C   UNL     1      -1.128  10.515  23.182  0.00  0.00    +0.000 A 
ATOM     27  C   UNL     1      -1.855  11.711  23.156  0.00  0.00    +0.000 A 
BRANCH  22  28
ATOM     28  N   UNL     1      -2.263  13.923  22.184  0.00  0.00    +0.000 N 
ATOM     29  H   UNL     1      -2.337  14.345  21.256  0.00  0.00    +0.000 HD
BRANCH  28  30
ATOM     30  S   UNL     1      -1.861  15.129  23.304  0.00  0.00    +0.000 S 
ATOM     31  O   UNL     1      -2.113  16.377  22.615  0.00  0.00    +0.000 OA
ATOM     32  O   UNL     1      -0.570  14.847  23.893  0.00  0.00    +0.000 OA
BRANCH  30  34
ATOM     33  C   UNL     1      -4.435  14.430  23.900  0.00  0.00    +0.000 C 
ATOM     34  C   UNL     1      -3.143  14.908  24.532  0.00  0.00    +0.000 C 
ENDBRANCH  30  34
ENDBRANCH  28  30
ENDBRANCH  22  28
ENDBRANCH  21  25
ENDBRANCH  20  21
ENDBRANCH   1  20
TORSDOF 8
ENDMDL
MODEL 8
REMARK VINA RESULT:      -8.0      1.666      2.430
REMARK  Name = 
REMARK  9 active torsions:
REMARK  status: ('A' for Active; 'I' for Inactive)
REMARK    1  A    between atoms: C_1  and  C_2
REMARK    2  A    between atoms: C_2  and  S_3
REMARK    3  A    between atoms: S_3  and  N_6
REMARK    4  A    between atoms: N_6  and  C_7
REMARK    5  A    between atoms: C_10  and  C_11
REMARK    6  A    between atoms: C_11  and  C_12
REMARK    7  A    between atoms: C_12  and  N_13
REMARK    8  A    between atoms: C_14  and  C_16
REMARK    9  A    between atoms: C_22  and  C_23
REMARK                            x       y       z     vdW  Elec       q    Type
REMARK                         _______ _______ _______ _____ _____    ______ ____
ROOT
ATOM      1  N   UNL     1       1.780   7.374  20.838  0.00  0.00    +0.000 N 
ATOM      2  C   UNL     1       2.213   6.813  19.658  0.00  0.00    +0.000 C 
ATOM      3  O   UNL     1       2.224   7.417  18.587  0.00  0.00    +0.000 OA
ATOM      4  H   UNL     1       1.820   6.815  21.689  0.00  0.00    +0.000 HD
ENDROOT
BRANCH   2   5
ATOM      5  C   UNL     1       2.703   5.421  19.718  0.00  0.00    +0.000 A 
ATOM      6  C   UNL     1       2.259   4.559  20.734  0.00  0.00    +0.000 A 
ATOM      7  C   UNL     1       2.709   3.245  20.750  0.00  0.00    +0.000 A 
ATOM      8  N   UNL     1       3.552   2.688  19.848  0.00  0.00    +0.000 NA
ATOM      9  C   UNL     1       3.948   3.564  18.911  0.00  0.00    +0.000 A 
ATOM     10  N   UNL     1       4.785   3.309  17.868  0.00  0.00    +0.000 N 
ATOM     11  C   UNL     1       4.979   4.482  17.183  0.00  0.00    +0.000 A 
ATOM     12  N   UNL     1       4.257   5.461  17.697  0.00  0.00    +0.000 NA
ATOM     13  C   UNL     1       3.604   4.903  18.781  0.00  0.00    +0.000 A 
ATOM     14  H   UNL     1       5.198   2.414  17.662  0.00  0.00    +0.000 HD
BRANCH  11  15
ATOM     15  C   UNL     1       5.881   4.619  16.016  0.00  0.00    +0.000 A 
ATOM     16  C   UNL     1       5.693   4.141  14.699  0.00  0.00    +0.000 A 
ATOM     17  C   UNL     1       6.803   4.539  13.992  0.00  0.00    +0.000 A 
ATOM     18  O   UNL     1       7.668   5.207  14.798  0.00  0.00    +0.000 OA
ATOM     19  C   UNL     1       7.102   5.250  16.034  0.00  0.00    +0.000 A 
ENDBRANCH  11  15
ENDBRANCH   2   5
BRANCH   1  20
ATOM     20  C   UNL     1       1.316   8.743  20.915  0.00  0.00    +0.000 C 
BRANCH  20  21
ATOM     21  C   UNL     1       0.604   9.060  22.237  0.00  0.00    +0.000 C 
BRANCH  21  25
ATOM     22  C   UNL     1      -2.058  12.447  21.907  0.00  0.00    +0.000 A 
ATOM     23  C   UNL     1      -1.991  11.722  23.093  0.00  0.00    +0.000 A 
ATOM     24  C   UNL     1      -1.121  10.638  23.202  0.00  0.00    +0.000 A 
ATOM     25  C   UNL     1      -0.312  10.258  22.119  0.00  0.00    +0.000 A 
ATOM     26  C   UNL     1      -0.360  11.020  20.942  0.00  0.00    +0.000 A 
ATOM     27  C   UNL     1      -1.230  12.111  20.835  0.00  0.00    +0.000 A 
BRANCH  22  28
ATOM     28  N   UNL     1      -2.936  13.566  21.823  0.00  0.00    +0.000 N 
ATOM     29  H   UNL     1      -2.800  14.279  22.543  0.00  0.00    +0.000 HD
BRANCH  28  30
ATOM     30  S   UNL     1      -4.592  13.246  21.674  0.00  0.00    +0.000 S 
ATOM     31  O   UNL     1      -5.228  14.546  21.693  0.00  0.00    +0.000 OA
ATOM     32  O   UNL     1      -4.981  12.209  22.606  0.00  0.00    +0.000 OA
BRANCH  30  34
ATOM     33  C   UNL     1      -5.975  13.017  19.327  0.00  0.00    +0.000 C 
ATOM     34  C   UNL     1      -4.678  12.613  20.003  0.00  0.00    +0.000 C 
ENDBRANCH  30  34
ENDBRANCH  28  30
ENDBRANCH  22  28
ENDBRANCH  21  25
ENDBRANCH  20  21
ENDBRANCH   1  20
TORSDOF 8
ENDMDL
MODEL 9
REMARK VINA RESULT:      -8.0      1.423      1.758
REMARK  Name = 
REMARK  9 active torsions:
REMARK  status: ('A' for Active; 'I' for Inactive)
REMARK    1  A    between atoms: C_1  and  C_2
REMARK    2  A    between atoms: C_2  and  S_3
REMARK    3  A    between atoms: S_3  and  N_6
REMARK    4  A    between atoms: N_6  and  C_7
REMARK    5  A    between atoms: C_10  and  C_11
REMARK    6  A    between atoms: C_11  and  C_12
REMARK    7  A    between atoms: C_12  and  N_13
REMARK    8  A    between atoms: C_14  and  C_16
REMARK    9  A    between atoms: C_22  and  C_23
REMARK                            x       y       z     vdW  Elec       q    Type
REMARK                         _______ _______ _______ _____ _____    ______ ____
ROOT
ATOM      1  N   UNL     1       2.386   6.846  18.888  0.00  0.00    +0.000 N 
ATOM      2  C   UNL     1       2.083   5.870  19.811  0.00  0.00    +0.000 C 
ATOM      3  O   UNL     1       1.556   6.106  20.895  0.00  0.00    +0.000 OA
ATOM      4  H   UNL     1       2.806   6.568  18.001  0.00  0.00    +0.000 HD
ENDROOT
BRANCH   2   5
ATOM      5  C   UNL     1       2.403   4.476  19.440  0.00  0.00    +0.000 A 
ATOM      6  C   UNL     1       1.763   3.407  20.088  0.00  0.00    +0.000 A 
ATOM      7  C   UNL     1       2.057   2.107  19.698  0.00  0.00    +0.000 A 
ATOM      8  N   UNL     1       2.919   1.752  18.715  0.00  0.00    +0.000 NA
ATOM      9  C   UNL     1       3.505   2.817  18.142  0.00  0.00    +0.000 A 
ATOM     10  N   UNL     1       4.409   2.792  17.125  0.00  0.00    +0.000 N 
ATOM     11  C   UNL     1       4.803   4.082  16.875  0.00  0.00    +0.000 A 
ATOM     12  N   UNL     1       4.148   4.937  17.639  0.00  0.00    +0.000 NA
ATOM     13  C   UNL     1       3.330   4.162  18.438  0.00  0.00    +0.000 A 
ATOM     14  H   UNL     1       4.736   1.959  16.661  0.00  0.00    +0.000 HD
BRANCH  11  15
ATOM     15  C   UNL     1       5.828   4.454  15.873  0.00  0.00    +0.000 A 
ATOM     16  C   UNL     1       5.860   4.148  14.494  0.00  0.00    +0.000 A 
ATOM     17  C   UNL     1       7.005   4.732  14.005  0.00  0.00    +0.000 A 
ATOM     18  O   UNL     1       7.687   5.355  15.001  0.00  0.00    +0.000 OA
ATOM     19  C   UNL     1       6.965   5.179  16.141  0.00  0.00    +0.000 A 
ENDBRANCH  11  15
ENDBRANCH   2   5
BRANCH   1  20
ATOM     20  C   UNL     1       2.083   8.243  19.118  0.00  0.00    +0.000 C 
BRANCH  20  21
ATOM     21  C   UNL     1       1.570   8.958  17.861  0.00  0.00    +0.000 C 
BRANCH  21  25
ATOM     22  C   UNL     1      -1.171  12.143  18.868  0.00  0.00    +0.000 A 
ATOM     23  C   UNL     1       0.194  12.299  19.087  0.00  0.00    +0.000 A 
ATOM     24  C   UNL     1       1.078  11.275  18.748  0.00  0.00    +0.000 A 
ATOM     25  C   UNL     1       0.606  10.075  18.194  0.00  0.00    +0.000 A 
ATOM     26  C   UNL     1      -0.768   9.944  17.943  0.00  0.00    +0.000 A 
ATOM     27  C   UNL     1      -1.655  10.973  18.280  0.00  0.00    +0.000 A 
BRANCH  22  28
ATOM     28  N   UNL     1      -2.056  13.209  19.200  0.00  0.00    +0.000 N 
ATOM     29  H   UNL     1      -1.758  14.134  18.885  0.00  0.00    +0.000 HD
BRANCH  28  30
ATOM     30  S   UNL     1      -2.574  13.319  20.809  0.00  0.00    +0.000 S 
ATOM     31  O   UNL     1      -2.103  12.102  21.437  0.00  0.00    +0.000 OA
ATOM     32  O   UNL     1      -3.971  13.693  20.855  0.00  0.00    +0.000 OA
BRANCH  30  34
ATOM     33  C   UNL     1      -1.732  15.905  20.538  0.00  0.00    +0.000 C 
ATOM     34  C   UNL     1      -1.570  14.673  21.408  0.00  0.00    +0.000 C 
ENDBRANCH  30  34
ENDBRANCH  28  30
ENDBRANCH  22  28
ENDBRANCH  21  25
ENDBRANCH  20  21
ENDBRANCH   1  20
TORSDOF 8
ENDMDL
