MODEL 1
REMARK VINA RESULT:      -7.9      0.000      0.000
REMARK  Name = 
REMARK  6 active torsions:
REMARK  status: ('A' for Active; 'I' for Inactive)
REMARK    1  A    between atoms: C_1  and  C_2
REMARK    2  A    between atoms: C_2  and  C_3
REMARK    3  A    between atoms: C_5  and  C_6
REMARK    4  A    between atoms: N_8  and  C_9
REMARK    5  A    between atoms: C_19  and  C_20
REMARK    6  A    between atoms: N_21  and  C_22
REMARK                            x       y       z     vdW  Elec       q    Type
REMARK                         _______ _______ _______ _____ _____    ______ ____
ROOT
ATOM      1  C   UNL     1       0.608  10.036  21.053  0.00  0.00    +0.000 A 
ATOM      2  N   UNL     1       1.000   8.791  20.835  0.00  0.00    +0.000 NA
ATOM      3  C   UNL     1       1.593   8.771  19.586  0.00  0.00    +0.000 A 
ATOM      4  C   UNL     1       1.596  10.046  19.051  0.00  0.00    +0.000 A 
ATOM      5  C   UNL     1       2.267  10.540  17.814  0.00  0.00    +0.000 C 
ATOM      6  N   UNL     1       0.913  10.856  19.960  0.00  0.00    +0.000 N 
ENDROOT
BRANCH   6   7
ATOM      7  C   UNL     1       0.667  12.261  19.796  0.00  0.00    +0.000 A 
ATOM      8  C   UNL     1      -0.375  12.697  18.961  0.00  0.00    +0.000 A 
ATOM      9  C   UNL     1      -0.484  14.040  18.593  0.00  0.00    +0.000 A 
ATOM     10  C   UNL     1       0.412  14.974  19.102  0.00  0.00    +0.000 A 
ATOM     11  C   UNL     1       1.394  14.568  20.002  0.00  0.00    +0.000 A 
ATOM     12  C   UNL     1       1.526  13.217  20.348  0.00  0.00    +0.000 A 
ENDBRANCH   6   7
BRANCH   3  13
ATOM     13  C   UNL     1       2.161   7.548  18.989  0.00  0.00    +0.000 C 
ATOM     14  O   UNL     1       2.736   7.540  17.904  0.00  0.00    +0.000 OA
ATOM     15  N   UNL     1       1.968   6.417  19.757  0.00  0.00    +0.000 N 
ATOM     16  H   UNL     1       1.528   6.595  20.656  0.00  0.00    +0.000 HD
BRANCH  15  17
ATOM     17  C   UNL     1       2.406   5.060  19.408  0.00  0.00    +0.000 C 
ATOM     18  C   UNL     1       3.950   4.925  19.444  0.00  0.00    +0.000 C 
ATOM     19  C   UNL     1       4.380   3.478  19.129  0.00  0.00    +0.000 C 
ATOM     20  C   UNL     1       3.771   2.525  20.171  0.00  0.00    +0.000 C 
ATOM     21  C   UNL     1       2.239   2.620  20.135  0.00  0.00    +0.000 C 
ATOM     22  C   UNL     1       1.740   2.231  18.734  0.00  0.00    +0.000 C 
ATOM     23  C   UNL     1       2.335   3.183  17.686  0.00  0.00    +0.000 C 
ATOM     24  C   UNL     1       3.869   3.087  17.730  0.00  0.00    +0.000 C 
ATOM     25  C   UNL     1       1.904   4.628  18.004  0.00  0.00    +0.000 C 
ATOM     26  C   UNL     1       1.813   4.068  20.444  0.00  0.00    +0.000 C 
ENDBRANCH  15  17
ENDBRANCH   3  13
BRANCH   1  28
ATOM     27  C   UNL     1      -0.217   9.425  23.368  0.00  0.00    +0.000 C 
ATOM     28  C   UNL     1      -0.173  10.472  22.262  0.00  0.00    +0.000 C 
ENDBRANCH   1  28
TORSDOF 4
ENDMDL
MODEL 2
REMARK VINA RESULT:      -7.9      0.173      1.443
REMARK  Name = 
REMARK  6 active torsions:
REMARK  status: ('A' for Active; 'I' for Inactive)
REMARK    1  A    between atoms: C_1  and  C_2
REMARK    2  A    between atoms: C_2  and  C_3
REMARK    3  A    between atoms: C_5  and  C_6
REMARK    4  A    between atoms: N_8  and  C_9
REMARK    5  A    between atoms: C_19  and  C_20
REMARK    6  A    between atoms: N_21  and  C_22
REMARK                            x       y       z     vdW  Elec       q    Type
REMARK                         _______ _______ _______ _____ _____    ______ ____
ROOT
ATOM      1  C   UNL     1       0.520   9.909  21.023  0.00  0.00    +0.000 A 
ATOM      2  N   UNL     1       0.952   8.675  20.815  0.00  0.00    +0.000 NA
ATOM      3  C   UNL     1       1.599   8.679  19.593  0.00  0.00    +0.000 A 
ATOM      4  C   UNL     1       1.592   9.956  19.064  0.00  0.00    +0.000 A 
ATOM      5  C   UNL     1       2.303  10.475  17.861  0.00  0.00    +0.000 C 
ATOM      6  N   UNL     1       0.850  10.743  19.948  0.00  0.00    +0.000 N 
ENDROOT
BRANCH   6   7
ATOM      7  C   UNL     1       0.576  12.143  19.781  0.00  0.00    +0.000 A 
ATOM      8  C   UNL     1      -0.442  12.557  18.906  0.00  0.00    +0.000 A 
ATOM      9  C   UNL     1      -0.570  13.900  18.541  0.00  0.00    +0.000 A 
ATOM     10  C   UNL     1       0.281  14.852  19.089  0.00  0.00    +0.000 A 
ATOM     11  C   UNL     1       1.236  14.466  20.027  0.00  0.00    +0.000 A 
ATOM     12  C   UNL     1       1.389  13.117  20.371  0.00  0.00    +0.000 A 
ENDBRANCH   6   7
BRANCH   3  13
ATOM     13  C   UNL     1       2.223   7.473  19.014  0.00  0.00    +0.000 C 
ATOM     14  O   UNL     1       2.853   7.489  17.960  0.00  0.00    +0.000 OA
ATOM     15  N   UNL     1       2.015   6.331  19.760  0.00  0.00    +0.000 N 
ATOM     16  H   UNL     1       1.525   6.490  20.638  0.00  0.00    +0.000 HD
BRANCH  15  17
ATOM     17  C   UNL     1       2.498   4.987  19.422  0.00  0.00    +0.000 C 
ATOM     18  C   UNL     1       1.996   3.922  20.430  0.00  0.00    +0.000 C 
ATOM     19  C   UNL     1       2.471   2.514  20.020  0.00  0.00    +0.000 C 
ATOM     20  C   UNL     1       1.925   2.176  18.623  0.00  0.00    +0.000 C 
ATOM     21  C   UNL     1       2.431   3.201  17.600  0.00  0.00    +0.000 C 
ATOM     22  C   UNL     1       3.968   3.169  17.569  0.00  0.00    +0.000 C 
ATOM     23  C   UNL     1       4.525   3.515  18.957  0.00  0.00    +0.000 C 
ATOM     24  C   UNL     1       4.010   2.486  19.978  0.00  0.00    +0.000 C 
ATOM     25  C   UNL     1       4.048   4.922  19.363  0.00  0.00    +0.000 C 
ATOM     26  C   UNL     1       1.960   4.609  18.015  0.00  0.00    +0.000 C 
ENDBRANCH  15  17
ENDBRANCH   3  13
BRANCH   1  28
ATOM     27  C   UNL     1      -0.063   9.490  23.451  0.00  0.00    +0.000 C 
ATOM     28  C   UNL     1      -0.324  10.318  22.199  0.00  0.00    +0.000 C 
ENDBRANCH   1  28
TORSDOF 4
ENDMDL
MODEL 3
REMARK VINA RESULT:      -7.9      0.173      1.459
REMARK  Name = 
REMARK  6 active torsions:
REMARK  status: ('A' for Active; 'I' for Inactive)
REMARK    1  A    between atoms: C_1  and  C_2
REMARK    2  A    between atoms: C_2  and  C_3
REMARK    3  A    between atoms: C_5  and  C_6
REMARK    4  A    between atoms: N_8  and  C_9
REMARK    5  A    between atoms: C_19  and  C_20
REMARK    6  A    between atoms: N_21  and  C_22
REMARK                            x       y       z     vdW  Elec       q    Type
REMARK                         _______ _______ _______ _____ _____    ______ ____
ROOT
ATOM      1  C   UNL     1       0.535   9.942  21.017  0.00  0.00    +0.000 A 
ATOM      2  N   UNL     1       0.958   8.707  20.796  0.00  0.00    +0.000 NA
ATOM      3  C   UNL     1       1.593   8.716  19.568  0.00  0.00    +0.000 A 
ATOM      4  C   UNL     1       1.589   9.998  19.049  0.00  0.00    +0.000 A 
ATOM      5  C   UNL     1       2.291  10.521  17.842  0.00  0.00    +0.000 C 
ATOM      6  N   UNL     1       0.860  10.782  19.946  0.00  0.00    +0.000 N 
ENDROOT
BRANCH   6   7
ATOM      7  C   UNL     1       0.593  12.185  19.792  0.00  0.00    +0.000 A 
ATOM      8  C   UNL     1      -0.408  12.613  18.904  0.00  0.00    +0.000 A 
ATOM      9  C   UNL     1      -0.527  13.960  18.555  0.00  0.00    +0.000 A 
ATOM     10  C   UNL     1       0.317  14.903  19.131  0.00  0.00    +0.000 A 
ATOM     11  C   UNL     1       1.253  14.502  20.080  0.00  0.00    +0.000 A 
ATOM     12  C   UNL     1       1.396  13.148  20.410  0.00  0.00    +0.000 A 
ENDBRANCH   6   7
BRANCH   3  13
ATOM     13  C   UNL     1       2.205   7.512  18.973  0.00  0.00    +0.000 C 
ATOM     14  O   UNL     1       2.869   7.541  17.942  0.00  0.00    +0.000 OA
ATOM     15  N   UNL     1       1.942   6.354  19.679  0.00  0.00    +0.000 N 
ATOM     16  H   UNL     1       1.429   6.501  20.544  0.00  0.00    +0.000 HD
BRANCH  15  17
ATOM     17  C   UNL     1       2.402   5.008  19.316  0.00  0.00    +0.000 C 
ATOM     18  C   UNL     1       1.953   4.611  17.886  0.00  0.00    +0.000 C 
ATOM     19  C   UNL     1       2.495   3.218  17.510  0.00  0.00    +0.000 C 
ATOM     20  C   UNL     1       4.031   3.236  17.562  0.00  0.00    +0.000 C 
ATOM     21  C   UNL     1       4.504   3.600  18.976  0.00  0.00    +0.000 C 
ATOM     22  C   UNL     1       3.971   2.557  19.972  0.00  0.00    +0.000 C 
ATOM     23  C   UNL     1       2.436   2.537  19.936  0.00  0.00    +0.000 C 
ATOM     24  C   UNL     1       1.970   2.177  18.515  0.00  0.00    +0.000 C 
ATOM     25  C   UNL     1       1.897   3.930  20.312  0.00  0.00    +0.000 C 
ATOM     26  C   UNL     1       3.954   4.990  19.353  0.00  0.00    +0.000 C 
ENDBRANCH  15  17
ENDBRANCH   3  13
BRANCH   1  28
ATOM     27  C   UNL     1      -0.014   9.518  23.453  0.00  0.00    +0.000 C 
ATOM     28  C   UNL     1      -0.294  10.346  22.205  0.00  0.00    +0.000 C 
ENDBRANCH   1  28
TORSDOF 4
ENDMDL
MODEL 4
REMARK VINA RESULT:      -7.9      1.348      2.484
REMARK  Name = 
REMARK  6 active torsions:
REMARK  status: ('A' for Active; 'I' for Inactive)
REMARK    1  A    between atoms: C_1  and  C_2
REMARK    2  A    between atoms: C_2  and  C_3
REMARK    3  A    between atoms: C_5  and  C_6
REMARK    4  A    between atoms: N_8  and  C_9
REMARK    5  A    between atoms: C_19  and  C_20
REMARK    6  A    between atoms: N_21  and  C_22
REMARK                            x       y       z     vdW  Elec       q    Type
REMARK                         _______ _______ _______ _____ _____    ______ ____
ROOT
ATOM      1  C   UNL     1       0.054  10.643  18.943  0.00  0.00    +0.000 A 
ATOM      2  N   UNL     1       0.644   9.652  18.292  0.00  0.00    +0.000 NA
ATOM      3  C   UNL     1       1.329   8.907  19.234  0.00  0.00    +0.000 A 
ATOM      4  C   UNL     1       1.117   9.437  20.493  0.00  0.00    +0.000 A 
ATOM      5  C   UNL     1       1.511   8.882  21.820  0.00  0.00    +0.000 C 
ATOM      6  N   UNL     1       0.346  10.587  20.311  0.00  0.00    +0.000 N 
ENDROOT
BRANCH   6   7
ATOM      7  C   UNL     1      -0.097  11.462  21.360  0.00  0.00    +0.000 A 
ATOM      8  C   UNL     1      -1.084  11.030  22.261  0.00  0.00    +0.000 A 
ATOM      9  C   UNL     1      -1.703  11.930  23.131  0.00  0.00    +0.000 A 
ATOM     10  C   UNL     1      -1.304  13.262  23.150  0.00  0.00    +0.000 A 
ATOM     11  C   UNL     1      -0.264  13.683  22.325  0.00  0.00    +0.000 A 
ATOM     12  C   UNL     1       0.337  12.790  21.429  0.00  0.00    +0.000 A 
ENDBRANCH   6   7
BRANCH   3  13
ATOM     13  C   UNL     1       2.115   7.707  18.888  0.00  0.00    +0.000 C 
ATOM     14  O   UNL     1       3.111   7.746  18.171  0.00  0.00    +0.000 OA
ATOM     15  N   UNL     1       1.613   6.542  19.433  0.00  0.00    +0.000 N 
ATOM     16  H   UNL     1       0.818   6.680  20.052  0.00  0.00    +0.000 HD
BRANCH  15  17
ATOM     17  C   UNL     1       2.173   5.198  19.245  0.00  0.00    +0.000 C 
ATOM     18  C   UNL     1       3.690   5.157  19.562  0.00  0.00    +0.000 C 
ATOM     19  C   UNL     1       4.241   3.725  19.411  0.00  0.00    +0.000 C 
ATOM     20  C   UNL     1       3.503   2.788  20.381  0.00  0.00    +0.000 C 
ATOM     21  C   UNL     1       2.000   2.790  20.070  0.00  0.00    +0.000 C 
ATOM     22  C   UNL     1       1.781   2.306  18.627  0.00  0.00    +0.000 C 
ATOM     23  C   UNL     1       2.506   3.240  17.648  0.00  0.00    +0.000 C 
ATOM     24  C   UNL     1       4.011   3.238  17.969  0.00  0.00    +0.000 C 
ATOM     25  C   UNL     1       1.953   4.670  17.801  0.00  0.00    +0.000 C 
ATOM     26  C   UNL     1       1.453   4.223  20.215  0.00  0.00    +0.000 C 
ENDBRANCH  15  17
ENDBRANCH   3  13
BRANCH   1  28
ATOM     27  C   UNL     1      -2.229  11.583  18.381  0.00  0.00    +0.000 C 
ATOM     28  C   UNL     1      -0.718  11.747  18.274  0.00  0.00    +0.000 C 
ENDBRANCH   1  28
TORSDOF 4
ENDMDL
MODEL 5
REMARK VINA RESULT:      -7.9      1.055      1.431
REMARK  Name = 
REMARK  6 active torsions:
REMARK  status: ('A' for Active; 'I' for Inactive)
REMARK    1  A    between atoms: C_1  and  C_2
REMARK    2  A    between atoms: C_2  and  C_3
REMARK    3  A    between atoms: C_5  and  C_6
REMARK    4  A    between atoms: N_8  and  C_9
REMARK    5  A    between atoms: C_19  and  C_20
REMARK    6  A    between atoms: N_21  and  C_22
REMARK                            x       y       z     vdW  Elec       q    Type
REMARK                         _______ _______ _______ _____ _____    ______ ____
ROOT
ATOM      1  C   UNL     1       0.684   9.574  21.779  0.00  0.00    +0.000 A 
ATOM      2  N   UNL     1       1.275   8.442  21.430  0.00  0.00    +0.000 NA
ATOM      3  C   UNL     1       1.545   8.533  20.076  0.00  0.00    +0.000 A 
ATOM      4  C   UNL     1       1.141   9.768  19.602  0.00  0.00    +0.000 A 
ATOM      5  C   UNL     1       1.374  10.377  18.261  0.00  0.00    +0.000 C 
ATOM      6  N   UNL     1       0.533  10.422  20.676  0.00  0.00    +0.000 N 
ENDROOT
BRANCH   6   7
ATOM      7  C   UNL     1      -0.046  11.735  20.626  0.00  0.00    +0.000 A 
ATOM      8  C   UNL     1       0.653  12.829  21.162  0.00  0.00    +0.000 A 
ATOM      9  C   UNL     1       0.021  14.062  21.346  0.00  0.00    +0.000 A 
ATOM     10  C   UNL     1      -1.298  14.232  20.942  0.00  0.00    +0.000 A 
ATOM     11  C   UNL     1      -1.972  13.181  20.326  0.00  0.00    +0.000 A 
ATOM     12  C   UNL     1      -1.353  11.935  20.170  0.00  0.00    +0.000 A 
ENDBRANCH   6   7
BRANCH   3  13
ATOM     13  C   UNL     1       2.208   7.456  19.317  0.00  0.00    +0.000 C 
ATOM     14  O   UNL     1       2.842   7.660  18.286  0.00  0.00    +0.000 OA
ATOM     15  N   UNL     1       2.031   6.203  19.868  0.00  0.00    +0.000 N 
ATOM     16  H   UNL     1       1.532   6.204  20.755  0.00  0.00    +0.000 HD
BRANCH  15  17
ATOM     17  C   UNL     1       2.557   4.946  19.323  0.00  0.00    +0.000 C 
ATOM     18  C   UNL     1       4.106   4.911  19.345  0.00  0.00    +0.000 C 
ATOM     19  C   UNL     1       4.631   3.560  18.819  0.00  0.00    +0.000 C 
ATOM     20  C   UNL     1       4.095   2.424  19.705  0.00  0.00    +0.000 C 
ATOM     21  C   UNL     1       2.560   2.419  19.678  0.00  0.00    +0.000 C 
ATOM     22  C   UNL     1       2.079   2.210  18.233  0.00  0.00    +0.000 C 
ATOM     23  C   UNL     1       2.601   3.345  17.340  0.00  0.00    +0.000 C 
ATOM     24  C   UNL     1       4.139   3.348  17.376  0.00  0.00    +0.000 C 
ATOM     25  C   UNL     1       2.076   4.694  17.868  0.00  0.00    +0.000 C 
ATOM     26  C   UNL     1       2.038   3.773  20.197  0.00  0.00    +0.000 C 
ENDBRANCH  15  17
ENDBRANCH   3  13
BRANCH   1  28
ATOM     27  C   UNL     1      -1.280  10.409  23.143  0.00  0.00    +0.000 C 
ATOM     28  C   UNL     1       0.137   9.847  23.153  0.00  0.00    +0.000 C 
ENDBRANCH   1  28
TORSDOF 4
ENDMDL
MODEL 6
REMARK VINA RESULT:      -7.9      1.353      2.903
REMARK  Name = 
REMARK  6 active torsions:
REMARK  status: ('A' for Active; 'I' for Inactive)
REMARK    1  A    between atoms: C_1  and  C_2
REMARK    2  A    between atoms: C_2  and  C_3
REMARK    3  A    between atoms: C_5  and  C_6
REMARK    4  A    between atoms: N_8  and  C_9
REMARK    5  A    between atoms: C_19  and  C_20
REMARK    6  A    between atoms: N_21  and  C_22
REMARK                            x       y       z     vdW  Elec       q    Type
REMARK                         _______ _______ _______ _____ _____    ______ ____
ROOT
ATOM      1  C   UNL     1       0.075  10.643  18.966  0.00  0.00    +0.000 A 
ATOM      2  N   UNL     1       0.673   9.653  18.322  0.00  0.00    +0.000 NA
ATOM      3  C   UNL     1       1.344   8.905  19.272  0.00  0.00    +0.000 A 
ATOM      4  C   UNL     1       1.115   9.434  20.529  0.00  0.00    +0.000 A 
ATOM      5  C   UNL     1       1.489   8.877  21.861  0.00  0.00    +0.000 C 
ATOM      6  N   UNL     1       0.348  10.585  20.338  0.00  0.00    +0.000 N 
ENDROOT
BRANCH   6   7
ATOM      7  C   UNL     1      -0.110  11.459  21.381  0.00  0.00    +0.000 A 
ATOM      8  C   UNL     1      -1.105  11.024  22.272  0.00  0.00    +0.000 A 
ATOM      9  C   UNL     1      -1.736  11.923  23.135  0.00  0.00    +0.000 A 
ATOM     10  C   UNL     1      -1.342  13.256  23.158  0.00  0.00    +0.000 A 
ATOM     11  C   UNL     1      -0.295  13.680  22.344  0.00  0.00    +0.000 A 
ATOM     12  C   UNL     1       0.319  12.788  21.454  0.00  0.00    +0.000 A 
ENDBRANCH   6   7
BRANCH   3  13
ATOM     13  C   UNL     1       2.134   7.705  18.936  0.00  0.00    +0.000 C 
ATOM     14  O   UNL     1       3.131   7.742  18.222  0.00  0.00    +0.000 OA
ATOM     15  N   UNL     1       1.633   6.543  19.487  0.00  0.00    +0.000 N 
ATOM     16  H   UNL     1       0.836   6.683  20.104  0.00  0.00    +0.000 HD
BRANCH  15  17
ATOM     17  C   UNL     1       2.197   5.199  19.310  0.00  0.00    +0.000 C 
ATOM     18  C   UNL     1       1.504   4.157  20.225  0.00  0.00    +0.000 C 
ATOM     19  C   UNL     1       2.076   2.747  19.979  0.00  0.00    +0.000 C 
ATOM     20  C   UNL     1       1.846   2.351  18.511  0.00  0.00    +0.000 C 
ATOM     21  C   UNL     1       2.546   3.353  17.583  0.00  0.00    +0.000 C 
ATOM     22  C   UNL     1       4.055   3.352  17.882  0.00  0.00    +0.000 C 
ATOM     23  C   UNL     1       4.296   3.756  19.344  0.00  0.00    +0.000 C 
ATOM     24  C   UNL     1       3.588   2.751  20.268  0.00  0.00    +0.000 C 
ATOM     25  C   UNL     1       3.724   5.166  19.587  0.00  0.00    +0.000 C 
ATOM     26  C   UNL     1       1.978   4.763  17.836  0.00  0.00    +0.000 C 
ENDBRANCH  15  17
ENDBRANCH   3  13
BRANCH   1  28
ATOM     27  C   UNL     1      -2.195  11.651  18.471  0.00  0.00    +0.000 C 
ATOM     28  C   UNL     1      -0.685  11.749  18.287  0.00  0.00    +0.000 C 
ENDBRANCH   1  28
TORSDOF 4
ENDMDL
MODEL 7
REMARK VINA RESULT:      -7.8      1.046      2.010
REMARK  Name = 
REMARK  6 active torsions:
REMARK  status: ('A' for Active; 'I' for Inactive)
REMARK    1  A    between atoms: C_1  and  C_2
REMARK    2  A    between atoms: C_2  and  C_3
REMARK    3  A    between atoms: C_5  and  C_6
REMARK    4  A    between atoms: N_8  and  C_9
REMARK    5  A    between atoms: C_19  and  C_20
REMARK    6  A    between atoms: N_21  and  C_22
REMARK                            x       y       z     vdW  Elec       q    Type
REMARK                         _______ _______ _______ _____ _____    ______ ____
ROOT
ATOM      1  C   UNL     1       0.764   9.548  21.758  0.00  0.00    +0.000 A 
ATOM      2  N   UNL     1       1.361   8.410  21.438  0.00  0.00    +0.000 NA
ATOM      3  C   UNL     1       1.586   8.446  20.074  0.00  0.00    +0.000 A 
ATOM      4  C   UNL     1       1.148   9.653  19.561  0.00  0.00    +0.000 A 
ATOM      5  C   UNL     1       1.329  10.207  18.188  0.00  0.00    +0.000 C 
ATOM      6  N   UNL     1       0.565  10.345  20.625  0.00  0.00    +0.000 N 
ENDROOT
BRANCH   6   7
ATOM      7  C   UNL     1      -0.036  11.646  20.537  0.00  0.00    +0.000 A 
ATOM      8  C   UNL     1       0.649  12.768  21.033  0.00  0.00    +0.000 A 
ATOM      9  C   UNL     1      -0.001  13.996  21.181  0.00  0.00    +0.000 A 
ATOM     10  C   UNL     1      -1.326  14.132  20.783  0.00  0.00    +0.000 A 
ATOM     11  C   UNL     1      -1.988  13.051  20.207  0.00  0.00    +0.000 A 
ATOM     12  C   UNL     1      -1.350  11.810  20.086  0.00  0.00    +0.000 A 
ENDBRANCH   6   7
BRANCH   3  13
ATOM     13  C   UNL     1       2.241   7.346  19.341  0.00  0.00    +0.000 C 
ATOM     14  O   UNL     1       2.943   7.530  18.350  0.00  0.00    +0.000 OA
ATOM     15  N   UNL     1       1.975   6.098  19.865  0.00  0.00    +0.000 N 
ATOM     16  H   UNL     1       1.427   6.114  20.722  0.00  0.00    +0.000 HD
BRANCH  15  17
ATOM     17  C   UNL     1       2.473   4.823  19.335  0.00  0.00    +0.000 C 
ATOM     18  C   UNL     1       2.055   4.610  17.858  0.00  0.00    +0.000 C 
ATOM     19  C   UNL     1       2.638   3.292  17.309  0.00  0.00    +0.000 C 
ATOM     20  C   UNL     1       4.172   3.337  17.392  0.00  0.00    +0.000 C 
ATOM     21  C   UNL     1       4.613   3.520  18.850  0.00  0.00    +0.000 C 
ATOM     22  C   UNL     1       4.091   2.341  19.689  0.00  0.00    +0.000 C 
ATOM     23  C   UNL     1       2.558   2.292  19.621  0.00  0.00    +0.000 C 
ATOM     24  C   UNL     1       2.123   2.114  18.156  0.00  0.00    +0.000 C 
ATOM     25  C   UNL     1       1.979   3.610  20.170  0.00  0.00    +0.000 C 
ATOM     26  C   UNL     1       4.024   4.834  19.398  0.00  0.00    +0.000 C 
ENDBRANCH  15  17
ENDBRANCH   3  13
BRANCH   1  28
ATOM     27  C   UNL     1      -1.208  10.293  23.161  0.00  0.00    +0.000 C 
ATOM     28  C   UNL     1       0.256   9.872  23.136  0.00  0.00    +0.000 C 
ENDBRANCH   1  28
TORSDOF 4
ENDMDL
MODEL 8
REMARK VINA RESULT:      -7.8      1.017      2.021
REMARK  Name = 
REMARK  6 active torsions:
REMARK  status: ('A' for Active; 'I' for Inactive)
REMARK    1  A    between atoms: C_1  and  C_2
REMARK    2  A    between atoms: C_2  and  C_3
REMARK    3  A    between atoms: C_5  and  C_6
REMARK    4  A    between atoms: N_8  and  C_9
REMARK    5  A    between atoms: C_19  and  C_20
REMARK    6  A    between atoms: N_21  and  C_22
REMARK                            x       y       z     vdW  Elec       q    Type
REMARK                         _______ _______ _______ _____ _____    ______ ____
ROOT
ATOM      1  C   UNL     1       0.783   9.571  21.730  0.00  0.00    +0.000 A 
ATOM      2  N   UNL     1       1.379   8.431  21.417  0.00  0.00    +0.000 NA
ATOM      3  C   UNL     1       1.602   8.459  20.052  0.00  0.00    +0.000 A 
ATOM      4  C   UNL     1       1.165   9.663  19.532  0.00  0.00    +0.000 A 
ATOM      5  C   UNL     1       1.346  10.208  18.156  0.00  0.00    +0.000 C 
ATOM      6  N   UNL     1       0.584  10.362  20.592  0.00  0.00    +0.000 N 
ENDROOT
BRANCH   6   7
ATOM      7  C   UNL     1      -0.015  11.663  20.497  0.00  0.00    +0.000 A 
ATOM      8  C   UNL     1       0.678  12.789  20.972  0.00  0.00    +0.000 A 
ATOM      9  C   UNL     1       0.032  14.020  21.115  0.00  0.00    +0.000 A 
ATOM     10  C   UNL     1      -1.297  14.154  20.732  0.00  0.00    +0.000 A 
ATOM     11  C   UNL     1      -1.969  13.068  20.176  0.00  0.00    +0.000 A 
ATOM     12  C   UNL     1      -1.334  11.824  20.061  0.00  0.00    +0.000 A 
ENDBRANCH   6   7
BRANCH   3  13
ATOM     13  C   UNL     1       2.256   7.354  19.325  0.00  0.00    +0.000 C 
ATOM     14  O   UNL     1       2.901   7.523  18.295  0.00  0.00    +0.000 OA
ATOM     15  N   UNL     1       2.056   6.117  19.905  0.00  0.00    +0.000 N 
ATOM     16  H   UNL     1       1.550   6.147  20.787  0.00  0.00    +0.000 HD
BRANCH  15  17
ATOM     17  C   UNL     1       2.568   4.840  19.394  0.00  0.00    +0.000 C 
ATOM     18  C   UNL     1       2.042   3.636  20.218  0.00  0.00    +0.000 C 
ATOM     19  C   UNL     1       2.549   2.306  19.628  0.00  0.00    +0.000 C 
ATOM     20  C   UNL     1       2.058   2.169  18.178  0.00  0.00    +0.000 C 
ATOM     21  C   UNL     1       2.588   3.335  17.332  0.00  0.00    +0.000 C 
ATOM     22  C   UNL     1       4.126   3.318  17.354  0.00  0.00    +0.000 C 
ATOM     23  C   UNL     1       4.628   3.463  18.798  0.00  0.00    +0.000 C 
ATOM     24  C   UNL     1       4.089   2.295  19.640  0.00  0.00    +0.000 C 
ATOM     25  C   UNL     1       4.120   4.794  19.385  0.00  0.00    +0.000 C 
ATOM     26  C   UNL     1       2.086   4.665  17.929  0.00  0.00    +0.000 C 
ENDBRANCH  15  17
ENDBRANCH   3  13
BRANCH   1  28
ATOM     27  C   UNL     1      -1.216  10.204  23.149  0.00  0.00    +0.000 C 
ATOM     28  C   UNL     1       0.277   9.904  23.107  0.00  0.00    +0.000 C 
ENDBRANCH   1  28
TORSDOF 4
ENDMDL
MODEL 9
REMARK VINA RESULT:      -7.8      1.850      8.141
REMARK  Name = 
REMARK  6 active torsions:
REMARK  status: ('A' for Active; 'I' for Inactive)
REMARK    1  A    between atoms: C_1  and  C_2
REMARK    2  A    between atoms: C_2  and  C_3
REMARK    3  A    between atoms: C_5  and  C_6
REMARK    4  A    between atoms: N_8  and  C_9
REMARK    5  A    between atoms: C_19  and  C_20
REMARK    6  A    between atoms: N_21  and  C_22
REMARK                            x       y       z     vdW  Elec       q    Type
REMARK                         _______ _______ _______ _____ _____    ______ ____
ROOT
ATOM      1  C   UNL     1       2.828   4.753  20.003  0.00  0.00    +0.000 A 
ATOM      2  N   UNL     1       1.995   5.579  20.615  0.00  0.00    +0.000 NA
ATOM      3  C   UNL     1       2.120   6.808  19.992  0.00  0.00    +0.000 A 
ATOM      4  C   UNL     1       3.024   6.712  18.950  0.00  0.00    +0.000 A 
ATOM      5  C   UNL     1       3.355   7.721  17.903  0.00  0.00    +0.000 C 
ATOM      6  N   UNL     1       3.528   5.410  18.985  0.00  0.00    +0.000 N 
ENDROOT
BRANCH   6   7
ATOM      7  C   UNL     1       4.512   4.878  18.084  0.00  0.00    +0.000 A 
ATOM      8  C   UNL     1       5.877   4.988  18.394  0.00  0.00    +0.000 A 
ATOM      9  C   UNL     1       6.855   4.702  17.437  0.00  0.00    +0.000 A 
ATOM     10  C   UNL     1       6.480   4.249  16.178  0.00  0.00    +0.000 A 
ATOM     11  C   UNL     1       5.133   4.050  15.888  0.00  0.00    +0.000 A 
ATOM     12  C   UNL     1       4.149   4.366  16.834  0.00  0.00    +0.000 A 
ENDBRANCH   6   7
BRANCH   3  13
ATOM     13  C   UNL     1       1.343   7.994  20.397  0.00  0.00    +0.000 C 
ATOM     14  O   UNL     1       0.709   8.050  21.447  0.00  0.00    +0.000 OA
ATOM     15  N   UNL     1       1.385   9.022  19.476  0.00  0.00    +0.000 N 
ATOM     16  H   UNL     1       2.000   8.848  18.685  0.00  0.00    +0.000 HD
BRANCH  15  17
ATOM     17  C   UNL     1       0.694  10.311  19.601  0.00  0.00    +0.000 C 
ATOM     18  C   UNL     1       0.799  10.886  21.037  0.00  0.00    +0.000 C 
ATOM     19  C   UNL     1       0.115  12.264  21.127  0.00  0.00    +0.000 C 
ATOM     20  C   UNL     1       0.795  13.237  20.150  0.00  0.00    +0.000 C 
ATOM     21  C   UNL     1       0.680  12.705  18.715  0.00  0.00    +0.000 C 
ATOM     22  C   UNL     1      -0.805  12.564  18.344  0.00  0.00    +0.000 C 
ATOM     23  C   UNL     1      -1.493  11.586  19.308  0.00  0.00    +0.000 C 
ATOM     24  C   UNL     1      -1.370  12.123  20.744  0.00  0.00    +0.000 C 
ATOM     25  C   UNL     1      -0.807  10.210  19.216  0.00  0.00    +0.000 C 
ATOM     26  C   UNL     1       1.359  11.324  18.630  0.00  0.00    +0.000 C 
ENDBRANCH  15  17
ENDBRANCH   3  13
BRANCH   1  28
ATOM     27  C   UNL     1       2.109   2.851  21.512  0.00  0.00    +0.000 C 
ATOM     28  C   UNL     1       3.073   3.333  20.436  0.00  0.00    +0.000 C 
ENDBRANCH   1  28
TORSDOF 4
ENDMDL
