MODEL 1
REMARK VINA RESULT:      -7.0      0.000      0.000
REMARK  Name = 
REMARK  8 active torsions:
REMARK  status: ('A' for Active; 'I' for Inactive)
REMARK    1  A    between atoms: C_1  and  O_2
REMARK    2  A    between atoms: O_2  and  C_3
REMARK    3  A    between atoms: C_6  and  O_7
REMARK    4  A    between atoms: O_7  and  C_8
REMARK    5  A    between atoms: C_8  and  C_9
REMARK    6  A    between atoms: C_9  and  S_10
REMARK    7  A    between atoms: S_10  and  C_11
REMARK    8  A    between atoms: C_11  and  C_12
REMARK                            x       y       z     vdW  Elec       q    Type
REMARK                         _______ _______ _______ _____ _____    ______ ____
ROOT
ATOM      1  C   UNL     1       3.031   7.513  17.988  0.00  0.00    +0.000 A 
ATOM      2  C   UNL     1       2.708   6.729  19.028  0.00  0.00    +0.000 A 
ATOM      3  C   UNL     1       1.865   7.271  20.117  0.00  0.00    +0.000 A 
ATOM      4  O   UNL     1       1.550   6.524  21.036  0.00  0.00    +0.000 OA
ATOM      5  N   UNL     1       1.493   8.584  19.958  0.00  0.00    +0.000 N 
ATOM      6  C   UNL     1       0.713   9.334  20.828  0.00  0.00    +0.000 A 
ATOM      7  C   UNL     1       0.467  10.581  20.393  0.00  0.00    +0.000 A 
ATOM      8  S   UNL     1       1.215  10.894  18.855  0.00  0.00    +0.000 S 
ATOM      9  C   UNL     1       1.873   9.267  18.821  0.00  0.00    +0.000 A 
ATOM     10  N   UNL     1       2.591   8.812  17.851  0.00  0.00    +0.000 NA
ATOM     11  C   UNL     1      -0.366  11.590  21.111  0.00  0.00    +0.000 C 
ATOM     12  C   UNL     1      -1.179  10.943  22.242  0.00  0.00    +0.000 C 
ATOM     13  C   UNL     1      -0.330   9.948  23.034  0.00  0.00    +0.000 C 
ATOM     14  C   UNL     1       0.199   8.816  22.138  0.00  0.00    +0.000 C 
ENDROOT
BRANCH   1  15
ATOM     15  C   UNL     1       3.853   6.972  16.840  0.00  0.00    +0.000 C 
BRANCH  15  16
ATOM     16  S   UNL     1       5.575   6.681  17.375  0.00  0.00    +0.000 S 
BRANCH  16  17
ATOM     17  C   UNL     1       6.111   5.472  16.107  0.00  0.00    +0.000 C 
BRANCH  17  18
ATOM     18  C   UNL     1       5.032   4.441  15.793  0.00  0.00    +0.000 C 
BRANCH  18  19
ATOM     19  O   UNL     1       5.091   3.360  16.730  0.00  0.00    +0.000 OA
BRANCH  19  23
ATOM     20  C   UNL     1       1.902   3.065  19.417  0.00  0.00    +0.000 A 
ATOM     21  C   UNL     1       3.225   2.872  19.816  0.00  0.00    +0.000 A 
ATOM     22  C   UNL     1       4.272   2.997  18.897  0.00  0.00    +0.000 A 
ATOM     23  C   UNL     1       4.000   3.277  17.559  0.00  0.00    +0.000 A 
ATOM     24  C   UNL     1       2.675   3.472  17.160  0.00  0.00    +0.000 A 
ATOM     25  C   UNL     1       1.631   3.361  18.083  0.00  0.00    +0.000 A 
BRANCH  20  27
ATOM     26  C   UNL     1       1.454   2.885  21.728  0.00  0.00    +0.000 C 
ATOM     27  O   UNL     1       0.958   2.910  20.394  0.00  0.00    +0.000 OA
ENDBRANCH  20  27
ENDBRANCH  19  23
ENDBRANCH  18  19
ENDBRANCH  17  18
ENDBRANCH  16  17
ENDBRANCH  15  16
ENDBRANCH   1  15
TORSDOF 7
ENDMDL
MODEL 2
REMARK VINA RESULT:      -7.0      2.637      4.593
REMARK  Name = 
REMARK  8 active torsions:
REMARK  status: ('A' for Active; 'I' for Inactive)
REMARK    1  A    between atoms: C_1  and  O_2
REMARK    2  A    between atoms: O_2  and  C_3
REMARK    3  A    between atoms: C_6  and  O_7
REMARK    4  A    between atoms: O_7  and  C_8
REMARK    5  A    between atoms: C_8  and  C_9
REMARK    6  A    between atoms: C_9  and  S_10
REMARK    7  A    between atoms: S_10  and  C_11
REMARK    8  A    between atoms: C_11  and  C_12
REMARK                            x       y       z     vdW  Elec       q    Type
REMARK                         _______ _______ _______ _____ _____    ______ ____
ROOT
ATOM      1  C   UNL     1       2.273   7.203  19.706  0.00  0.00    +0.000 A 
ATOM      2  C   UNL     1       2.402   7.918  18.578  0.00  0.00    +0.000 A 
ATOM      3  C   UNL     1       1.693   9.211  18.447  0.00  0.00    +0.000 A 
ATOM      4  O   UNL     1       1.858   9.865  17.424  0.00  0.00    +0.000 OA
ATOM      5  N   UNL     1       0.927   9.560  19.534  0.00  0.00    +0.000 N 
ATOM      6  C   UNL     1       0.162  10.710  19.671  0.00  0.00    +0.000 A 
ATOM      7  C   UNL     1      -0.445  10.814  20.864  0.00  0.00    +0.000 A 
ATOM      8  S   UNL     1      -0.097   9.457  21.894  0.00  0.00    +0.000 S 
ATOM      9  C   UNL     1       0.909   8.742  20.645  0.00  0.00    +0.000 A 
ATOM     10  N   UNL     1       1.530   7.621  20.789  0.00  0.00    +0.000 NA
ATOM     11  C   UNL     1      -1.303  11.959  21.293  0.00  0.00    +0.000 C 
ATOM     12  C   UNL     1      -1.151  13.157  20.345  0.00  0.00    +0.000 C 
ATOM     13  C   UNL     1      -1.147  12.709  18.883  0.00  0.00    +0.000 C 
ATOM     14  C   UNL     1       0.010  11.739  18.592  0.00  0.00    +0.000 C 
ENDROOT
BRANCH   1  15
ATOM     15  C   UNL     1       3.019   5.901  19.884  0.00  0.00    +0.000 C 
BRANCH  15  16
ATOM     16  S   UNL     1       1.903   4.485  19.596  0.00  0.00    +0.000 S 
BRANCH  16  17
ATOM     17  C   UNL     1       3.129   3.144  19.361  0.00  0.00    +0.000 C 
BRANCH  17  18
ATOM     18  C   UNL     1       4.226   3.525  18.372  0.00  0.00    +0.000 C 
BRANCH  18  19
ATOM     19  O   UNL     1       5.465   3.730  19.061  0.00  0.00    +0.000 OA
BRANCH  19  23
ATOM     20  C   UNL     1       7.422   7.149  17.662  0.00  0.00    +0.000 A 
ATOM     21  C   UNL     1       6.253   6.672  17.068  0.00  0.00    +0.000 A 
ATOM     22  C   UNL     1       5.611   5.537  17.573  0.00  0.00    +0.000 A 
ATOM     23  C   UNL     1       6.156   4.844  18.651  0.00  0.00    +0.000 A 
ATOM     24  C   UNL     1       7.327   5.322  19.246  0.00  0.00    +0.000 A 
ATOM     25  C   UNL     1       7.960   6.466  18.750  0.00  0.00    +0.000 A 
BRANCH  20  27
ATOM     26  C   UNL     1       8.154   9.376  17.948  0.00  0.00    +0.000 C 
ATOM     27  O   UNL     1       7.972   8.259  17.083  0.00  0.00    +0.000 OA
ENDBRANCH  20  27
ENDBRANCH  19  23
ENDBRANCH  18  19
ENDBRANCH  17  18
ENDBRANCH  16  17
ENDBRANCH  15  16
ENDBRANCH   1  15
TORSDOF 7
ENDMDL
MODEL 3
REMARK VINA RESULT:      -7.0      2.445      4.302
REMARK  Name = 
REMARK  8 active torsions:
REMARK  status: ('A' for Active; 'I' for Inactive)
REMARK    1  A    between atoms: C_1  and  O_2
REMARK    2  A    between atoms: O_2  and  C_3
REMARK    3  A    between atoms: C_6  and  O_7
REMARK    4  A    between atoms: O_7  and  C_8
REMARK    5  A    between atoms: C_8  and  C_9
REMARK    6  A    between atoms: C_9  and  S_10
REMARK    7  A    between atoms: S_10  and  C_11
REMARK    8  A    between atoms: C_11  and  C_12
REMARK                            x       y       z     vdW  Elec       q    Type
REMARK                         _______ _______ _______ _____ _____    ______ ____
ROOT
ATOM      1  C   UNL     1       2.221   6.694  19.351  0.00  0.00    +0.000 A 
ATOM      2  C   UNL     1       2.373   7.496  18.286  0.00  0.00    +0.000 A 
ATOM      3  C   UNL     1       1.924   8.904  18.361  0.00  0.00    +0.000 A 
ATOM      4  O   UNL     1       2.110   9.627  17.389  0.00  0.00    +0.000 OA
ATOM      5  N   UNL     1       1.356   9.264  19.560  0.00  0.00    +0.000 N 
ATOM      6  C   UNL     1       0.850  10.513  19.893  0.00  0.00    +0.000 A 
ATOM      7  C   UNL     1       0.399  10.592  21.156  0.00  0.00    +0.000 A 
ATOM      8  S   UNL     1       0.576   9.087  22.007  0.00  0.00    +0.000 S 
ATOM      9  C   UNL     1       1.289   8.343  20.585  0.00  0.00    +0.000 A 
ATOM     10  N   UNL     1       1.690   7.118  20.550  0.00  0.00    +0.000 NA
ATOM     11  C   UNL     1      -0.168  11.821  21.788  0.00  0.00    +0.000 C 
ATOM     12  C   UNL     1       0.119  13.069  20.942  0.00  0.00    +0.000 C 
ATOM     13  C   UNL     1      -0.113  12.796  19.455  0.00  0.00    +0.000 C 
ATOM     14  C   UNL     1       0.795  11.668  18.938  0.00  0.00    +0.000 C 
ENDROOT
BRANCH   1  15
ATOM     15  C   UNL     1       2.711   5.265  19.318  0.00  0.00    +0.000 C 
BRANCH  15  16
ATOM     16  S   UNL     1       1.818   4.318  18.038  0.00  0.00    +0.000 S 
BRANCH  16  17
ATOM     17  C   UNL     1       2.859   2.812  17.958  0.00  0.00    +0.000 C 
BRANCH  17  18
ATOM     18  C   UNL     1       4.348   3.130  18.037  0.00  0.00    +0.000 C 
BRANCH  18  19
ATOM     19  O   UNL     1       4.747   3.922  16.912  0.00  0.00    +0.000 OA
BRANCH  19  23
ATOM     20  C   UNL     1       7.473   6.900  17.995  0.00  0.00    +0.000 A 
ATOM     21  C   UNL     1       7.507   5.626  18.563  0.00  0.00    +0.000 A 
ATOM     22  C   UNL     1       6.592   4.645  18.164  0.00  0.00    +0.000 A 
ATOM     23  C   UNL     1       5.610   4.943  17.223  0.00  0.00    +0.000 A 
ATOM     24  C   UNL     1       5.577   6.219  16.654  0.00  0.00    +0.000 A 
ATOM     25  C   UNL     1       6.500   7.195  17.042  0.00  0.00    +0.000 A 
BRANCH  20  27
ATOM     26  C   UNL     1       8.224   9.138  18.060  0.00  0.00    +0.000 C 
ATOM     27  O   UNL     1       8.405   7.784  18.464  0.00  0.00    +0.000 OA
ENDBRANCH  20  27
ENDBRANCH  19  23
ENDBRANCH  18  19
ENDBRANCH  17  18
ENDBRANCH  16  17
ENDBRANCH  15  16
ENDBRANCH   1  15
TORSDOF 7
ENDMDL
MODEL 4
REMARK VINA RESULT:      -6.8      2.240      4.140
REMARK  Name = 
REMARK  8 active torsions:
REMARK  status: ('A' for Active; 'I' for Inactive)
REMARK    1  A    between atoms: C_1  and  O_2
REMARK    2  A    between atoms: O_2  and  C_3
REMARK    3  A    between atoms: C_6  and  O_7
REMARK    4  A    between atoms: O_7  and  C_8
REMARK    5  A    between atoms: C_8  and  C_9
REMARK    6  A    between atoms: C_9  and  S_10
REMARK    7  A    between atoms: S_10  and  C_11
REMARK    8  A    between atoms: C_11  and  C_12
REMARK                            x       y       z     vdW  Elec       q    Type
REMARK                         _______ _______ _______ _____ _____    ______ ____
ROOT
ATOM      1  C   UNL     1       2.125   6.808  19.909  0.00  0.00    +0.000 A 
ATOM      2  C   UNL     1       2.327   7.443  18.744  0.00  0.00    +0.000 A 
ATOM      3  C   UNL     1       1.845   8.832  18.576  0.00  0.00    +0.000 A 
ATOM      4  O   UNL     1       2.076   9.404  17.517  0.00  0.00    +0.000 OA
ATOM      5  N   UNL     1       1.197   9.354  19.670  0.00  0.00    +0.000 N 
ATOM      6  C   UNL     1       0.646  10.623  19.778  0.00  0.00    +0.000 A 
ATOM      7  C   UNL     1       0.116  10.880  20.985  0.00  0.00    +0.000 A 
ATOM      8  S   UNL     1       0.270   9.527  22.066  0.00  0.00    +0.000 S 
ATOM      9  C   UNL     1       1.086   8.597  20.819  0.00  0.00    +0.000 A 
ATOM     10  N   UNL     1       1.512   7.393  20.996  0.00  0.00    +0.000 NA
ATOM     11  C   UNL     1      -0.514  12.173  21.386  0.00  0.00    +0.000 C 
ATOM     12  C   UNL     1      -0.200  13.286  20.377  0.00  0.00    +0.000 C 
ATOM     13  C   UNL     1      -0.334  12.784  18.939  0.00  0.00    +0.000 C 
ATOM     14  C   UNL     1       0.627  11.617  18.655  0.00  0.00    +0.000 C 
ENDROOT
BRANCH   1  15
ATOM     15  C   UNL     1       2.645   5.405  20.124  0.00  0.00    +0.000 C 
BRANCH  15  16
ATOM     16  S   UNL     1       1.261   4.215  20.161  0.00  0.00    +0.000 S 
BRANCH  16  17
ATOM     17  C   UNL     1       1.757   3.094  18.799  0.00  0.00    +0.000 C 
BRANCH  17  18
ATOM     18  C   UNL     1       2.293   3.851  17.589  0.00  0.00    +0.000 C 
BRANCH  18  19
ATOM     19  O   UNL     1       3.517   3.261  17.137  0.00  0.00    +0.000 OA
BRANCH  19  23
ATOM     20  C   UNL     1       6.818   5.821  17.300  0.00  0.00    +0.000 A 
ATOM     21  C   UNL     1       6.478   4.986  18.366  0.00  0.00    +0.000 A 
ATOM     22  C   UNL     1       5.378   4.127  18.272  0.00  0.00    +0.000 A 
ATOM     23  C   UNL     1       4.585   4.124  17.126  0.00  0.00    +0.000 A 
ATOM     24  C   UNL     1       4.928   4.959  16.060  0.00  0.00    +0.000 A 
ATOM     25  C   UNL     1       6.036   5.807  16.148  0.00  0.00    +0.000 A 
BRANCH  20  27
ATOM     26  C   UNL     1       7.636   8.025  17.519  0.00  0.00    +0.000 C 
ATOM     27  O   UNL     1       7.905   6.627  17.501  0.00  0.00    +0.000 OA
ENDBRANCH  20  27
ENDBRANCH  19  23
ENDBRANCH  18  19
ENDBRANCH  17  18
ENDBRANCH  16  17
ENDBRANCH  15  16
ENDBRANCH   1  15
TORSDOF 7
ENDMDL
MODEL 5
REMARK VINA RESULT:      -6.8      2.217      4.529
REMARK  Name = 
REMARK  8 active torsions:
REMARK  status: ('A' for Active; 'I' for Inactive)
REMARK    1  A    between atoms: C_1  and  O_2
REMARK    2  A    between atoms: O_2  and  C_3
REMARK    3  A    between atoms: C_6  and  O_7
REMARK    4  A    between atoms: O_7  and  C_8
REMARK    5  A    between atoms: C_8  and  C_9
REMARK    6  A    between atoms: C_9  and  S_10
REMARK    7  A    between atoms: S_10  and  C_11
REMARK    8  A    between atoms: C_11  and  C_12
REMARK                            x       y       z     vdW  Elec       q    Type
REMARK                         _______ _______ _______ _____ _____    ______ ____
ROOT
ATOM      1  C   UNL     1       2.314   7.152  19.655  0.00  0.00    +0.000 A 
ATOM      2  C   UNL     1       2.383   7.874  18.526  0.00  0.00    +0.000 A 
ATOM      3  C   UNL     1       1.645   9.153  18.430  0.00  0.00    +0.000 A 
ATOM      4  O   UNL     1       1.755   9.814  17.404  0.00  0.00    +0.000 OA
ATOM      5  N   UNL     1       0.917   9.483  19.549  0.00  0.00    +0.000 N 
ATOM      6  C   UNL     1       0.136  10.617  19.722  0.00  0.00    +0.000 A 
ATOM      7  C   UNL     1      -0.424  10.705  20.940  0.00  0.00    +0.000 A 
ATOM      8  S   UNL     1      -0.008   9.351  21.948  0.00  0.00    +0.000 S 
ATOM      9  C   UNL     1       0.960   8.660  20.656  0.00  0.00    +0.000 A 
ATOM     10  N   UNL     1       1.609   7.552  20.769  0.00  0.00    +0.000 NA
ATOM     11  C   UNL     1      -1.285  11.831  21.408  0.00  0.00    +0.000 C 
ATOM     12  C   UNL     1      -1.196  13.036  20.460  0.00  0.00    +0.000 C 
ATOM     13  C   UNL     1      -1.242  12.593  18.997  0.00  0.00    +0.000 C 
ATOM     14  C   UNL     1      -0.080  11.647  18.654  0.00  0.00    +0.000 C 
ENDROOT
BRANCH   1  15
ATOM     15  C   UNL     1       3.093   5.864  19.796  0.00  0.00    +0.000 C 
BRANCH  15  16
ATOM     16  S   UNL     1       2.020   4.544  20.459  0.00  0.00    +0.000 S 
BRANCH  16  17
ATOM     17  C   UNL     1       3.031   3.069  20.059  0.00  0.00    +0.000 C 
BRANCH  17  18
ATOM     18  C   UNL     1       4.307   3.426  19.305  0.00  0.00    +0.000 C 
BRANCH  18  19
ATOM     19  O   UNL     1       4.112   3.266  17.895  0.00  0.00    +0.000 OA
BRANCH  19  23
ATOM     20  C   UNL     1       6.984   4.963  15.376  0.00  0.00    +0.000 A 
ATOM     21  C   UNL     1       5.955   4.157  14.886  0.00  0.00    +0.000 A 
ATOM     22  C   UNL     1       4.998   3.619  15.753  0.00  0.00    +0.000 A 
ATOM     23  C   UNL     1       5.085   3.852  17.124  0.00  0.00    +0.000 A 
ATOM     24  C   UNL     1       6.114   4.660  17.614  0.00  0.00    +0.000 A 
ATOM     25  C   UNL     1       7.062   5.208  16.744  0.00  0.00    +0.000 A 
BRANCH  20  27
ATOM     26  C   UNL     1       7.571   5.091  13.092  0.00  0.00    +0.000 C 
ATOM     27  O   UNL     1       7.869   5.427  14.444  0.00  0.00    +0.000 OA
ENDBRANCH  20  27
ENDBRANCH  19  23
ENDBRANCH  18  19
ENDBRANCH  17  18
ENDBRANCH  16  17
ENDBRANCH  15  16
ENDBRANCH   1  15
TORSDOF 7
ENDMDL
MODEL 6
REMARK VINA RESULT:      -6.7      2.416      4.417
REMARK  Name = 
REMARK  8 active torsions:
REMARK  status: ('A' for Active; 'I' for Inactive)
REMARK    1  A    between atoms: C_1  and  O_2
REMARK    2  A    between atoms: O_2  and  C_3
REMARK    3  A    between atoms: C_6  and  O_7
REMARK    4  A    between atoms: O_7  and  C_8
REMARK    5  A    between atoms: C_8  and  C_9
REMARK    6  A    between atoms: C_9  and  S_10
REMARK    7  A    between atoms: S_10  and  C_11
REMARK    8  A    between atoms: C_11  and  C_12
REMARK                            x       y       z     vdW  Elec       q    Type
REMARK                         _______ _______ _______ _____ _____    ______ ____
ROOT
ATOM      1  C   UNL     1       1.420   8.393  20.437  0.00  0.00    +0.000 A 
ATOM      2  C   UNL     1       1.317   8.525  21.769  0.00  0.00    +0.000 A 
ATOM      3  C   UNL     1       0.475   9.602  22.334  0.00  0.00    +0.000 A 
ATOM      4  O   UNL     1       0.366   9.677  23.552  0.00  0.00    +0.000 OA
ATOM      5  N   UNL     1      -0.134  10.407  21.401  0.00  0.00    +0.000 N 
ATOM      6  C   UNL     1      -0.968  11.486  21.657  0.00  0.00    +0.000 A 
ATOM      7  C   UNL     1      -1.462  12.061  20.549  0.00  0.00    +0.000 A 
ATOM      8  S   UNL     1      -0.897  11.280  19.102  0.00  0.00    +0.000 S 
ATOM      9  C   UNL     1       0.035  10.139  20.058  0.00  0.00    +0.000 A 
ATOM     10  N   UNL     1       0.748   9.197  19.541  0.00  0.00    +0.000 NA
ATOM     11  C   UNL     1      -2.406  13.218  20.531  0.00  0.00    +0.000 C 
ATOM     12  C   UNL     1      -3.005  13.473  21.921  0.00  0.00    +0.000 C 
ATOM     13  C   UNL     1      -1.938  13.372  23.012  0.00  0.00    +0.000 C 
ATOM     14  C   UNL     1      -1.284  11.980  23.037  0.00  0.00    +0.000 C 
ENDROOT
BRANCH   1  15
ATOM     15  C   UNL     1       2.238   7.275  19.832  0.00  0.00    +0.000 C 
BRANCH  15  16
ATOM     16  S   UNL     1       1.846   5.690  20.649  0.00  0.00    +0.000 S 
BRANCH  16  17
ATOM     17  C   UNL     1       1.999   4.543  19.229  0.00  0.00    +0.000 C 
BRANCH  17  18
ATOM     18  C   UNL     1       3.335   3.809  19.215  0.00  0.00    +0.000 C 
BRANCH  18  19
ATOM     19  O   UNL     1       3.880   3.794  17.890  0.00  0.00    +0.000 OA
BRANCH  19  23
ATOM     20  C   UNL     1       6.876   6.624  17.188  0.00  0.00    +0.000 A 
ATOM     21  C   UNL     1       5.586   6.771  16.676  0.00  0.00    +0.000 A 
ATOM     22  C   UNL     1       4.600   5.816  16.945  0.00  0.00    +0.000 A 
ATOM     23  C   UNL     1       4.907   4.683  17.697  0.00  0.00    +0.000 A 
ATOM     24  C   UNL     1       6.199   4.537  18.210  0.00  0.00    +0.000 A 
ATOM     25  C   UNL     1       7.180   5.500  17.952  0.00  0.00    +0.000 A 
BRANCH  20  27
ATOM     26  C   UNL     1       7.858   8.687  17.782  0.00  0.00    +0.000 C 
ATOM     27  O   UNL     1       7.763   7.610  16.856  0.00  0.00    +0.000 OA
ENDBRANCH  20  27
ENDBRANCH  19  23
ENDBRANCH  18  19
ENDBRANCH  17  18
ENDBRANCH  16  17
ENDBRANCH  15  16
ENDBRANCH   1  15
TORSDOF 7
ENDMDL
MODEL 7
REMARK VINA RESULT:      -6.7      2.281      4.408
REMARK  Name = 
REMARK  8 active torsions:
REMARK  status: ('A' for Active; 'I' for Inactive)
REMARK    1  A    between atoms: C_1  and  O_2
REMARK    2  A    between atoms: O_2  and  C_3
REMARK    3  A    between atoms: C_6  and  O_7
REMARK    4  A    between atoms: O_7  and  C_8
REMARK    5  A    between atoms: C_8  and  C_9
REMARK    6  A    between atoms: C_9  and  S_10
REMARK    7  A    between atoms: S_10  and  C_11
REMARK    8  A    between atoms: C_11  and  C_12
REMARK                            x       y       z     vdW  Elec       q    Type
REMARK                         _______ _______ _______ _____ _____    ______ ____
ROOT
ATOM      1  C   UNL     1       1.336   8.424  20.492  0.00  0.00    +0.000 A 
ATOM      2  C   UNL     1       1.259   8.546  21.826  0.00  0.00    +0.000 A 
ATOM      3  C   UNL     1       0.403   9.599  22.416  0.00  0.00    +0.000 A 
ATOM      4  O   UNL     1       0.318   9.665  23.637  0.00  0.00    +0.000 OA
ATOM      5  N   UNL     1      -0.246  10.393  21.501  0.00  0.00    +0.000 N 
ATOM      6  C   UNL     1      -1.101  11.450  21.782  0.00  0.00    +0.000 A 
ATOM      7  C   UNL     1      -1.632  12.019  20.687  0.00  0.00    +0.000 A 
ATOM      8  S   UNL     1      -1.080  11.260  19.224  0.00  0.00    +0.000 S 
ATOM      9  C   UNL     1      -0.100  10.137  20.153  0.00  0.00    +0.000 A 
ATOM     10  N   UNL     1       0.625   9.216  19.616  0.00  0.00    +0.000 NA
ATOM     11  C   UNL     1      -2.605  13.153  20.697  0.00  0.00    +0.000 C 
ATOM     12  C   UNL     1      -3.180  13.385  22.101  0.00  0.00    +0.000 C 
ATOM     13  C   UNL     1      -2.087  13.305  23.168  0.00  0.00    +0.000 C 
ATOM     14  C   UNL     1      -1.399  11.930  23.171  0.00  0.00    +0.000 C 
ENDROOT
BRANCH   1  15
ATOM     15  C   UNL     1       2.167   7.330  19.863  0.00  0.00    +0.000 C 
BRANCH  15  16
ATOM     16  S   UNL     1       1.754   5.714  20.606  0.00  0.00    +0.000 S 
BRANCH  16  17
ATOM     17  C   UNL     1       1.889   4.632  19.133  0.00  0.00    +0.000 C 
BRANCH  17  18
ATOM     18  C   UNL     1       3.091   3.696  19.207  0.00  0.00    +0.000 C 
BRANCH  18  19
ATOM     19  O   UNL     1       4.270   4.429  19.558  0.00  0.00    +0.000 OA
BRANCH  19  23
ATOM     20  C   UNL     1       6.850   4.809  16.291  0.00  0.00    +0.000 A 
ATOM     21  C   UNL     1       5.520   4.413  16.140  0.00  0.00    +0.000 A 
ATOM     22  C   UNL     1       4.677   4.314  17.252  0.00  0.00    +0.000 A 
ATOM     23  C   UNL     1       5.168   4.572  18.530  0.00  0.00    +0.000 A 
ATOM     24  C   UNL     1       6.499   4.970  18.680  0.00  0.00    +0.000 A 
ATOM     25  C   UNL     1       7.338   5.082  17.566  0.00  0.00    +0.000 A 
BRANCH  20  27
ATOM     26  C   UNL     1       6.863   4.640  13.936  0.00  0.00    +0.000 C 
ATOM     27  O   UNL     1       7.588   4.863  15.141  0.00  0.00    +0.000 OA
ENDBRANCH  20  27
ENDBRANCH  19  23
ENDBRANCH  18  19
ENDBRANCH  17  18
ENDBRANCH  16  17
ENDBRANCH  15  16
ENDBRANCH   1  15
TORSDOF 7
ENDMDL
MODEL 8
REMARK VINA RESULT:      -6.5      2.120      4.201
REMARK  Name = 
REMARK  8 active torsions:
REMARK  status: ('A' for Active; 'I' for Inactive)
REMARK    1  A    between atoms: C_1  and  O_2
REMARK    2  A    between atoms: O_2  and  C_3
REMARK    3  A    between atoms: C_6  and  O_7
REMARK    4  A    between atoms: O_7  and  C_8
REMARK    5  A    between atoms: C_8  and  C_9
REMARK    6  A    between atoms: C_9  and  S_10
REMARK    7  A    between atoms: S_10  and  C_11
REMARK    8  A    between atoms: C_11  and  C_12
REMARK                            x       y       z     vdW  Elec       q    Type
REMARK                         _______ _______ _______ _____ _____    ______ ____
ROOT
ATOM      1  C   UNL     1       1.484   8.276  20.257  0.00  0.00    +0.000 A 
ATOM      2  C   UNL     1       1.150   8.220  21.556  0.00  0.00    +0.000 A 
ATOM      3  C   UNL     1       0.371   9.323  22.159  0.00  0.00    +0.000 A 
ATOM      4  O   UNL     1       0.045   9.230  23.337  0.00  0.00    +0.000 OA
ATOM      5  N   UNL     1       0.065  10.350  21.298  0.00  0.00    +0.000 N 
ATOM      6  C   UNL     1      -0.647  11.502  21.604  0.00  0.00    +0.000 A 
ATOM      7  C   UNL     1      -0.839  12.313  20.551  0.00  0.00    +0.000 A 
ATOM      8  S   UNL     1      -0.123  11.677  19.100  0.00  0.00    +0.000 S 
ATOM      9  C   UNL     1       0.447  10.265  19.975  0.00  0.00    +0.000 A 
ATOM     10  N   UNL     1       1.109   9.307  19.422  0.00  0.00    +0.000 NA
ATOM     11  C   UNL     1      -1.596  13.599  20.587  0.00  0.00    +0.000 C 
ATOM     12  C   UNL     1      -2.407  13.736  21.883  0.00  0.00    +0.000 C 
ATOM     13  C   UNL     1      -1.589  13.295  23.097  0.00  0.00    +0.000 C 
ATOM     14  C   UNL     1      -1.148  11.827  22.980  0.00  0.00    +0.000 C 
ENDROOT
BRANCH   1  15
ATOM     15  C   UNL     1       2.240   7.143  19.604  0.00  0.00    +0.000 C 
BRANCH  15  16
ATOM     16  S   UNL     1       1.988   5.593  20.535  0.00  0.00    +0.000 S 
BRANCH  16  17
ATOM     17  C   UNL     1       1.758   4.414  19.151  0.00  0.00    +0.000 C 
BRANCH  17  18
ATOM     18  C   UNL     1       2.915   3.429  19.027  0.00  0.00    +0.000 C 
BRANCH  18  19
ATOM     19  O   UNL     1       4.156   4.083  19.317  0.00  0.00    +0.000 OA
BRANCH  19  23
ATOM     20  C   UNL     1       6.601   5.032  16.061  0.00  0.00    +0.000 A 
ATOM     21  C   UNL     1       7.069   5.079  17.375  0.00  0.00    +0.000 A 
ATOM     22  C   UNL     1       6.231   4.736  18.441  0.00  0.00    +0.000 A 
ATOM     23  C   UNL     1       4.905   4.382  18.205  0.00  0.00    +0.000 A 
ATOM     24  C   UNL     1       4.437   4.334  16.890  0.00  0.00    +0.000 A 
ATOM     25  C   UNL     1       5.279   4.663  15.823  0.00  0.00    +0.000 A 
BRANCH  20  27
ATOM     26  C   UNL     1       7.269   4.846  13.803  0.00  0.00    +0.000 C 
ATOM     27  O   UNL     1       7.499   5.396  15.097  0.00  0.00    +0.000 OA
ENDBRANCH  20  27
ENDBRANCH  19  23
ENDBRANCH  18  19
ENDBRANCH  17  18
ENDBRANCH  16  17
ENDBRANCH  15  16
ENDBRANCH   1  15
TORSDOF 7
ENDMDL
MODEL 9
REMARK VINA RESULT:      -6.5      2.243      4.398
REMARK  Name = 
REMARK  8 active torsions:
REMARK  status: ('A' for Active; 'I' for Inactive)
REMARK    1  A    between atoms: C_1  and  O_2
REMARK    2  A    between atoms: O_2  and  C_3
REMARK    3  A    between atoms: C_6  and  O_7
REMARK    4  A    between atoms: O_7  and  C_8
REMARK    5  A    between atoms: C_8  and  C_9
REMARK    6  A    between atoms: C_9  and  S_10
REMARK    7  A    between atoms: S_10  and  C_11
REMARK    8  A    between atoms: C_11  and  C_12
REMARK                            x       y       z     vdW  Elec       q    Type
REMARK                         _______ _______ _______ _____ _____    ______ ____
ROOT
ATOM      1  C   UNL     1       1.939   7.653  19.854  0.00  0.00    +0.000 A 
ATOM      2  C   UNL     1       1.826   8.589  18.898  0.00  0.00    +0.000 A 
ATOM      3  C   UNL     1       1.063   9.827  19.175  0.00  0.00    +0.000 A 
ATOM      4  O   UNL     1       1.007  10.683  18.300  0.00  0.00    +0.000 OA
ATOM      5  N   UNL     1       0.510   9.894  20.431  0.00  0.00    +0.000 N 
ATOM      6  C   UNL     1      -0.252  10.934  20.945  0.00  0.00    +0.000 A 
ATOM      7  C   UNL     1      -0.622  10.751  22.222  0.00  0.00    +0.000 A 
ATOM      8  S   UNL     1      -0.039   9.243  22.861  0.00  0.00    +0.000 S 
ATOM      9  C   UNL     1       0.732   8.869  21.328  0.00  0.00    +0.000 A 
ATOM     10  N   UNL     1       1.406   7.790  21.117  0.00  0.00    +0.000 NA
ATOM     11  C   UNL     1      -1.419  11.722  23.031  0.00  0.00    +0.000 C 
ATOM     12  C   UNL     1      -1.492  13.094  22.347  0.00  0.00    +0.000 C 
ATOM     13  C   UNL     1      -1.753  12.951  20.847  0.00  0.00    +0.000 C 
ATOM     14  C   UNL     1      -0.643  12.146  20.153  0.00  0.00    +0.000 C 
ENDROOT
BRANCH   1  15
ATOM     15  C   UNL     1       2.749   6.400  19.614  0.00  0.00    +0.000 C 
BRANCH  15  16
ATOM     16  S   UNL     1       2.250   5.089  20.784  0.00  0.00    +0.000 S 
BRANCH  16  17
ATOM     17  C   UNL     1       1.984   3.697  19.623  0.00  0.00    +0.000 C 
BRANCH  17  18
ATOM     18  C   UNL     1       2.737   3.883  18.310  0.00  0.00    +0.000 C 
BRANCH  18  19
ATOM     19  O   UNL     1       4.099   3.461  18.455  0.00  0.00    +0.000 OA
BRANCH  19  23
ATOM     20  C   UNL     1       6.789   4.973  15.635  0.00  0.00    +0.000 A 
ATOM     21  C   UNL     1       7.013   5.091  17.008  0.00  0.00    +0.000 A 
ATOM     22  C   UNL     1       6.103   4.558  17.926  0.00  0.00    +0.000 A 
ATOM     23  C   UNL     1       4.939   3.935  17.479  0.00  0.00    +0.000 A 
ATOM     24  C   UNL     1       4.716   3.816  16.105  0.00  0.00    +0.000 A 
ATOM     25  C   UNL     1       5.634   4.337  15.187  0.00  0.00    +0.000 A 
BRANCH  20  27
ATOM     26  C   UNL     1       7.677   5.163  13.455  0.00  0.00    +0.000 C 
ATOM     27  O   UNL     1       7.736   5.539  14.828  0.00  0.00    +0.000 OA
ENDBRANCH  20  27
ENDBRANCH  19  23
ENDBRANCH  18  19
ENDBRANCH  17  18
ENDBRANCH  16  17
ENDBRANCH  15  16
ENDBRANCH   1  15
TORSDOF 7
ENDMDL
