MODEL 1
REMARK VINA RESULT:      -8.0      0.000      0.000
REMARK  Name = 
REMARK  6 active torsions:
REMARK  status: ('A' for Active; 'I' for Inactive)
REMARK    1  A    between atoms: C_1  and  C_2
REMARK    2  A    between atoms: C_2  and  C_3
REMARK    3  A    between atoms: C_3  and  C_4
REMARK    4  A    between atoms: N_6  and  C_7
REMARK    5  A    between atoms: C_12  and  C_13
REMARK    6  A    between atoms: C_17  and  C_18
REMARK                            x       y       z     vdW  Elec       q    Type
REMARK                         _______ _______ _______ _____ _____    ______ ____
ROOT
ATOM      1  C   UNL     1       2.413   6.008  20.032  0.00  0.00    +0.000 A 
ATOM      2  N   UNL     1       1.773   5.237  20.931  0.00  0.00    +0.000 NA
ATOM      3  N   UNL     1       2.391   4.035  20.840  0.00  0.00    +0.000 N 
ATOM      4  C   UNL     1       1.950   2.935  21.665  0.00  0.00    +0.000 C 
ATOM      5  C   UNL     1       3.383   4.019  19.912  0.00  0.00    +0.000 A 
ATOM      6  C   UNL     1       4.251   2.986  19.488  0.00  0.00    +0.000 A 
ATOM      7  O   UNL     1       4.288   1.846  19.933  0.00  0.00    +0.000 OA
ATOM      8  N   UNL     1       5.085   3.411  18.480  0.00  0.00    +0.000 N 
ATOM      9  C   UNL     1       5.070   4.695  17.946  0.00  0.00    +0.000 A 
ATOM     10  N   UNL     1       4.280   5.649  18.355  0.00  0.00    +0.000 NA
ATOM     11  C   UNL     1       3.411   5.270  19.376  0.00  0.00    +0.000 A 
ATOM     12  H   UNL     1       5.725   2.715  18.130  0.00  0.00    +0.000 HD
ENDROOT
BRANCH   9  13
ATOM     13  C   UNL     1       5.991   4.972  16.864  0.00  0.00    +0.000 A 
ATOM     14  S   UNL     1       5.958   4.115  15.376  0.00  0.00    +0.000 S 
ATOM     15  N   UNL     1       7.208   4.992  14.715  0.00  0.00    +0.000 NA
ATOM     16  N   UNL     1       7.680   5.908  15.538  0.00  0.00    +0.000 NA
ATOM     17  C   UNL     1       7.011   5.913  16.758  0.00  0.00    +0.000 A 
ATOM     18  C   UNL     1       7.453   6.895  17.782  0.00  0.00    +0.000 C 
ENDBRANCH   9  13
BRANCH   1  19
ATOM     19  C   UNL     1       2.017   7.429  19.817  0.00  0.00    +0.000 C 
BRANCH  19  21
ATOM     20  C   UNL     1       0.683   9.381  20.688  0.00  0.00    +0.000 C 
ATOM     21  C   UNL     1       1.296   8.032  21.024  0.00  0.00    +0.000 C 
ENDBRANCH  19  21
ENDBRANCH   1  19
TORSDOF 3
ENDMDL
MODEL 2
REMARK VINA RESULT:      -7.4      1.080      1.447
REMARK  Name = 
REMARK  6 active torsions:
REMARK  status: ('A' for Active; 'I' for Inactive)
REMARK    1  A    between atoms: C_1  and  C_2
REMARK    2  A    between atoms: C_2  and  C_3
REMARK    3  A    between atoms: C_3  and  C_4
REMARK    4  A    between atoms: N_6  and  C_7
REMARK    5  A    between atoms: C_12  and  C_13
REMARK    6  A    between atoms: C_17  and  C_18
REMARK                            x       y       z     vdW  Elec       q    Type
REMARK                         _______ _______ _______ _____ _____    ______ ____
ROOT
ATOM      1  C   UNL     1       2.143   6.064  20.219  0.00  0.00    +0.000 A 
ATOM      2  N   UNL     1       1.460   5.191  20.982  0.00  0.00    +0.000 NA
ATOM      3  N   UNL     1       2.135   4.025  20.842  0.00  0.00    +0.000 N 
ATOM      4  C   UNL     1       1.671   2.837  21.519  0.00  0.00    +0.000 C 
ATOM      5  C   UNL     1       3.206   4.131  20.011  0.00  0.00    +0.000 A 
ATOM      6  C   UNL     1       4.153   3.173  19.579  0.00  0.00    +0.000 A 
ATOM      7  O   UNL     1       4.200   1.998  19.921  0.00  0.00    +0.000 OA
ATOM      8  N   UNL     1       5.054   3.720  18.695  0.00  0.00    +0.000 N 
ATOM      9  C   UNL     1       5.031   5.047  18.280  0.00  0.00    +0.000 A 
ATOM     10  N   UNL     1       4.166   5.930  18.697  0.00  0.00    +0.000 NA
ATOM     11  C   UNL     1       3.227   5.426  19.595  0.00  0.00    +0.000 A 
ATOM     12  H   UNL     1       5.753   3.083  18.345  0.00  0.00    +0.000 HD
ENDROOT
BRANCH   9  13
ATOM     13  C   UNL     1       6.031   5.456  17.317  0.00  0.00    +0.000 A 
ATOM     14  S   UNL     1       7.046   6.820  17.557  0.00  0.00    +0.000 S 
ATOM     15  N   UNL     1       7.870   6.599  16.129  0.00  0.00    +0.000 NA
ATOM     16  N   UNL     1       7.438   5.555  15.447  0.00  0.00    +0.000 NA
ATOM     17  C   UNL     1       6.399   4.897  16.097  0.00  0.00    +0.000 A 
ATOM     18  C   UNL     1       5.814   3.706  15.428  0.00  0.00    +0.000 C 
ENDBRANCH   9  13
BRANCH   1  19
ATOM     19  C   UNL     1       1.706   7.484  20.097  0.00  0.00    +0.000 C 
BRANCH  19  21
ATOM     20  C   UNL     1      -0.046   8.845  21.293  0.00  0.00    +0.000 C 
ATOM     21  C   UNL     1       1.262   8.084  21.433  0.00  0.00    +0.000 C 
ENDBRANCH  19  21
ENDBRANCH   1  19
TORSDOF 3
ENDMDL
MODEL 3
REMARK VINA RESULT:      -7.2      2.068      3.508
REMARK  Name = 
REMARK  6 active torsions:
REMARK  status: ('A' for Active; 'I' for Inactive)
REMARK    1  A    between atoms: C_1  and  C_2
REMARK    2  A    between atoms: C_2  and  C_3
REMARK    3  A    between atoms: C_3  and  C_4
REMARK    4  A    between atoms: N_6  and  C_7
REMARK    5  A    between atoms: C_12  and  C_13
REMARK    6  A    between atoms: C_17  and  C_18
REMARK                            x       y       z     vdW  Elec       q    Type
REMARK                         _______ _______ _______ _____ _____    ______ ____
ROOT
ATOM      1  C   UNL     1       2.389   5.085  20.396  0.00  0.00    +0.000 A 
ATOM      2  N   UNL     1       1.529   5.963  20.948  0.00  0.00    +0.000 NA
ATOM      3  N   UNL     1       1.657   7.077  20.189  0.00  0.00    +0.000 N 
ATOM      4  C   UNL     1       0.882   8.254  20.502  0.00  0.00    +0.000 C 
ATOM      5  C   UNL     1       2.571   6.937  19.192  0.00  0.00    +0.000 A 
ATOM      6  C   UNL     1       3.020   7.841  18.202  0.00  0.00    +0.000 A 
ATOM      7  O   UNL     1       2.619   8.986  18.032  0.00  0.00    +0.000 OA
ATOM      8  N   UNL     1       3.999   7.279  17.415  0.00  0.00    +0.000 N 
ATOM      9  C   UNL     1       4.484   5.986  17.579  0.00  0.00    +0.000 A 
ATOM     10  N   UNL     1       4.051   5.151  18.482  0.00  0.00    +0.000 NA
ATOM     11  C   UNL     1       3.057   5.672  19.310  0.00  0.00    +0.000 A 
ATOM     12  H   UNL     1       4.366   7.879  16.692  0.00  0.00    +0.000 HD
ENDROOT
BRANCH   9  13
ATOM     13  C   UNL     1       5.540   5.558  16.688  0.00  0.00    +0.000 A 
ATOM     14  S   UNL     1       5.310   4.353  15.486  0.00  0.00    +0.000 S 
ATOM     15  N   UNL     1       6.868   4.465  14.915  0.00  0.00    +0.000 NA
ATOM     16  N   UNL     1       7.589   5.356  15.569  0.00  0.00    +0.000 NA
ATOM     17  C   UNL     1       6.861   5.982  16.576  0.00  0.00    +0.000 A 
ATOM     18  C   UNL     1       7.561   7.004  17.396  0.00  0.00    +0.000 C 
ENDBRANCH   9  13
BRANCH   1  19
ATOM     19  C   UNL     1       2.555   3.715  20.958  0.00  0.00    +0.000 C 
BRANCH  19  21
ATOM     20  C   UNL     1       0.815   2.750  19.411  0.00  0.00    +0.000 C 
ATOM     21  C   UNL     1       1.282   2.873  20.852  0.00  0.00    +0.000 C 
ENDBRANCH  19  21
ENDBRANCH   1  19
TORSDOF 3
ENDMDL
MODEL 4
REMARK VINA RESULT:      -7.0      2.993      5.786
REMARK  Name = 
REMARK  6 active torsions:
REMARK  status: ('A' for Active; 'I' for Inactive)
REMARK    1  A    between atoms: C_1  and  C_2
REMARK    2  A    between atoms: C_2  and  C_3
REMARK    3  A    between atoms: C_3  and  C_4
REMARK    4  A    between atoms: N_6  and  C_7
REMARK    5  A    between atoms: C_12  and  C_13
REMARK    6  A    between atoms: C_17  and  C_18
REMARK                            x       y       z     vdW  Elec       q    Type
REMARK                         _______ _______ _______ _____ _____    ______ ____
ROOT
ATOM      1  C   UNL     1       4.499   5.206  17.846  0.00  0.00    +0.000 A 
ATOM      2  N   UNL     1       4.842   3.934  18.122  0.00  0.00    +0.000 NA
ATOM      3  N   UNL     1       4.112   3.622  19.220  0.00  0.00    +0.000 N 
ATOM      4  C   UNL     1       4.237   2.315  19.820  0.00  0.00    +0.000 C 
ATOM      5  C   UNL     1       3.337   4.652  19.650  0.00  0.00    +0.000 A 
ATOM      6  C   UNL     1       2.453   4.763  20.749  0.00  0.00    +0.000 A 
ATOM      7  O   UNL     1       2.187   3.879  21.553  0.00  0.00    +0.000 OA
ATOM      8  N   UNL     1       1.901   6.021  20.827  0.00  0.00    +0.000 N 
ATOM      9  C   UNL     1       2.183   7.051  19.936  0.00  0.00    +0.000 A 
ATOM     10  N   UNL     1       2.984   6.937  18.913  0.00  0.00    +0.000 NA
ATOM     11  C   UNL     1       3.573   5.679  18.789  0.00  0.00    +0.000 A 
ATOM     12  H   UNL     1       1.266   6.164  21.597  0.00  0.00    +0.000 HD
ENDROOT
BRANCH   9  13
ATOM     13  C   UNL     1       1.544   8.327  20.178  0.00  0.00    +0.000 A 
ATOM     14  S   UNL     1       1.087   8.852  21.748  0.00  0.00    +0.000 S 
ATOM     15  N   UNL     1       0.502  10.314  21.211  0.00  0.00    +0.000 NA
ATOM     16  N   UNL     1       0.613  10.459  19.904  0.00  0.00    +0.000 NA
ATOM     17  C   UNL     1       1.195   9.349  19.301  0.00  0.00    +0.000 A 
ATOM     18  C   UNL     1       1.369   9.380  17.825  0.00  0.00    +0.000 C 
ENDBRANCH   9  13
BRANCH   1  19
ATOM     19  C   UNL     1       5.101   5.932  16.692  0.00  0.00    +0.000 C 
BRANCH  19  21
ATOM     20  C   UNL     1       7.241   7.025  17.452  0.00  0.00    +0.000 C 
ATOM     21  C   UNL     1       6.629   5.865  16.683  0.00  0.00    +0.000 C 
ENDBRANCH  19  21
ENDBRANCH   1  19
TORSDOF 3
ENDMDL
MODEL 5
REMARK VINA RESULT:      -7.0      2.201      6.002
REMARK  Name = 
REMARK  6 active torsions:
REMARK  status: ('A' for Active; 'I' for Inactive)
REMARK    1  A    between atoms: C_1  and  C_2
REMARK    2  A    between atoms: C_2  and  C_3
REMARK    3  A    between atoms: C_3  and  C_4
REMARK    4  A    between atoms: N_6  and  C_7
REMARK    5  A    between atoms: C_12  and  C_13
REMARK    6  A    between atoms: C_17  and  C_18
REMARK                            x       y       z     vdW  Elec       q    Type
REMARK                         _______ _______ _______ _____ _____    ______ ____
ROOT
ATOM      1  C   UNL     1       7.251   6.410  17.386  0.00  0.00    +0.000 A 
ATOM      2  N   UNL     1       7.713   6.301  16.126  0.00  0.00    +0.000 NA
ATOM      3  N   UNL     1       6.892   5.394  15.547  0.00  0.00    +0.000 N 
ATOM      4  C   UNL     1       7.101   5.008  14.171  0.00  0.00    +0.000 C 
ATOM      5  C   UNL     1       5.943   4.920  16.397  0.00  0.00    +0.000 A 
ATOM      6  C   UNL     1       4.916   3.965  16.213  0.00  0.00    +0.000 A 
ATOM      7  O   UNL     1       4.660   3.369  15.175  0.00  0.00    +0.000 OA
ATOM      8  N   UNL     1       4.204   3.763  17.374  0.00  0.00    +0.000 N 
ATOM      9  C   UNL     1       4.467   4.416  18.573  0.00  0.00    +0.000 A 
ATOM     10  N   UNL     1       5.403   5.311  18.729  0.00  0.00    +0.000 NA
ATOM     11  C   UNL     1       6.158   5.552  17.582  0.00  0.00    +0.000 A 
ATOM     12  H   UNL     1       3.460   3.085  17.308  0.00  0.00    +0.000 HD
ENDROOT
BRANCH   9  13
ATOM     13  C   UNL     1       3.646   4.064  19.711  0.00  0.00    +0.000 A 
ATOM     14  S   UNL     1       3.758   2.543  20.501  0.00  0.00    +0.000 S 
ATOM     15  N   UNL     1       2.601   2.921  21.635  0.00  0.00    +0.000 NA
ATOM     16  N   UNL     1       2.105   4.133  21.475  0.00  0.00    +0.000 NA
ATOM     17  C   UNL     1       2.678   4.795  20.393  0.00  0.00    +0.000 A 
ATOM     18  C   UNL     1       2.199   6.170  20.097  0.00  0.00    +0.000 C 
ENDBRANCH   9  13
BRANCH   1  19
ATOM     19  C   UNL     1       7.903   7.323  18.368  0.00  0.00    +0.000 C 
BRANCH  19  21
ATOM     20  C   UNL     1       8.899   9.605  18.755  0.00  0.00    +0.000 C 
ATOM     21  C   UNL     1       8.000   8.764  17.864  0.00  0.00    +0.000 C 
ENDBRANCH  19  21
ENDBRANCH   1  19
TORSDOF 3
ENDMDL
MODEL 6
REMARK VINA RESULT:      -6.9      1.602      2.051
REMARK  Name = 
REMARK  6 active torsions:
REMARK  status: ('A' for Active; 'I' for Inactive)
REMARK    1  A    between atoms: C_1  and  C_2
REMARK    2  A    between atoms: C_2  and  C_3
REMARK    3  A    between atoms: C_3  and  C_4
REMARK    4  A    between atoms: N_6  and  C_7
REMARK    5  A    between atoms: C_12  and  C_13
REMARK    6  A    between atoms: C_17  and  C_18
REMARK                            x       y       z     vdW  Elec       q    Type
REMARK                         _______ _______ _______ _____ _____    ______ ____
ROOT
ATOM      1  C   UNL     1       2.426   5.771  19.330  0.00  0.00    +0.000 A 
ATOM      2  N   UNL     1       1.618   4.957  20.034  0.00  0.00    +0.000 NA
ATOM      3  N   UNL     1       2.004   3.709  19.675  0.00  0.00    +0.000 N 
ATOM      4  C   UNL     1       1.333   2.559  20.231  0.00  0.00    +0.000 C 
ATOM      5  C   UNL     1       3.013   3.710  18.764  0.00  0.00    +0.000 A 
ATOM      6  C   UNL     1       3.691   2.649  18.118  0.00  0.00    +0.000 A 
ATOM      7  O   UNL     1       3.496   1.454  18.295  0.00  0.00    +0.000 OA
ATOM      8  N   UNL     1       4.630   3.120  17.230  0.00  0.00    +0.000 N 
ATOM      9  C   UNL     1       4.877   4.469  16.998  0.00  0.00    +0.000 A 
ATOM     10  N   UNL     1       4.262   5.442  17.612  0.00  0.00    +0.000 NA
ATOM     11  C   UNL     1       3.296   5.019  18.524  0.00  0.00    +0.000 A 
ATOM     12  H   UNL     1       5.143   2.410  16.731  0.00  0.00    +0.000 HD
ENDROOT
BRANCH   9  13
ATOM     13  C   UNL     1       5.876   4.797  16.005  0.00  0.00    +0.000 A 
ATOM     14  S   UNL     1       7.306   5.672  16.380  0.00  0.00    +0.000 S 
ATOM     15  N   UNL     1       7.891   5.603  14.824  0.00  0.00    +0.000 NA
ATOM     16  N   UNL     1       7.082   4.962  14.002  0.00  0.00    +0.000 NA
ATOM     17  C   UNL     1       5.937   4.502  14.646  0.00  0.00    +0.000 A 
ATOM     18  C   UNL     1       4.936   3.770  13.828  0.00  0.00    +0.000 C 
ENDBRANCH   9  13
BRANCH   1  19
ATOM     19  C   UNL     1       2.312   7.253  19.441  0.00  0.00    +0.000 C 
BRANCH  19  21
ATOM     20  C   UNL     1       1.461   9.226  18.125  0.00  0.00    +0.000 C 
ATOM     21  C   UNL     1       2.282   7.948  18.079  0.00  0.00    +0.000 C 
ENDBRANCH  19  21
ENDBRANCH   1  19
TORSDOF 3
ENDMDL
MODEL 7
REMARK VINA RESULT:      -6.8      2.623      5.572
REMARK  Name = 
REMARK  6 active torsions:
REMARK  status: ('A' for Active; 'I' for Inactive)
REMARK    1  A    between atoms: C_1  and  C_2
REMARK    2  A    between atoms: C_2  and  C_3
REMARK    3  A    between atoms: C_3  and  C_4
REMARK    4  A    between atoms: N_6  and  C_7
REMARK    5  A    between atoms: C_12  and  C_13
REMARK    6  A    between atoms: C_17  and  C_18
REMARK                            x       y       z     vdW  Elec       q    Type
REMARK                         _______ _______ _______ _____ _____    ______ ____
ROOT
ATOM      1  C   UNL     1       5.344   5.109  18.323  0.00  0.00    +0.000 A 
ATOM      2  N   UNL     1       5.567   3.851  18.746  0.00  0.00    +0.000 NA
ATOM      3  N   UNL     1       4.506   3.571  19.540  0.00  0.00    +0.000 N 
ATOM      4  C   UNL     1       4.414   2.288  20.194  0.00  0.00    +0.000 C 
ATOM      5  C   UNL     1       3.634   4.609  19.642  0.00  0.00    +0.000 A 
ATOM      6  C   UNL     1       2.429   4.750  20.369  0.00  0.00    +0.000 A 
ATOM      7  O   UNL     1       1.901   3.893  21.066  0.00  0.00    +0.000 OA
ATOM      8  N   UNL     1       1.889   6.005  20.208  0.00  0.00    +0.000 N 
ATOM      9  C   UNL     1       2.461   7.006  19.430  0.00  0.00    +0.000 A 
ATOM     10  N   UNL     1       3.562   6.863  18.746  0.00  0.00    +0.000 NA
ATOM     11  C   UNL     1       4.153   5.607  18.876  0.00  0.00    +0.000 A 
ATOM     12  H   UNL     1       1.029   6.170  20.709  0.00  0.00    +0.000 HD
ENDROOT
BRANCH   9  13
ATOM     13  C   UNL     1       1.782   8.284  19.393  0.00  0.00    +0.000 A 
ATOM     14  S   UNL     1       1.569   9.180  17.944  0.00  0.00    +0.000 S 
ATOM     15  N   UNL     1       0.731  10.406  18.693  0.00  0.00    +0.000 NA
ATOM     16  N   UNL     1       0.589  10.210  19.990  0.00  0.00    +0.000 NA
ATOM     17  C   UNL     1       1.178   9.020  20.408  0.00  0.00    +0.000 A 
ATOM     18  C   UNL     1       1.097   8.683  21.853  0.00  0.00    +0.000 C 
ENDBRANCH   9  13
BRANCH   1  19
ATOM     19  C   UNL     1       6.306   5.799  17.417  0.00  0.00    +0.000 C 
BRANCH  19  21
ATOM     20  C   UNL     1       7.746   7.852  17.663  0.00  0.00    +0.000 C 
ATOM     21  C   UNL     1       7.468   6.447  18.172  0.00  0.00    +0.000 C 
ENDBRANCH  19  21
ENDBRANCH   1  19
TORSDOF 3
ENDMDL
MODEL 8
REMARK VINA RESULT:      -6.8      3.148      5.748
REMARK  Name = 
REMARK  6 active torsions:
REMARK  status: ('A' for Active; 'I' for Inactive)
REMARK    1  A    between atoms: C_1  and  C_2
REMARK    2  A    between atoms: C_2  and  C_3
REMARK    3  A    between atoms: C_3  and  C_4
REMARK    4  A    between atoms: N_6  and  C_7
REMARK    5  A    between atoms: C_12  and  C_13
REMARK    6  A    between atoms: C_17  and  C_18
REMARK                            x       y       z     vdW  Elec       q    Type
REMARK                         _______ _______ _______ _____ _____    ______ ____
ROOT
ATOM      1  C   UNL     1       2.951   3.604  17.762  0.00  0.00    +0.000 A 
ATOM      2  N   UNL     1       3.923   3.017  17.038  0.00  0.00    +0.000 NA
ATOM      3  N   UNL     1       4.719   4.043  16.654  0.00  0.00    +0.000 N 
ATOM      4  C   UNL     1       5.879   3.787  15.834  0.00  0.00    +0.000 C 
ATOM      5  C   UNL     1       4.277   5.250  17.096  0.00  0.00    +0.000 A 
ATOM      6  C   UNL     1       4.785   6.557  16.912  0.00  0.00    +0.000 A 
ATOM      7  O   UNL     1       5.803   6.857  16.301  0.00  0.00    +0.000 OA
ATOM      8  N   UNL     1       3.982   7.498  17.514  0.00  0.00    +0.000 N 
ATOM      9  C   UNL     1       2.818   7.197  18.212  0.00  0.00    +0.000 A 
ATOM     10  N   UNL     1       2.366   5.988  18.395  0.00  0.00    +0.000 NA
ATOM     11  C   UNL     1       3.142   4.994  17.802  0.00  0.00    +0.000 A 
ATOM     12  H   UNL     1       4.290   8.453  17.412  0.00  0.00    +0.000 HD
ENDROOT
BRANCH   9  13
ATOM     13  C   UNL     1       2.068   8.309  18.758  0.00  0.00    +0.000 A 
ATOM     14  S   UNL     1       1.788   9.758  17.880  0.00  0.00    +0.000 S 
ATOM     15  N   UNL     1       0.892  10.454  19.098  0.00  0.00    +0.000 NA
ATOM     16  N   UNL     1       0.778   9.676  20.157  0.00  0.00    +0.000 NA
ATOM     17  C   UNL     1       1.437   8.461  19.988  0.00  0.00    +0.000 A 
ATOM     18  C   UNL     1       1.393   7.493  21.115  0.00  0.00    +0.000 C 
ENDBRANCH   9  13
BRANCH   1  19
ATOM     19  C   UNL     1       1.851   2.800  18.367  0.00  0.00    +0.000 C 
BRANCH  19  21
ATOM     20  C   UNL     1       1.133   3.460  20.691  0.00  0.00    +0.000 C 
ATOM     21  C   UNL     1       2.044   2.566  19.866  0.00  0.00    +0.000 C 
ENDBRANCH  19  21
ENDBRANCH   1  19
TORSDOF 3
ENDMDL
MODEL 9
REMARK VINA RESULT:      -6.8      1.354      1.687
REMARK  Name = 
REMARK  6 active torsions:
REMARK  status: ('A' for Active; 'I' for Inactive)
REMARK    1  A    between atoms: C_1  and  C_2
REMARK    2  A    between atoms: C_2  and  C_3
REMARK    3  A    between atoms: C_3  and  C_4
REMARK    4  A    between atoms: N_6  and  C_7
REMARK    5  A    between atoms: C_12  and  C_13
REMARK    6  A    between atoms: C_17  and  C_18
REMARK                            x       y       z     vdW  Elec       q    Type
REMARK                         _______ _______ _______ _____ _____    ______ ____
ROOT
ATOM      1  C   UNL     1       2.123   5.550  20.205  0.00  0.00    +0.000 A 
ATOM      2  N   UNL     1       1.272   4.589  20.611  0.00  0.00    +0.000 NA
ATOM      3  N   UNL     1       1.741   3.460  20.028  0.00  0.00    +0.000 N 
ATOM      4  C   UNL     1       1.055   2.206  20.231  0.00  0.00    +0.000 C 
ATOM      5  C   UNL     1       2.843   3.678  19.263  0.00  0.00    +0.000 A 
ATOM      6  C   UNL     1       3.626   2.799  18.478  0.00  0.00    +0.000 A 
ATOM      7  O   UNL     1       3.457   1.592  18.359  0.00  0.00    +0.000 OA
ATOM      8  N   UNL     1       4.639   3.469  17.832  0.00  0.00    +0.000 N 
ATOM      9  C   UNL     1       4.860   4.838  17.939  0.00  0.00    +0.000 A 
ATOM     10  N   UNL     1       4.147   5.639  18.680  0.00  0.00    +0.000 NA
ATOM     11  C   UNL     1       3.102   5.010  19.356  0.00  0.00    +0.000 A 
ATOM     12  H   UNL     1       5.229   2.895  17.250  0.00  0.00    +0.000 HD
ENDROOT
BRANCH   9  13
ATOM     13  C   UNL     1       5.950   5.393  17.166  0.00  0.00    +0.000 A 
ATOM     14  S   UNL     1       6.964   6.646  17.759  0.00  0.00    +0.000 S 
ATOM     15  N   UNL     1       7.909   6.682  16.390  0.00  0.00    +0.000 NA
ATOM     16  N   UNL     1       7.522   5.810  15.479  0.00  0.00    +0.000 NA
ATOM     17  C   UNL     1       6.417   5.074  15.894  0.00  0.00    +0.000 A 
ATOM     18  C   UNL     1       5.874   4.059  14.954  0.00  0.00    +0.000 C 
ENDBRANCH   9  13
BRANCH   1  19
ATOM     19  C   UNL     1       1.943   6.967  20.631  0.00  0.00    +0.000 C 
BRANCH  19  21
ATOM     20  C   UNL     1       1.088   9.194  19.818  0.00  0.00    +0.000 C 
ATOM     21  C   UNL     1       1.853   7.934  19.449  0.00  0.00    +0.000 C 
ENDBRANCH  19  21
ENDBRANCH   1  19
TORSDOF 3
ENDMDL
