MODEL 1
REMARK VINA RESULT:      -8.2      0.000      0.000
REMARK  Name = 
REMARK  8 active torsions:
REMARK  status: ('A' for Active; 'I' for Inactive)
REMARK    1  A    between atoms: C_1  and  O_2
REMARK    2  A    between atoms: O_2  and  C_3
REMARK    3  A    between atoms: C_6  and  C_7
REMARK    4  A    between atoms: N_12  and  C_13
REMARK    5  A    between atoms: C_13  and  C_14
REMARK    6  A    between atoms: N_16  and  N_17
REMARK    7  A    between atoms: C_18  and  C_20
REMARK    8  A    between atoms: C_25  and  O_26
REMARK                            x       y       z     vdW  Elec       q    Type
REMARK                         _______ _______ _______ _____ _____    ______ ____
ROOT
ATOM      1  C   UNL     1       4.158   3.996  19.639  0.00  0.00    +0.000 C 
ENDROOT
BRANCH   1   7
ATOM      2  C   UNL     1       2.005   8.400  19.049  0.00  0.00    +0.000 C 
ATOM      3  C   UNL     1       2.185   7.186  19.592  0.00  0.00    +0.000 C 
ATOM      4  S   UNL     1       1.240   6.431  20.815  0.00  0.00    +0.000 S 
ATOM      5  C   UNL     1       2.162   4.938  20.718  0.00  0.00    +0.000 C 
ATOM      6  O   UNL     1       1.818   3.911  21.282  0.00  0.00    +0.000 OA
ATOM      7  N   UNL     1       3.229   5.094  19.877  0.00  0.00    +0.000 N 
ATOM      8  C   UNL     1       3.287   6.271  19.170  0.00  0.00    +0.000 C 
ATOM      9  O   UNL     1       4.085   6.534  18.281  0.00  0.00    +0.000 OA
BRANCH   2  13
ATOM     10  C   UNL     1      -0.934  11.259  20.288  0.00  0.00    +0.000 A 
ATOM     11  C   UNL     1      -0.006  10.745  21.194  0.00  0.00    +0.000 A 
ATOM     12  C   UNL     1       0.955   9.820  20.782  0.00  0.00    +0.000 A 
ATOM     13  C   UNL     1       0.988   9.378  19.455  0.00  0.00    +0.000 A 
ATOM     14  C   UNL     1       0.049   9.882  18.549  0.00  0.00    +0.000 A 
ATOM     15  C   UNL     1      -0.910  10.819  18.964  0.00  0.00    +0.000 A 
BRANCH  10  17
ATOM     16  C   UNL     1      -2.889  12.554  19.959  0.00  0.00    +0.000 C 
ATOM     17  O   UNL     1      -1.829  12.148  20.817  0.00  0.00    +0.000 OA
ENDBRANCH  10  17
ENDBRANCH   2  13
ENDBRANCH   1   7
BRANCH   1  18
ATOM     18  C   UNL     1       4.355   3.716  18.146  0.00  0.00    +0.000 C 
ATOM     19  O   UNL     1       3.458   3.300  17.412  0.00  0.00    +0.000 OA
ATOM     20  N   UNL     1       5.639   3.981  17.686  0.00  0.00    +0.000 N 
ATOM     21  H   UNL     1       6.417   4.305  18.258  0.00  0.00    +0.000 HD
BRANCH  20  22
ATOM     22  N   UNL     1       5.913   3.760  16.333  0.00  0.00    +0.000 N 
ATOM     23  C   UNL     1       6.200   4.799  15.469  0.00  0.00    +0.000 C 
ATOM     24  O   UNL     1       6.266   5.967  15.851  0.00  0.00    +0.000 OA
ATOM     25  H   UNL     1       5.848   2.794  15.993  0.00  0.00    +0.000 HD
BRANCH  23  26
ATOM     26  C   UNL     1       6.421   4.424  14.029  0.00  0.00    +0.000 A 
ATOM     27  C   UNL     1       5.510   3.540  13.426  0.00  0.00    +0.000 A 
ATOM     28  C   UNL     1       5.677   3.139  12.094  0.00  0.00    +0.000 A 
ATOM     29  C   UNL     1       6.753   3.615  11.349  0.00  0.00    +0.000 A 
ATOM     30  C   UNL     1       7.661   4.499  11.927  0.00  0.00    +0.000 A 
ATOM     31  C   UNL     1       7.493   4.902  13.255  0.00  0.00    +0.000 A 
BRANCH  31  32
ATOM     32  O   UNL     1       8.404   5.779  13.788  0.00  0.00    +0.000 OA
ATOM     33  H   UNL     1       9.049   6.033  13.105  0.00  0.00    +0.000 HD
ENDBRANCH  31  32
ENDBRANCH  23  26
ENDBRANCH  20  22
ENDBRANCH   1  18
TORSDOF 7
ENDMDL
MODEL 2
REMARK VINA RESULT:      -8.1      1.125      1.207
REMARK  Name = 
REMARK  8 active torsions:
REMARK  status: ('A' for Active; 'I' for Inactive)
REMARK    1  A    between atoms: C_1  and  O_2
REMARK    2  A    between atoms: O_2  and  C_3
REMARK    3  A    between atoms: C_6  and  C_7
REMARK    4  A    between atoms: N_12  and  C_13
REMARK    5  A    between atoms: C_13  and  C_14
REMARK    6  A    between atoms: N_16  and  N_17
REMARK    7  A    between atoms: C_18  and  C_20
REMARK    8  A    between atoms: C_25  and  O_26
REMARK                            x       y       z     vdW  Elec       q    Type
REMARK                         _______ _______ _______ _____ _____    ______ ____
ROOT
ATOM      1  C   UNL     1       3.824   2.878  19.649  0.00  0.00    +0.000 C 
ENDROOT
BRANCH   1   7
ATOM      2  C   UNL     1       2.423   7.598  20.016  0.00  0.00    +0.000 C 
ATOM      3  C   UNL     1       2.288   6.267  20.121  0.00  0.00    +0.000 C 
ATOM      4  S   UNL     1       0.902   5.389  20.638  0.00  0.00    +0.000 S 
ATOM      5  C   UNL     1       1.662   3.839  20.312  0.00  0.00    +0.000 C 
ATOM      6  O   UNL     1       1.050   2.784  20.338  0.00  0.00    +0.000 OA
ATOM      7  N   UNL     1       2.972   4.019  19.958  0.00  0.00    +0.000 N 
ATOM      8  C   UNL     1       3.384   5.316  19.769  0.00  0.00    +0.000 C 
ATOM      9  O   UNL     1       4.470   5.666  19.327  0.00  0.00    +0.000 OA
BRANCH   2  13
ATOM     10  C   UNL     1      -0.493  10.502  21.203  0.00  0.00    +0.000 A 
ATOM     11  C   UNL     1       0.230   9.781  22.154  0.00  0.00    +0.000 A 
ATOM     12  C   UNL     1       1.186   8.842  21.760  0.00  0.00    +0.000 A 
ATOM     13  C   UNL     1       1.417   8.596  20.403  0.00  0.00    +0.000 A 
ATOM     14  C   UNL     1       0.682   9.307  19.449  0.00  0.00    +0.000 A 
ATOM     15  C   UNL     1      -0.271  10.257  19.848  0.00  0.00    +0.000 A 
BRANCH  10  17
ATOM     16  C   UNL     1      -1.585  11.346  23.127  0.00  0.00    +0.000 C 
ATOM     17  O   UNL     1      -1.406  11.382  21.716  0.00  0.00    +0.000 OA
ENDBRANCH  10  17
ENDBRANCH   2  13
ENDBRANCH   1   7
BRANCH   1  18
ATOM     18  C   UNL     1       4.087   2.740  18.146  0.00  0.00    +0.000 C 
ATOM     19  O   UNL     1       3.367   2.085  17.392  0.00  0.00    +0.000 OA
ATOM     20  N   UNL     1       5.210   3.429  17.703  0.00  0.00    +0.000 N 
ATOM     21  H   UNL     1       5.845   3.965  18.291  0.00  0.00    +0.000 HD
BRANCH  20  22
ATOM     22  N   UNL     1       5.527   3.366  16.342  0.00  0.00    +0.000 N 
ATOM     23  C   UNL     1       6.120   4.425  15.684  0.00  0.00    +0.000 C 
ATOM     24  O   UNL     1       6.433   5.463  16.265  0.00  0.00    +0.000 OA
ATOM     25  H   UNL     1       5.259   2.513  15.838  0.00  0.00    +0.000 HD
BRANCH  23  26
ATOM     26  C   UNL     1       6.356   4.241  14.210  0.00  0.00    +0.000 A 
ATOM     27  C   UNL     1       5.516   3.362  13.507  0.00  0.00    +0.000 A 
ATOM     28  C   UNL     1       5.701   3.134  12.137  0.00  0.00    +0.000 A 
ATOM     29  C   UNL     1       6.726   3.783  11.452  0.00  0.00    +0.000 A 
ATOM     30  C   UNL     1       7.564   4.665  12.129  0.00  0.00    +0.000 A 
ATOM     31  C   UNL     1       7.377   4.895  13.497  0.00  0.00    +0.000 A 
BRANCH  31  32
ATOM     32  O   UNL     1       8.218   5.775  14.129  0.00  0.00    +0.000 OA
ATOM     33  H   UNL     1       7.787   6.646  14.194  0.00  0.00    +0.000 HD
ENDBRANCH  31  32
ENDBRANCH  23  26
ENDBRANCH  20  22
ENDBRANCH   1  18
TORSDOF 7
ENDMDL
MODEL 3
REMARK VINA RESULT:      -7.9      0.732      1.074
REMARK  Name = 
REMARK  8 active torsions:
REMARK  status: ('A' for Active; 'I' for Inactive)
REMARK    1  A    between atoms: C_1  and  O_2
REMARK    2  A    between atoms: O_2  and  C_3
REMARK    3  A    between atoms: C_6  and  C_7
REMARK    4  A    between atoms: N_12  and  C_13
REMARK    5  A    between atoms: C_13  and  C_14
REMARK    6  A    between atoms: N_16  and  N_17
REMARK    7  A    between atoms: C_18  and  C_20
REMARK    8  A    between atoms: C_25  and  O_26
REMARK                            x       y       z     vdW  Elec       q    Type
REMARK                         _______ _______ _______ _____ _____    ______ ____
ROOT
ATOM      1  C   UNL     1       4.184   4.562  19.526  0.00  0.00    +0.000 C 
ENDROOT
BRANCH   1   7
ATOM      2  C   UNL     1       1.901   8.800  18.427  0.00  0.00    +0.000 C 
ATOM      3  C   UNL     1       2.140   7.682  19.131  0.00  0.00    +0.000 C 
ATOM      4  S   UNL     1       1.285   7.103  20.506  0.00  0.00    +0.000 S 
ATOM      5  C   UNL     1       2.233   5.625  20.574  0.00  0.00    +0.000 C 
ATOM      6  O   UNL     1       1.946   4.688  21.302  0.00  0.00    +0.000 OA
ATOM      7  N   UNL     1       3.246   5.670  19.656  0.00  0.00    +0.000 N 
ATOM      8  C   UNL     1       3.236   6.730  18.781  0.00  0.00    +0.000 C 
ATOM      9  O   UNL     1       3.975   6.870  17.816  0.00  0.00    +0.000 OA
BRANCH   2  13
ATOM     10  C   UNL     1      -1.099  11.722  19.327  0.00  0.00    +0.000 A 
ATOM     11  C   UNL     1      -1.353  10.687  18.427  0.00  0.00    +0.000 A 
ATOM     12  C   UNL     1      -0.373   9.732  18.145  0.00  0.00    +0.000 A 
ATOM     13  C   UNL     1       0.886   9.813  18.747  0.00  0.00    +0.000 A 
ATOM     14  C   UNL     1       1.147  10.859  19.638  0.00  0.00    +0.000 A 
ATOM     15  C   UNL     1       0.158  11.812  19.927  0.00  0.00    +0.000 A 
BRANCH  10  17
ATOM     16  C   UNL     1      -3.440  12.077  19.288  0.00  0.00    +0.000 C 
ATOM     17  O   UNL     1      -2.134  12.598  19.509  0.00  0.00    +0.000 OA
ENDBRANCH  10  17
ENDBRANCH   2  13
ENDBRANCH   1   7
BRANCH   1  18
ATOM     18  C   UNL     1       4.391   4.146  18.066  0.00  0.00    +0.000 C 
ATOM     19  O   UNL     1       3.497   3.670  17.365  0.00  0.00    +0.000 OA
ATOM     20  N   UNL     1       5.681   4.360  17.595  0.00  0.00    +0.000 N 
ATOM     21  H   UNL     1       6.456   4.730  18.141  0.00  0.00    +0.000 HD
BRANCH  20  22
ATOM     22  N   UNL     1       5.963   4.015  16.269  0.00  0.00    +0.000 N 
ATOM     23  C   UNL     1       6.118   4.971  15.285  0.00  0.00    +0.000 C 
ATOM     24  O   UNL     1       6.051   6.176  15.528  0.00  0.00    +0.000 OA
ATOM     25  H   UNL     1       6.008   3.015  16.045  0.00  0.00    +0.000 HD
BRANCH  23  26
ATOM     26  C   UNL     1       6.366   4.458  13.893  0.00  0.00    +0.000 A 
ATOM     27  C   UNL     1       5.458   3.529  13.357  0.00  0.00    +0.000 A 
ATOM     28  C   UNL     1       5.648   3.000  12.074  0.00  0.00    +0.000 A 
ATOM     29  C   UNL     1       6.746   3.392  11.310  0.00  0.00    +0.000 A 
ATOM     30  C   UNL     1       7.652   4.319  11.821  0.00  0.00    +0.000 A 
ATOM     31  C   UNL     1       7.460   4.850  13.101  0.00  0.00    +0.000 A 
BRANCH  31  32
ATOM     32  O   UNL     1       8.369   5.765  13.568  0.00  0.00    +0.000 OA
ATOM     33  H   UNL     1       8.077   6.100  14.434  0.00  0.00    +0.000 HD
ENDBRANCH  31  32
ENDBRANCH  23  26
ENDBRANCH  20  22
ENDBRANCH   1  18
TORSDOF 7
ENDMDL
MODEL 4
REMARK VINA RESULT:      -7.8      4.654     11.729
REMARK  Name = 
REMARK  8 active torsions:
REMARK  status: ('A' for Active; 'I' for Inactive)
REMARK    1  A    between atoms: C_1  and  O_2
REMARK    2  A    between atoms: O_2  and  C_3
REMARK    3  A    between atoms: C_6  and  C_7
REMARK    4  A    between atoms: N_12  and  C_13
REMARK    5  A    between atoms: C_13  and  C_14
REMARK    6  A    between atoms: N_16  and  N_17
REMARK    7  A    between atoms: C_18  and  C_20
REMARK    8  A    between atoms: C_25  and  O_26
REMARK                            x       y       z     vdW  Elec       q    Type
REMARK                         _______ _______ _______ _____ _____    ______ ____
ROOT
ATOM      1  C   UNL     1       0.464  11.831  19.653  0.00  0.00    +0.000 C 
ENDROOT
BRANCH   1   7
ATOM      2  C   UNL     1       2.428   7.559  18.146  0.00  0.00    +0.000 C 
ATOM      3  C   UNL     1       1.848   8.404  19.012  0.00  0.00    +0.000 C 
ATOM      4  S   UNL     1       1.455   8.113  20.661  0.00  0.00    +0.000 S 
ATOM      5  C   UNL     1       0.901   9.763  20.905  0.00  0.00    +0.000 C 
ATOM      6  O   UNL     1       0.639  10.217  22.007  0.00  0.00    +0.000 OA
ATOM      7  N   UNL     1       0.898  10.441  19.716  0.00  0.00    +0.000 N 
ATOM      8  C   UNL     1       1.456   9.796  18.639  0.00  0.00    +0.000 C 
ATOM      9  O   UNL     1       1.662  10.287  17.538  0.00  0.00    +0.000 OA
BRANCH   2  13
ATOM     10  C   UNL     1       3.507   3.498  18.976  0.00  0.00    +0.000 A 
ATOM     11  C   UNL     1       4.356   4.550  19.320  0.00  0.00    +0.000 A 
ATOM     12  C   UNL     1       3.994   5.873  19.055  0.00  0.00    +0.000 A 
ATOM     13  C   UNL     1       2.782   6.160  18.420  0.00  0.00    +0.000 A 
ATOM     14  C   UNL     1       1.937   5.105  18.061  0.00  0.00    +0.000 A 
ATOM     15  C   UNL     1       2.298   3.777  18.338  0.00  0.00    +0.000 A 
BRANCH  10  17
ATOM     16  C   UNL     1       3.639   1.214  18.366  0.00  0.00    +0.000 C 
ATOM     17  O   UNL     1       3.981   2.251  19.279  0.00  0.00    +0.000 OA
ENDBRANCH  10  17
ENDBRANCH   2  13
ENDBRANCH   1   7
BRANCH   1  18
ATOM     18  C   UNL     1      -1.049  11.976  19.844  0.00  0.00    +0.000 C 
ATOM     19  O   UNL     1      -1.875  11.596  19.014  0.00  0.00    +0.000 OA
ATOM     20  N   UNL     1      -1.412  12.568  21.048  0.00  0.00    +0.000 N 
ATOM     21  H   UNL     1      -0.767  12.916  21.754  0.00  0.00    +0.000 HD
BRANCH  20  22
ATOM     22  N   UNL     1      -2.775  12.738  21.314  0.00  0.00    +0.000 N 
ATOM     23  C   UNL     1      -3.302  12.530  22.574  0.00  0.00    +0.000 C 
ATOM     24  O   UNL     1      -2.597  12.219  23.534  0.00  0.00    +0.000 OA
ATOM     25  H   UNL     1      -3.380  12.982  20.522  0.00  0.00    +0.000 HD
BRANCH  23  26
ATOM     26  C   UNL     1      -4.791  12.695  22.706  0.00  0.00    +0.000 A 
ATOM     27  C   UNL     1      -5.551  12.833  21.532  0.00  0.00    +0.000 A 
ATOM     28  C   UNL     1      -6.939  13.012  21.594  0.00  0.00    +0.000 A 
ATOM     29  C   UNL     1      -7.585  13.053  22.828  0.00  0.00    +0.000 A 
ATOM     30  C   UNL     1      -6.850  12.909  24.002  0.00  0.00    +0.000 A 
ATOM     31  C   UNL     1      -5.464  12.727  23.940  0.00  0.00    +0.000 A 
BRANCH  31  32
ATOM     32  O   UNL     1      -4.775  12.582  25.117  0.00  0.00    +0.000 OA
ATOM     33  H   UNL     1      -5.400  12.397  25.839  0.00  0.00    +0.000 HD
ENDBRANCH  31  32
ENDBRANCH  23  26
ENDBRANCH  20  22
ENDBRANCH   1  18
TORSDOF 7
ENDMDL
MODEL 5
REMARK VINA RESULT:      -7.6      4.683     10.798
REMARK  Name = 
REMARK  8 active torsions:
REMARK  status: ('A' for Active; 'I' for Inactive)
REMARK    1  A    between atoms: C_1  and  O_2
REMARK    2  A    between atoms: O_2  and  C_3
REMARK    3  A    between atoms: C_6  and  C_7
REMARK    4  A    between atoms: N_12  and  C_13
REMARK    5  A    between atoms: C_13  and  C_14
REMARK    6  A    between atoms: N_16  and  N_17
REMARK    7  A    between atoms: C_18  and  C_20
REMARK    8  A    between atoms: C_25  and  O_26
REMARK                            x       y       z     vdW  Elec       q    Type
REMARK                         _______ _______ _______ _____ _____    ______ ____
ROOT
ATOM      1  C   UNL     1       0.639  11.751  20.506  0.00  0.00    +0.000 C 
ENDROOT
BRANCH   1   7
ATOM      2  C   UNL     1       2.285   7.600  18.399  0.00  0.00    +0.000 C 
ATOM      3  C   UNL     1       1.789   8.360  19.388  0.00  0.00    +0.000 C 
ATOM      4  S   UNL     1       1.442   7.887  21.004  0.00  0.00    +0.000 S 
ATOM      5  C   UNL     1       0.997   9.521  21.473  0.00  0.00    +0.000 C 
ATOM      6  O   UNL     1       0.804   9.846  22.633  0.00  0.00    +0.000 OA
ATOM      7  N   UNL     1       0.991  10.342  20.378  0.00  0.00    +0.000 N 
ATOM      8  C   UNL     1       1.469   9.807  19.207  0.00  0.00    +0.000 C 
ATOM      9  O   UNL     1       1.663  10.421  18.166  0.00  0.00    +0.000 OA
BRANCH   2  13
ATOM     10  C   UNL     1       3.142   3.413  18.682  0.00  0.00    +0.000 A 
ATOM     11  C   UNL     1       3.981   4.358  19.272  0.00  0.00    +0.000 A 
ATOM     12  C   UNL     1       3.691   5.722  19.184  0.00  0.00    +0.000 A 
ATOM     13  C   UNL     1       2.564   6.160  18.482  0.00  0.00    +0.000 A 
ATOM     14  C   UNL     1       1.730   5.214  17.878  0.00  0.00    +0.000 A 
ATOM     15  C   UNL     1       2.018   3.844  17.976  0.00  0.00    +0.000 A 
BRANCH  10  17
ATOM     16  C   UNL     1       4.426   1.849  19.912  0.00  0.00    +0.000 C 
ATOM     17  O   UNL     1       3.541   2.112  18.829  0.00  0.00    +0.000 OA
ENDBRANCH  10  17
ENDBRANCH   2  13
ENDBRANCH   1   7
BRANCH   1  18
ATOM     18  C   UNL     1      -0.876  11.971  20.527  0.00  0.00    +0.000 C 
ATOM     19  O   UNL     1      -1.566  11.831  21.538  0.00  0.00    +0.000 OA
ATOM     20  N   UNL     1      -1.409  12.352  19.301  0.00  0.00    +0.000 N 
ATOM     21  H   UNL     1      -0.884  12.459  18.436  0.00  0.00    +0.000 HD
BRANCH  20  22
ATOM     22  N   UNL     1      -2.787  12.581  19.224  0.00  0.00    +0.000 N 
ATOM     23  C   UNL     1      -3.622  11.755  18.498  0.00  0.00    +0.000 C 
ATOM     24  O   UNL     1      -3.206  10.757  17.910  0.00  0.00    +0.000 OA
ATOM     25  H   UNL     1      -3.150  13.417  19.696  0.00  0.00    +0.000 HD
BRANCH  23  26
ATOM     26  C   UNL     1      -5.073  12.148  18.457  0.00  0.00    +0.000 A 
ATOM     27  C   UNL     1      -5.681  12.315  17.200  0.00  0.00    +0.000 A 
ATOM     28  C   UNL     1      -7.024  12.702  17.099  0.00  0.00    +0.000 A 
ATOM     29  C   UNL     1      -7.776  12.926  18.250  0.00  0.00    +0.000 A 
ATOM     30  C   UNL     1      -7.194  12.757  19.504  0.00  0.00    +0.000 A 
ATOM     31  C   UNL     1      -5.854  12.368  19.605  0.00  0.00    +0.000 A 
BRANCH  31  32
ATOM     32  O   UNL     1      -5.317  12.206  20.857  0.00  0.00    +0.000 OA
ATOM     33  H   UNL     1      -5.249  13.072  21.296  0.00  0.00    +0.000 HD
ENDBRANCH  31  32
ENDBRANCH  23  26
ENDBRANCH  20  22
ENDBRANCH   1  18
TORSDOF 7
ENDMDL
MODEL 6
REMARK VINA RESULT:      -7.6      4.755     10.817
REMARK  Name = 
REMARK  8 active torsions:
REMARK  status: ('A' for Active; 'I' for Inactive)
REMARK    1  A    between atoms: C_1  and  O_2
REMARK    2  A    between atoms: O_2  and  C_3
REMARK    3  A    between atoms: C_6  and  C_7
REMARK    4  A    between atoms: N_12  and  C_13
REMARK    5  A    between atoms: C_13  and  C_14
REMARK    6  A    between atoms: N_16  and  N_17
REMARK    7  A    between atoms: C_18  and  C_20
REMARK    8  A    between atoms: C_25  and  O_26
REMARK                            x       y       z     vdW  Elec       q    Type
REMARK                         _______ _______ _______ _____ _____    ______ ____
ROOT
ATOM      1  C   UNL     1       1.041  11.986  19.531  0.00  0.00    +0.000 C 
ENDROOT
BRANCH   1   7
ATOM      2  C   UNL     1       2.389   7.466  18.072  0.00  0.00    +0.000 C 
ATOM      3  C   UNL     1       1.922   8.390  18.925  0.00  0.00    +0.000 C 
ATOM      4  S   UNL     1       1.459   8.168  20.566  0.00  0.00    +0.000 S 
ATOM      5  C   UNL     1       1.147   9.882  20.795  0.00  0.00    +0.000 C 
ATOM      6  O   UNL     1       0.932  10.374  21.891  0.00  0.00    +0.000 OA
ATOM      7  N   UNL     1       1.266  10.548  19.606  0.00  0.00    +0.000 N 
ATOM      8  C   UNL     1       1.746   9.823  18.542  0.00  0.00    +0.000 C 
ATOM      9  O   UNL     1       2.042  10.274  17.443  0.00  0.00    +0.000 OA
BRANCH   2  13
ATOM     10  C   UNL     1       2.750   3.271  18.859  0.00  0.00    +0.000 A 
ATOM     11  C   UNL     1       1.665   3.776  18.141  0.00  0.00    +0.000 A 
ATOM     12  C   UNL     1       1.558   5.144  17.880  0.00  0.00    +0.000 A 
ATOM     13  C   UNL     1       2.529   6.031  18.355  0.00  0.00    +0.000 A 
ATOM     14  C   UNL     1       3.609   5.528  19.087  0.00  0.00    +0.000 A 
ATOM     15  C   UNL     1       3.719   4.152  19.339  0.00  0.00    +0.000 A 
BRANCH  10  17
ATOM     16  C   UNL     1       3.872   1.203  18.592  0.00  0.00    +0.000 C 
ATOM     17  O   UNL     1       2.733   1.918  19.057  0.00  0.00    +0.000 OA
ENDBRANCH  10  17
ENDBRANCH   2  13
ENDBRANCH   1   7
BRANCH   1  18
ATOM     18  C   UNL     1      -0.427  12.356  19.760  0.00  0.00    +0.000 C 
ATOM     19  O   UNL     1      -0.861  12.764  20.839  0.00  0.00    +0.000 OA
ATOM     20  N   UNL     1      -1.232  12.199  18.638  0.00  0.00    +0.000 N 
ATOM     21  H   UNL     1      -0.923  11.846  17.734  0.00  0.00    +0.000 HD
BRANCH  20  22
ATOM     22  N   UNL     1      -2.588  12.518  18.751  0.00  0.00    +0.000 N 
ATOM     23  C   UNL     1      -3.578  11.612  18.422  0.00  0.00    +0.000 C 
ATOM     24  O   UNL     1      -3.320  10.469  18.048  0.00  0.00    +0.000 OA
ATOM     25  H   UNL     1      -2.823  13.472  19.047  0.00  0.00    +0.000 HD
BRANCH  23  26
ATOM     26  C   UNL     1      -4.995  12.105  18.539  0.00  0.00    +0.000 A 
ATOM     27  C   UNL     1      -5.779  12.153  17.374  0.00  0.00    +0.000 A 
ATOM     28  C   UNL     1      -7.098  12.623  17.417  0.00  0.00    +0.000 A 
ATOM     29  C   UNL     1      -7.650  13.050  18.622  0.00  0.00    +0.000 A 
ATOM     30  C   UNL     1      -6.891  13.001  19.790  0.00  0.00    +0.000 A 
ATOM     31  C   UNL     1      -5.575  12.528  19.747  0.00  0.00    +0.000 A 
BRANCH  31  32
ATOM     32  O   UNL     1      -4.861  12.489  20.918  0.00  0.00    +0.000 OA
ATOM     33  H   UNL     1      -3.989  12.899  20.780  0.00  0.00    +0.000 HD
ENDBRANCH  31  32
ENDBRANCH  23  26
ENDBRANCH  20  22
ENDBRANCH   1  18
TORSDOF 7
ENDMDL
MODEL 7
REMARK VINA RESULT:      -7.5      4.478      7.573
REMARK  Name = 
REMARK  8 active torsions:
REMARK  status: ('A' for Active; 'I' for Inactive)
REMARK    1  A    between atoms: C_1  and  O_2
REMARK    2  A    between atoms: O_2  and  C_3
REMARK    3  A    between atoms: C_6  and  C_7
REMARK    4  A    between atoms: N_12  and  C_13
REMARK    5  A    between atoms: C_13  and  C_14
REMARK    6  A    between atoms: N_16  and  N_17
REMARK    7  A    between atoms: C_18  and  C_20
REMARK    8  A    between atoms: C_25  and  O_26
REMARK                            x       y       z     vdW  Elec       q    Type
REMARK                         _______ _______ _______ _____ _____    ______ ____
ROOT
ATOM      1  C   UNL     1       1.047  10.752  21.122  0.00  0.00    +0.000 C 
ENDROOT
BRANCH   1   7
ATOM      2  C   UNL     1      -2.930  12.469  23.491  0.00  0.00    +0.000 C 
ATOM      3  C   UNL     1      -2.086  12.324  22.459  0.00  0.00    +0.000 C 
ATOM      4  S   UNL     1      -2.163  13.092  20.922  0.00  0.00    +0.000 S 
ATOM      5  C   UNL     1      -0.644  12.381  20.399  0.00  0.00    +0.000 C 
ATOM      6  O   UNL     1      -0.071  12.722  19.377  0.00  0.00    +0.000 OA
ATOM      7  N   UNL     1      -0.194  11.487  21.332  0.00  0.00    +0.000 N 
ATOM      8  C   UNL     1      -0.887  11.436  22.518  0.00  0.00    +0.000 C 
ATOM      9  O   UNL     1      -0.560  10.801  23.511  0.00  0.00    +0.000 OA
BRANCH   2  13
ATOM     10  C   UNL     1      -6.484  14.859  23.490  0.00  0.00    +0.000 A 
ATOM     11  C   UNL     1      -5.261  15.394  23.893  0.00  0.00    +0.000 A 
ATOM     12  C   UNL     1      -4.103  14.611  23.883  0.00  0.00    +0.000 A 
ATOM     13  C   UNL     1      -4.161  13.271  23.487  0.00  0.00    +0.000 A 
ATOM     14  C   UNL     1      -5.390  12.731  23.096  0.00  0.00    +0.000 A 
ATOM     15  C   UNL     1      -6.549  13.522  23.098  0.00  0.00    +0.000 A 
BRANCH  10  17
ATOM     16  C   UNL     1      -7.791  16.499  22.390  0.00  0.00    +0.000 C 
ATOM     17  O   UNL     1      -7.543  15.723  23.556  0.00  0.00    +0.000 OA
ENDBRANCH  10  17
ENDBRANCH   2  13
ENDBRANCH   1   7
BRANCH   1  18
ATOM     18  C   UNL     1       0.798   9.278  20.786  0.00  0.00    +0.000 C 
ATOM     19  O   UNL     1      -0.231   8.873  20.245  0.00  0.00    +0.000 OA
ATOM     20  N   UNL     1       1.843   8.433  21.140  0.00  0.00    +0.000 N 
ATOM     21  H   UNL     1       2.702   8.718  21.607  0.00  0.00    +0.000 HD
BRANCH  20  22
ATOM     22  N   UNL     1       1.708   7.068  20.867  0.00  0.00    +0.000 N 
ATOM     23  C   UNL     1       2.243   6.497  19.728  0.00  0.00    +0.000 C 
ATOM     24  O   UNL     1       2.894   7.151  18.914  0.00  0.00    +0.000 OA
ATOM     25  H   UNL     1       1.155   6.511  21.527  0.00  0.00    +0.000 HD
BRANCH  23  26
ATOM     26  C   UNL     1       1.976   5.030  19.533  0.00  0.00    +0.000 A 
ATOM     27  C   UNL     1       1.219   4.357  20.507  0.00  0.00    +0.000 A 
ATOM     28  C   UNL     1       0.957   2.986  20.390  0.00  0.00    +0.000 A 
ATOM     29  C   UNL     1       1.446   2.270  19.299  0.00  0.00    +0.000 A 
ATOM     30  C   UNL     1       2.190   2.922  18.319  0.00  0.00    +0.000 A 
ATOM     31  C   UNL     1       2.449   4.292  18.434  0.00  0.00    +0.000 A 
BRANCH  31  32
ATOM     32  O   UNL     1       3.181   4.900  17.446  0.00  0.00    +0.000 OA
ATOM     33  H   UNL     1       3.982   4.378  17.266  0.00  0.00    +0.000 HD
ENDBRANCH  31  32
ENDBRANCH  23  26
ENDBRANCH  20  22
ENDBRANCH   1  18
TORSDOF 7
ENDMDL
MODEL 8
REMARK VINA RESULT:      -7.5      1.109      1.263
REMARK  Name = 
REMARK  8 active torsions:
REMARK  status: ('A' for Active; 'I' for Inactive)
REMARK    1  A    between atoms: C_1  and  O_2
REMARK    2  A    between atoms: O_2  and  C_3
REMARK    3  A    between atoms: C_6  and  C_7
REMARK    4  A    between atoms: N_12  and  C_13
REMARK    5  A    between atoms: C_13  and  C_14
REMARK    6  A    between atoms: N_16  and  N_17
REMARK    7  A    between atoms: C_18  and  C_20
REMARK    8  A    between atoms: C_25  and  O_26
REMARK                            x       y       z     vdW  Elec       q    Type
REMARK                         _______ _______ _______ _____ _____    ______ ____
ROOT
ATOM      1  C   UNL     1       3.918   5.422  19.464  0.00  0.00    +0.000 C 
ENDROOT
BRANCH   1   7
ATOM      2  C   UNL     1       1.236   9.461  18.532  0.00  0.00    +0.000 C 
ATOM      3  C   UNL     1       1.589   8.350  19.197  0.00  0.00    +0.000 C 
ATOM      4  S   UNL     1       0.815   7.655  20.566  0.00  0.00    +0.000 S 
ATOM      5  C   UNL     1       1.896   6.269  20.575  0.00  0.00    +0.000 C 
ATOM      6  O   UNL     1       1.709   5.289  21.277  0.00  0.00    +0.000 OA
ATOM      7  N   UNL     1       2.884   6.434  19.642  0.00  0.00    +0.000 N 
ATOM      8  C   UNL     1       2.761   7.514  18.801  0.00  0.00    +0.000 C 
ATOM      9  O   UNL     1       3.467   7.750  17.830  0.00  0.00    +0.000 OA
BRANCH   2  13
ATOM     10  C   UNL     1      -1.925  12.133  19.635  0.00  0.00    +0.000 A 
ATOM     11  C   UNL     1      -0.704  12.150  20.310  0.00  0.00    +0.000 A 
ATOM     12  C   UNL     1       0.326  11.282  19.938  0.00  0.00    +0.000 A 
ATOM     13  C   UNL     1       0.138  10.367  18.897  0.00  0.00    +0.000 A 
ATOM     14  C   UNL     1      -1.091  10.340  18.231  0.00  0.00    +0.000 A 
ATOM     15  C   UNL     1      -2.120  11.220  18.599  0.00  0.00    +0.000 A 
BRANCH  10  17
ATOM     16  C   UNL     1      -2.770  13.350  21.483  0.00  0.00    +0.000 C 
ATOM     17  O   UNL     1      -2.855  13.023  20.101  0.00  0.00    +0.000 OA
ENDBRANCH  10  17
ENDBRANCH   2  13
ENDBRANCH   1   7
BRANCH   1  18
ATOM     18  C   UNL     1       4.032   4.960  18.008  0.00  0.00    +0.000 C 
ATOM     19  O   UNL     1       3.197   4.239  17.460  0.00  0.00    +0.000 OA
ATOM     20  N   UNL     1       5.161   5.435  17.351  0.00  0.00    +0.000 N 
ATOM     21  H   UNL     1       5.887   6.014  17.767  0.00  0.00    +0.000 HD
BRANCH  20  22
ATOM     22  N   UNL     1       5.347   5.069  16.015  0.00  0.00    +0.000 N 
ATOM     23  C   UNL     1       6.595   4.751  15.515  0.00  0.00    +0.000 C 
ATOM     24  O   UNL     1       7.600   4.738  16.225  0.00  0.00    +0.000 OA
ATOM     25  H   UNL     1       4.523   5.088  15.404  0.00  0.00    +0.000 HD
BRANCH  23  26
ATOM     26  C   UNL     1       6.660   4.428  14.047  0.00  0.00    +0.000 A 
ATOM     27  C   UNL     1       5.718   3.527  13.523  0.00  0.00    +0.000 A 
ATOM     28  C   UNL     1       5.743   3.171  12.168  0.00  0.00    +0.000 A 
ATOM     29  C   UNL     1       6.707   3.712  11.320  0.00  0.00    +0.000 A 
ATOM     30  C   UNL     1       7.644   4.614  11.819  0.00  0.00    +0.000 A 
ATOM     31  C   UNL     1       7.617   4.971  13.172  0.00  0.00    +0.000 A 
BRANCH  31  32
ATOM     32  O   UNL     1       8.551   5.867  13.626  0.00  0.00    +0.000 OA
ATOM     33  H   UNL     1       9.277   5.387  14.062  0.00  0.00    +0.000 HD
ENDBRANCH  31  32
ENDBRANCH  23  26
ENDBRANCH  20  22
ENDBRANCH   1  18
TORSDOF 7
ENDMDL
MODEL 9
REMARK VINA RESULT:      -7.4      4.616     11.616
REMARK  Name = 
REMARK  8 active torsions:
REMARK  status: ('A' for Active; 'I' for Inactive)
REMARK    1  A    between atoms: C_1  and  O_2
REMARK    2  A    between atoms: O_2  and  C_3
REMARK    3  A    between atoms: C_6  and  C_7
REMARK    4  A    between atoms: N_12  and  C_13
REMARK    5  A    between atoms: C_13  and  C_14
REMARK    6  A    between atoms: N_16  and  N_17
REMARK    7  A    between atoms: C_18  and  C_20
REMARK    8  A    between atoms: C_25  and  O_26
REMARK                            x       y       z     vdW  Elec       q    Type
REMARK                         _______ _______ _______ _____ _____    ______ ____
ROOT
ATOM      1  C   UNL     1       0.402  11.862  19.402  0.00  0.00    +0.000 C 
ENDROOT
BRANCH   1   7
ATOM      2  C   UNL     1       2.615   7.657  18.063  0.00  0.00    +0.000 C 
ATOM      3  C   UNL     1       1.973   8.494  18.891  0.00  0.00    +0.000 C 
ATOM      4  S   UNL     1       1.559   8.229  20.539  0.00  0.00    +0.000 S 
ATOM      5  C   UNL     1       0.916   9.854  20.723  0.00  0.00    +0.000 C 
ATOM      6  O   UNL     1       0.605  10.324  21.806  0.00  0.00    +0.000 OA
ATOM      7  N   UNL     1       0.905  10.498  19.516  0.00  0.00    +0.000 N 
ATOM      8  C   UNL     1       1.520   9.853  18.470  0.00  0.00    +0.000 C 
ATOM      9  O   UNL     1       1.725  10.323  17.359  0.00  0.00    +0.000 OA
BRANCH   2  13
ATOM     10  C   UNL     1       3.784   3.637  18.971  0.00  0.00    +0.000 A 
ATOM     11  C   UNL     1       2.532   3.913  18.422  0.00  0.00    +0.000 A 
ATOM     12  C   UNL     1       2.160   5.226  18.120  0.00  0.00    +0.000 A 
ATOM     13  C   UNL     1       3.034   6.285  18.384  0.00  0.00    +0.000 A 
ATOM     14  C   UNL     1       4.284   6.011  18.948  0.00  0.00    +0.000 A 
ATOM     15  C   UNL     1       4.658   4.691  19.241  0.00  0.00    +0.000 A 
BRANCH  10  17
ATOM     16  C   UNL     1       3.395   1.383  18.359  0.00  0.00    +0.000 C 
ATOM     17  O   UNL     1       4.023   2.315  19.231  0.00  0.00    +0.000 OA
ENDBRANCH  10  17
ENDBRANCH   2  13
ENDBRANCH   1   7
BRANCH   1  18
ATOM     18  C   UNL     1      -1.107  11.946  19.650  0.00  0.00    +0.000 C 
ATOM     19  O   UNL     1      -1.934  11.283  19.021  0.00  0.00    +0.000 OA
ATOM     20  N   UNL     1      -1.466  12.833  20.657  0.00  0.00    +0.000 N 
ATOM     21  H   UNL     1      -0.823  13.417  21.188  0.00  0.00    +0.000 HD
BRANCH  20  22
ATOM     22  N   UNL     1      -2.825  12.973  20.958  0.00  0.00    +0.000 N 
ATOM     23  C   UNL     1      -3.331  12.656  22.204  0.00  0.00    +0.000 C 
ATOM     24  O   UNL     1      -2.610  12.267  23.122  0.00  0.00    +0.000 OA
ATOM     25  H   UNL     1      -3.443  13.282  20.200  0.00  0.00    +0.000 HD
BRANCH  23  26
ATOM     26  C   UNL     1      -4.818  12.802  22.374  0.00  0.00    +0.000 A 
ATOM     27  C   UNL     1      -5.303  13.253  23.613  0.00  0.00    +0.000 A 
ATOM     28  C   UNL     1      -6.680  13.389  23.837  0.00  0.00    +0.000 A 
ATOM     29  C   UNL     1      -7.588  13.077  22.828  0.00  0.00    +0.000 A 
ATOM     30  C   UNL     1      -7.125  12.637  21.589  0.00  0.00    +0.000 A 
ATOM     31  C   UNL     1      -5.751  12.505  21.365  0.00  0.00    +0.000 A 
BRANCH  31  32
ATOM     32  O   UNL     1      -5.332  12.075  20.131  0.00  0.00    +0.000 OA
ATOM     33  H   UNL     1      -5.727  11.206  19.938  0.00  0.00    +0.000 HD
ENDBRANCH  31  32
ENDBRANCH  23  26
ENDBRANCH  20  22
ENDBRANCH   1  18
TORSDOF 7
ENDMDL
