MODEL 1
REMARK VINA RESULT:      -7.8      0.000      0.000
REMARK  Name = 
REMARK  6 active torsions:
REMARK  status: ('A' for Active; 'I' for Inactive)
REMARK    1  A    between atoms: C_1  and  O_2
REMARK    2  A    between atoms: O_2  and  N_3
REMARK    3  A    between atoms: N_3  and  C_4
REMARK    4  A    between atoms: C_5  and  C_7
REMARK    5  A    between atoms: N_16  and  C_17
REMARK    6  A    between atoms: C_24  and  C_25
REMARK                            x       y       z     vdW  Elec       q    Type
REMARK                         _______ _______ _______ _____ _____    ______ ____
ROOT
ATOM      1  C   UNL     1       6.276   5.123  17.448  0.00  0.00    +0.000 A 
ATOM      2  N   UNL     1       6.642   4.014  18.127  0.00  0.00    +0.000 NA
ATOM      3  N   UNL     1       5.736   3.904  19.112  0.00  0.00    +0.000 N 
ATOM      4  C   UNL     1       4.786   4.868  19.062  0.00  0.00    +0.000 A 
ATOM      5  C   UNL     1       5.104   5.690  18.022  0.00  0.00    +0.000 A 
ATOM      6  C   UNL     1       4.338   6.885  17.624  0.00  0.00    +0.000 C 
ATOM      7  N   UNL     1       3.166   7.144  18.493  0.00  0.00    +0.000 N 
ATOM      8  C   UNL     1       2.480   8.301  18.100  0.00  0.00    +0.000 C 
ATOM      9  O   UNL     1       2.895   8.985  17.165  0.00  0.00    +0.000 OA
ATOM     10  N   UNL     1       1.345   8.607  18.816  0.00  0.00    +0.000 N 
ATOM     11  C   UNL     1       2.637   6.105  19.442  0.00  0.00    +0.000 C 
ATOM     12  C   UNL     1       1.397   5.397  18.877  0.00  0.00    +0.000 C 
ATOM     13  C   UNL     1       3.649   5.045  19.982  0.00  0.00    +0.000 C 
ATOM     14  H   UNL     1       5.838   3.143  19.777  0.00  0.00    +0.000 HD
ATOM     15  H   UNL     1       1.275   8.214  19.739  0.00  0.00    +0.000 HD
ENDROOT
BRANCH  10  16
ATOM     16  C   UNL     1       0.444   9.659  18.521  0.00  0.00    +0.000 A 
ATOM     17  C   UNL     1       0.568  10.950  19.048  0.00  0.00    +0.000 A 
ATOM     18  C   UNL     1      -0.385  11.934  18.770  0.00  0.00    +0.000 A 
ATOM     19  C   UNL     1      -1.467  11.640  17.946  0.00  0.00    +0.000 A 
ATOM     20  C   UNL     1      -1.573  10.370  17.384  0.00  0.00    +0.000 A 
ATOM     21 CL   UNL     1      -2.904  10.006  16.356  0.00  0.00    +0.000 Cl
ATOM     22  C   UNL     1      -0.620   9.386  17.656  0.00  0.00    +0.000 A 
ENDBRANCH  10  16
BRANCH   1  25
ATOM     23  N   UNL     1       7.081   4.846  15.139  0.00  0.00    +0.000 N 
ATOM     24  C   UNL     1       5.885   4.151  14.694  0.00  0.00    +0.000 C 
ATOM     25  C   UNL     1       7.034   5.658  16.293  0.00  0.00    +0.000 C 
ATOM     26  O   UNL     1       7.579   6.758  16.366  0.00  0.00    +0.000 OA
BRANCH  23  28
ATOM     27  C   UNL     1       7.440   4.815  12.853  0.00  0.00    +0.000 C 
ATOM     28  O   UNL     1       7.619   5.587  14.038  0.00  0.00    +0.000 OA
ENDBRANCH  23  28
ENDBRANCH   1  25
TORSDOF 3
ENDMDL
MODEL 2
REMARK VINA RESULT:      -7.5      1.134      1.473
REMARK  Name = 
REMARK  6 active torsions:
REMARK  status: ('A' for Active; 'I' for Inactive)
REMARK    1  A    between atoms: C_1  and  O_2
REMARK    2  A    between atoms: O_2  and  N_3
REMARK    3  A    between atoms: N_3  and  C_4
REMARK    4  A    between atoms: C_5  and  C_7
REMARK    5  A    between atoms: N_16  and  C_17
REMARK    6  A    between atoms: C_24  and  C_25
REMARK                            x       y       z     vdW  Elec       q    Type
REMARK                         _______ _______ _______ _____ _____    ______ ____
ROOT
ATOM      1  C   UNL     1       6.241   5.113  17.443  0.00  0.00    +0.000 A 
ATOM      2  N   UNL     1       6.599   3.992  18.107  0.00  0.00    +0.000 NA
ATOM      3  N   UNL     1       5.694   3.878  19.093  0.00  0.00    +0.000 N 
ATOM      4  C   UNL     1       4.753   4.852  19.058  0.00  0.00    +0.000 A 
ATOM      5  C   UNL     1       5.076   5.685  18.027  0.00  0.00    +0.000 A 
ATOM      6  C   UNL     1       4.320   6.891  17.647  0.00  0.00    +0.000 C 
ATOM      7  N   UNL     1       3.154   7.150  18.523  0.00  0.00    +0.000 N 
ATOM      8  C   UNL     1       2.477   8.319  18.146  0.00  0.00    +0.000 C 
ATOM      9  O   UNL     1       2.897   9.010  17.219  0.00  0.00    +0.000 OA
ATOM     10  N   UNL     1       1.348   8.627  18.870  0.00  0.00    +0.000 N 
ATOM     11  C   UNL     1       2.618   6.105  19.460  0.00  0.00    +0.000 C 
ATOM     12  C   UNL     1       1.369   5.416  18.890  0.00  0.00    +0.000 C 
ATOM     13  C   UNL     1       3.621   5.028  19.984  0.00  0.00    +0.000 C 
ATOM     14  H   UNL     1       5.791   3.108  19.748  0.00  0.00    +0.000 HD
ATOM     15  H   UNL     1       1.276   8.223  19.787  0.00  0.00    +0.000 HD
ENDROOT
BRANCH  10  16
ATOM     16  C   UNL     1       0.456   9.691  18.590  0.00  0.00    +0.000 A 
ATOM     17  C   UNL     1      -0.688   9.548  17.796  0.00  0.00    +0.000 A 
ATOM     18  C   UNL     1      -1.502  10.645  17.503  0.00  0.00    +0.000 A 
ATOM     19  C   UNL     1      -1.187  11.900  18.017  0.00  0.00    +0.000 A 
ATOM     20  C   UNL     1      -0.075  12.040  18.842  0.00  0.00    +0.000 A 
ATOM     21 CL   UNL     1       0.312  13.588  19.487  0.00  0.00    +0.000 Cl
ATOM     22  C   UNL     1       0.738  10.944  19.141  0.00  0.00    +0.000 A 
ENDBRANCH  10  16
BRANCH   1  25
ATOM     23  N   UNL     1       7.068   4.842  15.141  0.00  0.00    +0.000 N 
ATOM     24  C   UNL     1       5.885   4.130  14.688  0.00  0.00    +0.000 C 
ATOM     25  C   UNL     1       7.001   5.656  16.293  0.00  0.00    +0.000 C 
ATOM     26  O   UNL     1       7.531   6.763  16.367  0.00  0.00    +0.000 OA
BRANCH  23  28
ATOM     27  C   UNL     1       7.412   4.825  12.852  0.00  0.00    +0.000 C 
ATOM     28  O   UNL     1       7.604   5.587  14.043  0.00  0.00    +0.000 OA
ENDBRANCH  23  28
ENDBRANCH   1  25
TORSDOF 3
ENDMDL
MODEL 3
REMARK VINA RESULT:      -6.9      4.357      9.548
REMARK  Name = 
REMARK  6 active torsions:
REMARK  status: ('A' for Active; 'I' for Inactive)
REMARK    1  A    between atoms: C_1  and  O_2
REMARK    2  A    between atoms: O_2  and  N_3
REMARK    3  A    between atoms: N_3  and  C_4
REMARK    4  A    between atoms: C_5  and  C_7
REMARK    5  A    between atoms: N_16  and  C_17
REMARK    6  A    between atoms: C_24  and  C_25
REMARK                            x       y       z     vdW  Elec       q    Type
REMARK                         _______ _______ _______ _____ _____    ______ ____
ROOT
ATOM      1  C   UNL     1      -0.643  11.951  21.455  0.00  0.00    +0.000 A 
ATOM      2  N   UNL     1      -0.646  13.180  20.892  0.00  0.00    +0.000 NA
ATOM      3  N   UNL     1       0.181  13.074  19.840  0.00  0.00    +0.000 N 
ATOM      4  C   UNL     1       0.675  11.822  19.683  0.00  0.00    +0.000 A 
ATOM      5  C   UNL     1       0.191  11.069  20.712  0.00  0.00    +0.000 A 
ATOM      6  C   UNL     1       0.497   9.644  20.933  0.00  0.00    +0.000 C 
ATOM      7  N   UNL     1       1.425   9.083  19.925  0.00  0.00    +0.000 N 
ATOM      8  C   UNL     1       1.712   7.735  20.185  0.00  0.00    +0.000 C 
ATOM      9  O   UNL     1       1.244   7.178  21.177  0.00  0.00    +0.000 OA
ATOM     10  N   UNL     1       2.532   7.103  19.278  0.00  0.00    +0.000 N 
ATOM     11  C   UNL     1       1.729   9.799  18.639  0.00  0.00    +0.000 C 
ATOM     12  C   UNL     1       0.935   9.215  17.461  0.00  0.00    +0.000 C 
ATOM     13  C   UNL     1       1.603  11.356  18.639  0.00  0.00    +0.000 C 
ATOM     14  H   UNL     1       0.356  13.903  19.279  0.00  0.00    +0.000 HD
ATOM     15  H   UNL     1       3.125   7.693  18.719  0.00  0.00    +0.000 HD
ENDROOT
BRANCH  10  16
ATOM     16  C   UNL     1       2.858   5.725  19.283  0.00  0.00    +0.000 A 
ATOM     17  C   UNL     1       4.157   5.242  19.478  0.00  0.00    +0.000 A 
ATOM     18  C   UNL     1       4.432   3.873  19.413  0.00  0.00    +0.000 A 
ATOM     19  C   UNL     1       3.403   2.969  19.169  0.00  0.00    +0.000 A 
ATOM     20  C   UNL     1       2.102   3.440  19.017  0.00  0.00    +0.000 A 
ATOM     21 CL   UNL     1       0.825   2.323  18.724  0.00  0.00    +0.000 Cl
ATOM     22  C   UNL     1       1.823   4.807  19.086  0.00  0.00    +0.000 A 
ENDBRANCH  10  16
BRANCH   1  25
ATOM     23  N   UNL     1      -2.613  12.298  22.888  0.00  0.00    +0.000 N 
ATOM     24  C   UNL     1      -3.522  12.493  21.771  0.00  0.00    +0.000 C 
ATOM     25  C   UNL     1      -1.391  11.620  22.689  0.00  0.00    +0.000 C 
ATOM     26  O   UNL     1      -0.946  10.788  23.478  0.00  0.00    +0.000 OA
BRANCH  23  28
ATOM     27  C   UNL     1      -4.260  12.665  24.472  0.00  0.00    +0.000 C 
ATOM     28  O   UNL     1      -3.336  11.702  23.970  0.00  0.00    +0.000 OA
ENDBRANCH  23  28
ENDBRANCH   1  25
TORSDOF 3
ENDMDL
MODEL 4
REMARK VINA RESULT:      -6.8      2.323      2.675
REMARK  Name = 
REMARK  6 active torsions:
REMARK  status: ('A' for Active; 'I' for Inactive)
REMARK    1  A    between atoms: C_1  and  O_2
REMARK    2  A    between atoms: O_2  and  N_3
REMARK    3  A    between atoms: N_3  and  C_4
REMARK    4  A    between atoms: C_5  and  C_7
REMARK    5  A    between atoms: N_16  and  C_17
REMARK    6  A    between atoms: C_24  and  C_25
REMARK                            x       y       z     vdW  Elec       q    Type
REMARK                         _______ _______ _______ _____ _____    ______ ____
ROOT
ATOM      1  C   UNL     1       4.572   3.811  17.264  0.00  0.00    +0.000 A 
ATOM      2  N   UNL     1       4.870   2.519  17.523  0.00  0.00    +0.000 NA
ATOM      3  N   UNL     1       4.350   2.288  18.740  0.00  0.00    +0.000 N 
ATOM      4  C   UNL     1       3.698   3.363  19.245  0.00  0.00    +0.000 A 
ATOM      5  C   UNL     1       3.833   4.375  18.342  0.00  0.00    +0.000 A 
ATOM      6  C   UNL     1       3.286   5.733  18.506  0.00  0.00    +0.000 C 
ATOM      7  N   UNL     1       2.574   5.925  19.791  0.00  0.00    +0.000 N 
ATOM      8  C   UNL     1       2.092   7.235  19.922  0.00  0.00    +0.000 C 
ATOM      9  O   UNL     1       2.318   8.072  19.049  0.00  0.00    +0.000 OA
ATOM     10  N   UNL     1       1.373   7.506  21.063  0.00  0.00    +0.000 N 
ATOM     11  C   UNL     1       2.164   4.763  20.652  0.00  0.00    +0.000 C 
ATOM     12  C   UNL     1       0.675   4.426  20.483  0.00  0.00    +0.000 C 
ATOM     13  C   UNL     1       3.014   3.457  20.547  0.00  0.00    +0.000 C 
ATOM     14  H   UNL     1       4.485   1.371  19.155  0.00  0.00    +0.000 HD
ATOM     15  H   UNL     1       1.526   6.897  21.848  0.00  0.00    +0.000 HD
ENDROOT
BRANCH  10  16
ATOM     16  C   UNL     1       0.703   8.722  21.345  0.00  0.00    +0.000 A 
ATOM     17  C   UNL     1       0.422   9.163  22.643  0.00  0.00    +0.000 A 
ATOM     18  C   UNL     1      -0.295  10.342  22.862  0.00  0.00    +0.000 A 
ATOM     19  C   UNL     1      -0.727  11.104  21.780  0.00  0.00    +0.000 A 
ATOM     20  C   UNL     1      -0.413  10.692  20.488  0.00  0.00    +0.000 A 
ATOM     21 CL   UNL     1      -0.936  11.637  19.147  0.00  0.00    +0.000 Cl
ATOM     22  C   UNL     1       0.308   9.517  20.265  0.00  0.00    +0.000 A 
ENDBRANCH  10  16
BRANCH   1  25
ATOM     23  N   UNL     1       6.074   5.421  16.165  0.00  0.00    +0.000 N 
ATOM     24  C   UNL     1       7.222   5.069  16.985  0.00  0.00    +0.000 C 
ATOM     25  C   UNL     1       5.001   4.514  16.033  0.00  0.00    +0.000 C 
ATOM     26  O   UNL     1       4.434   4.293  14.964  0.00  0.00    +0.000 OA
BRANCH  23  28
ATOM     27  C   UNL     1       7.403   4.808  14.372  0.00  0.00    +0.000 C 
ATOM     28  O   UNL     1       6.539   5.826  14.874  0.00  0.00    +0.000 OA
ENDBRANCH  23  28
ENDBRANCH   1  25
TORSDOF 3
ENDMDL
MODEL 5
REMARK VINA RESULT:      -6.4      2.389      3.019
REMARK  Name = 
REMARK  6 active torsions:
REMARK  status: ('A' for Active; 'I' for Inactive)
REMARK    1  A    between atoms: C_1  and  O_2
REMARK    2  A    between atoms: O_2  and  N_3
REMARK    3  A    between atoms: N_3  and  C_4
REMARK    4  A    between atoms: C_5  and  C_7
REMARK    5  A    between atoms: N_16  and  C_17
REMARK    6  A    between atoms: C_24  and  C_25
REMARK                            x       y       z     vdW  Elec       q    Type
REMARK                         _______ _______ _______ _____ _____    ______ ____
ROOT
ATOM      1  C   UNL     1       5.077   4.273  18.310  0.00  0.00    +0.000 A 
ATOM      2  N   UNL     1       5.279   2.950  18.498  0.00  0.00    +0.000 NA
ATOM      3  N   UNL     1       4.419   2.610  19.472  0.00  0.00    +0.000 N 
ATOM      4  C   UNL     1       3.649   3.648  19.880  0.00  0.00    +0.000 A 
ATOM      5  C   UNL     1       4.052   4.745  19.177  0.00  0.00    +0.000 A 
ATOM      6  C   UNL     1       3.485   6.098  19.325  0.00  0.00    +0.000 C 
ATOM      7  N   UNL     1       2.423   6.177  20.354  0.00  0.00    +0.000 N 
ATOM      8  C   UNL     1       1.929   7.482  20.483  0.00  0.00    +0.000 C 
ATOM      9  O   UNL     1       2.408   8.400  19.817  0.00  0.00    +0.000 OA
ATOM     10  N   UNL     1       0.902   7.657  21.384  0.00  0.00    +0.000 N 
ATOM     11  C   UNL     1       1.771   4.946  20.918  0.00  0.00    +0.000 C 
ATOM     12  C   UNL     1       0.399   4.685  20.277  0.00  0.00    +0.000 C 
ATOM     13  C   UNL     1       2.609   3.628  20.922  0.00  0.00    +0.000 C 
ATOM     14  H   UNL     1       4.421   1.650  19.802  0.00  0.00    +0.000 HD
ATOM     15  H   UNL     1       0.812   6.962  22.104  0.00  0.00    +0.000 HD
ENDROOT
BRANCH  10  16
ATOM     16  C   UNL     1       0.183   8.859  21.589  0.00  0.00    +0.000 A 
ATOM     17  C   UNL     1      -0.167   9.340  22.857  0.00  0.00    +0.000 A 
ATOM     18  C   UNL     1      -0.930  10.502  23.000  0.00  0.00    +0.000 A 
ATOM     19  C   UNL     1      -1.338  11.208  21.872  0.00  0.00    +0.000 A 
ATOM     20  C   UNL     1      -0.956  10.759  20.611  0.00  0.00    +0.000 A 
ATOM     21 CL   UNL     1      -1.451  11.635  19.214  0.00  0.00    +0.000 Cl
ATOM     22  C   UNL     1      -0.190   9.600  20.464  0.00  0.00    +0.000 A 
ENDBRANCH  10  16
BRANCH   1  25
ATOM     23  N   UNL     1       6.689   6.086  17.898  0.00  0.00    +0.000 N 
ATOM     24  C   UNL     1       7.473   5.801  19.088  0.00  0.00    +0.000 C 
ATOM     25  C   UNL     1       5.857   5.087  17.349  0.00  0.00    +0.000 C 
ATOM     26  O   UNL     1       5.765   4.875  16.141  0.00  0.00    +0.000 OA
BRANCH  23  28
ATOM     27  C   UNL     1       7.910   7.944  17.256  0.00  0.00    +0.000 C 
ATOM     28  O   UNL     1       7.558   6.611  16.890  0.00  0.00    +0.000 OA
ENDBRANCH  23  28
ENDBRANCH   1  25
TORSDOF 3
ENDMDL
MODEL 6
REMARK VINA RESULT:      -6.4      3.090      7.966
REMARK  Name = 
REMARK  6 active torsions:
REMARK  status: ('A' for Active; 'I' for Inactive)
REMARK    1  A    between atoms: C_1  and  O_2
REMARK    2  A    between atoms: O_2  and  N_3
REMARK    3  A    between atoms: N_3  and  C_4
REMARK    4  A    between atoms: C_5  and  C_7
REMARK    5  A    between atoms: N_16  and  C_17
REMARK    6  A    between atoms: C_24  and  C_25
REMARK                            x       y       z     vdW  Elec       q    Type
REMARK                         _______ _______ _______ _____ _____    ______ ____
ROOT
ATOM      1  C   UNL     1       1.831   8.354  19.582  0.00  0.00    +0.000 A 
ATOM      2  N   UNL     1       1.395   7.978  20.804  0.00  0.00    +0.000 NA
ATOM      3  N   UNL     1       1.857   6.726  20.960  0.00  0.00    +0.000 N 
ATOM      4  C   UNL     1       2.605   6.308  19.909  0.00  0.00    +0.000 A 
ATOM      5  C   UNL     1       2.598   7.312  18.987  0.00  0.00    +0.000 A 
ATOM      6  C   UNL     1       3.278   7.264  17.681  0.00  0.00    +0.000 C 
ATOM      7  N   UNL     1       3.973   5.980  17.431  0.00  0.00    +0.000 N 
ATOM      8  C   UNL     1       4.584   5.964  16.169  0.00  0.00    +0.000 C 
ATOM      9  O   UNL     1       4.468   6.923  15.407  0.00  0.00    +0.000 OA
ATOM     10  N   UNL     1       5.299   4.830  15.855  0.00  0.00    +0.000 N 
ATOM     11  C   UNL     1       4.239   4.994  18.533  0.00  0.00    +0.000 C 
ATOM     12  C   UNL     1       5.689   5.076  19.033  0.00  0.00    +0.000 C 
ATOM     13  C   UNL     1       3.261   4.999  19.751  0.00  0.00    +0.000 C 
ATOM     14  H   UNL     1       1.618   6.227  21.811  0.00  0.00    +0.000 HD
ATOM     15  H   UNL     1       5.064   3.994  16.363  0.00  0.00    +0.000 HD
ENDROOT
BRANCH  10  16
ATOM     16  C   UNL     1       6.083   4.647  14.691  0.00  0.00    +0.000 A 
ATOM     17  C   UNL     1       7.244   5.382  14.421  0.00  0.00    +0.000 A 
ATOM     18  C   UNL     1       7.947   5.203  13.227  0.00  0.00    +0.000 A 
ATOM     19  C   UNL     1       7.503   4.271  12.293  0.00  0.00    +0.000 A 
ATOM     20  C   UNL     1       6.374   3.507  12.574  0.00  0.00    +0.000 A 
ATOM     21 CL   UNL     1       5.828   2.347  11.425  0.00  0.00    +0.000 Cl
ATOM     22  C   UNL     1       5.671   3.680  13.769  0.00  0.00    +0.000 A 
ENDBRANCH  10  16
BRANCH   1  25
ATOM     23  N   UNL     1       0.599  10.482  19.674  0.00  0.00    +0.000 N 
ATOM     24  C   UNL     1       0.700  10.598  21.119  0.00  0.00    +0.000 C 
ATOM     25  C   UNL     1       1.508   9.663  18.969  0.00  0.00    +0.000 C 
ATOM     26  O   UNL     1       2.026   9.993  17.904  0.00  0.00    +0.000 OA
BRANCH  23  28
ATOM     27  C   UNL     1      -0.765  12.099  18.735  0.00  0.00    +0.000 C 
ATOM     28  O   UNL     1       0.579  11.796  19.107  0.00  0.00    +0.000 OA
ENDBRANCH  23  28
ENDBRANCH   1  25
TORSDOF 3
ENDMDL
MODEL 7
REMARK VINA RESULT:      -6.3      3.790      8.474
REMARK  Name = 
REMARK  6 active torsions:
REMARK  status: ('A' for Active; 'I' for Inactive)
REMARK    1  A    between atoms: C_1  and  O_2
REMARK    2  A    between atoms: O_2  and  N_3
REMARK    3  A    between atoms: N_3  and  C_4
REMARK    4  A    between atoms: C_5  and  C_7
REMARK    5  A    between atoms: N_16  and  C_17
REMARK    6  A    between atoms: C_24  and  C_25
REMARK                            x       y       z     vdW  Elec       q    Type
REMARK                         _______ _______ _______ _____ _____    ______ ____
ROOT
ATOM      1  C   UNL     1      -0.233  12.898  20.190  0.00  0.00    +0.000 A 
ATOM      2  N   UNL     1      -1.055  13.172  21.227  0.00  0.00    +0.000 NA
ATOM      3  N   UNL     1      -1.243  11.989  21.834  0.00  0.00    +0.000 N 
ATOM      4  C   UNL     1      -0.542  10.984  21.255  0.00  0.00    +0.000 A 
ATOM      5  C   UNL     1       0.106  11.516  20.179  0.00  0.00    +0.000 A 
ATOM      6  C   UNL     1       0.971  10.761  19.256  0.00  0.00    +0.000 C 
ATOM      7  N   UNL     1       1.064   9.320  19.588  0.00  0.00    +0.000 N 
ATOM      8  C   UNL     1       1.873   8.632  18.673  0.00  0.00    +0.000 C 
ATOM      9  O   UNL     1       2.369   9.221  17.714  0.00  0.00    +0.000 OA
ATOM     10  N   UNL     1       2.062   7.291  18.918  0.00  0.00    +0.000 N 
ATOM     11  C   UNL     1       0.607   8.781  20.915  0.00  0.00    +0.000 C 
ATOM     12  C   UNL     1       1.788   8.535  21.866  0.00  0.00    +0.000 C 
ATOM     13  C   UNL     1      -0.515   9.569  21.662  0.00  0.00    +0.000 C 
ATOM     14  H   UNL     1      -1.865  11.952  22.636  0.00  0.00    +0.000 HD
ATOM     15  H   UNL     1       1.373   6.836  19.493  0.00  0.00    +0.000 HD
ENDROOT
BRANCH  10  16
ATOM     16  C   UNL     1       2.926   6.435  18.193  0.00  0.00    +0.000 A 
ATOM     17  C   UNL     1       4.049   6.890  17.490  0.00  0.00    +0.000 A 
ATOM     18  C   UNL     1       4.833   6.010  16.741  0.00  0.00    +0.000 A 
ATOM     19  C   UNL     1       4.512   4.656  16.700  0.00  0.00    +0.000 A 
ATOM     20  C   UNL     1       3.422   4.191  17.430  0.00  0.00    +0.000 A 
ATOM     21 CL   UNL     1       3.027   2.516  17.390  0.00  0.00    +0.000 Cl
ATOM     22  C   UNL     1       2.638   5.068  18.184  0.00  0.00    +0.000 A 
ENDBRANCH  10  16
BRANCH   1  25
ATOM     23  N   UNL     1       1.259  14.767  19.608  0.00  0.00    +0.000 N 
ATOM     24  C   UNL     1       2.397  14.220  20.327  0.00  0.00    +0.000 C 
ATOM     25  C   UNL     1       0.206  13.916  19.208  0.00  0.00    +0.000 C 
ATOM     26  O   UNL     1      -0.337  13.988  18.107  0.00  0.00    +0.000 OA
BRANCH  23  28
ATOM     27  C   UNL     1       3.104  15.161  18.268  0.00  0.00    +0.000 C 
ATOM     28  O   UNL     1       1.740  15.515  18.487  0.00  0.00    +0.000 OA
ENDBRANCH  23  28
ENDBRANCH   1  25
TORSDOF 3
ENDMDL
MODEL 8
REMARK VINA RESULT:      -6.2      4.806      9.349
REMARK  Name = 
REMARK  6 active torsions:
REMARK  status: ('A' for Active; 'I' for Inactive)
REMARK    1  A    between atoms: C_1  and  O_2
REMARK    2  A    between atoms: O_2  and  N_3
REMARK    3  A    between atoms: N_3  and  C_4
REMARK    4  A    between atoms: C_5  and  C_7
REMARK    5  A    between atoms: N_16  and  C_17
REMARK    6  A    between atoms: C_24  and  C_25
REMARK                            x       y       z     vdW  Elec       q    Type
REMARK                         _______ _______ _______ _____ _____    ______ ____
ROOT
ATOM      1  C   UNL     1      -0.075  12.542  20.773  0.00  0.00    +0.000 A 
ATOM      2  N   UNL     1       0.213  13.639  20.038  0.00  0.00    +0.000 NA
ATOM      3  N   UNL     1       1.065  13.203  19.096  0.00  0.00    +0.000 N 
ATOM      4  C   UNL     1       1.298  11.870  19.174  0.00  0.00    +0.000 A 
ATOM      5  C   UNL     1       0.604  11.405  20.251  0.00  0.00    +0.000 A 
ATOM      6  C   UNL     1       0.593  10.004  20.708  0.00  0.00    +0.000 C 
ATOM      7  N   UNL     1       1.447   9.115  19.887  0.00  0.00    +0.000 N 
ATOM      8  C   UNL     1       1.432   7.798  20.369  0.00  0.00    +0.000 C 
ATOM      9  O   UNL     1       0.795   7.513  21.383  0.00  0.00    +0.000 OA
ATOM     10  N   UNL     1       2.159   6.879  19.648  0.00  0.00    +0.000 N 
ATOM     11  C   UNL     1       1.974   9.538  18.545  0.00  0.00    +0.000 C 
ATOM     12  C   UNL     1       1.154   8.935  17.396  0.00  0.00    +0.000 C 
ATOM     13  C   UNL     1       2.174  11.068  18.303  0.00  0.00    +0.000 C 
ATOM     14  H   UNL     1       1.443  13.879  18.439  0.00  0.00    +0.000 HD
ATOM     15  H   UNL     1       2.895   7.243  19.067  0.00  0.00    +0.000 HD
ENDROOT
BRANCH  10  16
ATOM     16  C   UNL     1       2.191   5.484  19.887  0.00  0.00    +0.000 A 
ATOM     17  C   UNL     1       2.197   4.922  21.170  0.00  0.00    +0.000 A 
ATOM     18  C   UNL     1       2.290   3.540  21.349  0.00  0.00    +0.000 A 
ATOM     19  C   UNL     1       2.362   2.699  20.242  0.00  0.00    +0.000 A 
ATOM     20  C   UNL     1       2.314   3.249  18.964  0.00  0.00    +0.000 A 
ATOM     21 CL   UNL     1       2.393   2.211  17.592  0.00  0.00    +0.000 Cl
ATOM     22  C   UNL     1       2.216   4.630  18.781  0.00  0.00    +0.000 A 
ENDBRANCH  10  16
BRANCH   1  25
ATOM     23  N   UNL     1      -2.281  13.002  21.762  0.00  0.00    +0.000 N 
ATOM     24  C   UNL     1      -3.016  12.557  20.590  0.00  0.00    +0.000 C 
ATOM     25  C   UNL     1      -0.953  12.569  21.966  0.00  0.00    +0.000 C 
ATOM     26  O   UNL     1      -0.518  12.220  23.062  0.00  0.00    +0.000 OA
BRANCH  23  28
ATOM     27  C   UNL     1      -4.435  12.991  22.607  0.00  0.00    +0.000 C 
ATOM     28  O   UNL     1      -3.069  12.737  22.927  0.00  0.00    +0.000 OA
ENDBRANCH  23  28
ENDBRANCH   1  25
TORSDOF 3
ENDMDL
MODEL 9
REMARK VINA RESULT:      -6.2      4.961     10.230
REMARK  Name = 
REMARK  6 active torsions:
REMARK  status: ('A' for Active; 'I' for Inactive)
REMARK    1  A    between atoms: C_1  and  O_2
REMARK    2  A    between atoms: O_2  and  N_3
REMARK    3  A    between atoms: N_3  and  C_4
REMARK    4  A    between atoms: C_5  and  C_7
REMARK    5  A    between atoms: N_16  and  C_17
REMARK    6  A    between atoms: C_24  and  C_25
REMARK                            x       y       z     vdW  Elec       q    Type
REMARK                         _______ _______ _______ _____ _____    ______ ____
ROOT
ATOM      1  C   UNL     1      -1.994  13.054  21.931  0.00  0.00    +0.000 A 
ATOM      2  N   UNL     1      -1.673  14.364  21.854  0.00  0.00    +0.000 NA
ATOM      3  N   UNL     1      -0.413  14.379  21.390  0.00  0.00    +0.000 N 
ATOM      4  C   UNL     1       0.065  13.138  21.126  0.00  0.00    +0.000 A 
ATOM      5  C   UNL     1      -0.908  12.251  21.481  0.00  0.00    +0.000 A 
ATOM      6  C   UNL     1      -0.795  10.785  21.374  0.00  0.00    +0.000 C 
ATOM      7  N   UNL     1       0.518  10.337  20.856  0.00  0.00    +0.000 N 
ATOM      8  C   UNL     1       0.597   8.939  20.795  0.00  0.00    +0.000 C 
ATOM      9  O   UNL     1      -0.340   8.244  21.187  0.00  0.00    +0.000 OA
ATOM     10  N   UNL     1       1.763   8.418  20.283  0.00  0.00    +0.000 N 
ATOM     11  C   UNL     1       1.476  11.287  20.193  0.00  0.00    +0.000 C 
ATOM     12  C   UNL     1       1.425  11.169  18.662  0.00  0.00    +0.000 C 
ATOM     13  C   UNL     1       1.399  12.790  20.609  0.00  0.00    +0.000 C 
ATOM     14  H   UNL     1       0.050  15.276  21.281  0.00  0.00    +0.000 HD
ATOM     15  H   UNL     1       2.573   9.012  20.312  0.00  0.00    +0.000 HD
ENDROOT
BRANCH  10  16
ATOM     16  C   UNL     1       2.009   7.047  20.026  0.00  0.00    +0.000 A 
ATOM     17  C   UNL     1       1.602   6.018  20.884  0.00  0.00    +0.000 A 
ATOM     18  C   UNL     1       1.925   4.686  20.612  0.00  0.00    +0.000 A 
ATOM     19  C   UNL     1       2.647   4.366  19.466  0.00  0.00    +0.000 A 
ATOM     20  C   UNL     1       3.018   5.380  18.588  0.00  0.00    +0.000 A 
ATOM     21 CL   UNL     1       3.904   4.987  17.165  0.00  0.00    +0.000 Cl
ATOM     22  C   UNL     1       2.694   6.713  18.854  0.00  0.00    +0.000 A 
ENDBRANCH  10  16
BRANCH   1  25
ATOM     23  N   UNL     1      -4.440  12.908  21.701  0.00  0.00    +0.000 N 
ATOM     24  C   UNL     1      -4.404  12.845  20.250  0.00  0.00    +0.000 C 
ATOM     25  C   UNL     1      -3.292  12.563  22.448  0.00  0.00    +0.000 C 
ATOM     26  O   UNL     1      -3.335  11.887  23.474  0.00  0.00    +0.000 OA
BRANCH  23  28
ATOM     27  C   UNL     1      -6.672  13.065  22.292  0.00  0.00    +0.000 C 
ATOM     28  O   UNL     1      -5.571  12.166  22.166  0.00  0.00    +0.000 OA
ENDBRANCH  23  28
ENDBRANCH   1  25
TORSDOF 3
ENDMDL
