MODEL 1
REMARK VINA RESULT:      -7.6      0.000      0.000
REMARK  Name = 
REMARK  9 active torsions:
REMARK  status: ('A' for Active; 'I' for Inactive)
REMARK    1  A    between atoms: C_1  and  C_2
REMARK    2  A    between atoms: C_2  and  C_3
REMARK    3  A    between atoms: C_4  and  C_5
REMARK    4  A    between atoms: C_5  and  O_7
REMARK    5  A    between atoms: O_7  and  C_8
REMARK    6  A    between atoms: C_8  and  C_9
REMARK    7  A    between atoms: C_9  and  C_10
REMARK    8  A    between atoms: C_13  and  N_14
REMARK    9  A    between atoms: N_14  and  C_15
REMARK                            x       y       z     vdW  Elec       q    Type
REMARK                         _______ _______ _______ _____ _____    ______ ____
ROOT
ATOM      1  C   UNL     1       5.013   4.054  19.262  0.00  0.00    +0.000 C 
ATOM      2  O   UNL     1       5.128   3.056  19.962  0.00  0.00    +0.000 OA
ENDROOT
BRANCH   1   4
ATOM      3  C   UNL     1       6.626   4.930  17.466  0.00  0.00    +0.000 A 
ATOM      4  C   UNL     1       5.523   4.210  17.918  0.00  0.00    +0.000 A 
ATOM      5  N   UNL     1       4.958   3.612  16.814  0.00  0.00    +0.000 N 
ATOM      6  C   UNL     1       5.646   3.927  15.667  0.00  0.00    +0.000 A 
ATOM      7  C   UNL     1       5.434   3.522  14.344  0.00  0.00    +0.000 A 
ATOM      8  C   UNL     1       6.285   4.044  13.364  0.00  0.00    +0.000 A 
ATOM      9  C   UNL     1       7.299   4.936  13.705  0.00  0.00    +0.000 A 
ATOM     10 CL   UNL     1       8.308   5.587  12.469  0.00  0.00    +0.000 Cl
ATOM     11  C   UNL     1       7.513   5.314  15.033  0.00  0.00    +0.000 A 
ATOM     12  C   UNL     1       6.676   4.787  16.039  0.00  0.00    +0.000 A 
ATOM     13  H   UNL     1       4.145   3.012  16.853  0.00  0.00    +0.000 HD
BRANCH   3  15
ATOM     14  C   UNL     1       7.614   7.203  17.872  0.00  0.00    +0.000 C 
ATOM     15  C   UNL     1       7.584   5.739  18.288  0.00  0.00    +0.000 C 
ENDBRANCH   3  15
ENDBRANCH   1   4
BRANCH   1  16
ATOM     16  O   UNL     1       4.400   5.209  19.654  0.00  0.00    +0.000 OA
BRANCH  16  17
ATOM     17  C   UNL     1       3.146   5.492  19.006  0.00  0.00    +0.000 C 
BRANCH  17  18
ATOM     18  C   UNL     1       3.197   6.783  18.180  0.00  0.00    +0.000 C 
BRANCH  18  19
ATOM     19  C   UNL     1       2.254   7.828  18.723  0.00  0.00    +0.000 A 
ATOM     20  C   UNL     1       1.801   8.868  17.904  0.00  0.00    +0.000 A 
ATOM     21  C   UNL     1       0.993   9.883  18.428  0.00  0.00    +0.000 A 
ATOM     22  C   UNL     1       0.589   9.883  19.772  0.00  0.00    +0.000 A 
ATOM     23  C   UNL     1       1.054   8.840  20.580  0.00  0.00    +0.000 A 
ATOM     24  C   UNL     1       1.868   7.821  20.065  0.00  0.00    +0.000 A 
BRANCH  22  25
ATOM     25  N   UNL     1      -0.110  10.986  20.265  0.00  0.00    +0.000 N 
ATOM     26  C   UNL     1      -0.629  10.996  21.623  0.00  0.00    +0.000 C 
ATOM     27  H   UNL     1      -0.793  11.340  19.600  0.00  0.00    +0.000 HD
ENDBRANCH  22  25
ENDBRANCH  18  19
ENDBRANCH  17  18
ENDBRANCH  16  17
ENDBRANCH   1  16
TORSDOF 7
ENDMDL
MODEL 2
REMARK VINA RESULT:      -7.5      1.804      3.129
REMARK  Name = 
REMARK  9 active torsions:
REMARK  status: ('A' for Active; 'I' for Inactive)
REMARK    1  A    between atoms: C_1  and  C_2
REMARK    2  A    between atoms: C_2  and  C_3
REMARK    3  A    between atoms: C_4  and  C_5
REMARK    4  A    between atoms: C_5  and  O_7
REMARK    5  A    between atoms: O_7  and  C_8
REMARK    6  A    between atoms: C_8  and  C_9
REMARK    7  A    between atoms: C_9  and  C_10
REMARK    8  A    between atoms: C_13  and  N_14
REMARK    9  A    between atoms: N_14  and  C_15
REMARK                            x       y       z     vdW  Elec       q    Type
REMARK                         _______ _______ _______ _____ _____    ______ ____
ROOT
ATOM      1  C   UNL     1       3.064   3.044  20.443  0.00  0.00    +0.000 C 
ATOM      2  O   UNL     1       3.428   2.431  21.438  0.00  0.00    +0.000 OA
ENDROOT
BRANCH   1   4
ATOM      3  C   UNL     1       3.622   3.448  17.969  0.00  0.00    +0.000 A 
ATOM      4  C   UNL     1       3.905   3.433  19.333  0.00  0.00    +0.000 A 
ATOM      5  N   UNL     1       5.194   3.892  19.477  0.00  0.00    +0.000 N 
ATOM      6  C   UNL     1       5.758   4.192  18.261  0.00  0.00    +0.000 A 
ATOM      7  C   UNL     1       7.024   4.702  17.950  0.00  0.00    +0.000 A 
ATOM      8  C   UNL     1       7.339   4.871  16.598  0.00  0.00    +0.000 A 
ATOM      9  C   UNL     1       6.421   4.535  15.606  0.00  0.00    +0.000 A 
ATOM     10 CL   UNL     1       6.853   4.724  13.949  0.00  0.00    +0.000 Cl
ATOM     11  C   UNL     1       5.153   4.048  15.932  0.00  0.00    +0.000 A 
ATOM     12  C   UNL     1       4.808   3.884  17.290  0.00  0.00    +0.000 A 
ATOM     13  H   UNL     1       5.658   4.000  20.370  0.00  0.00    +0.000 HD
BRANCH   3  15
ATOM     14  C   UNL     1       1.339   4.205  17.249  0.00  0.00    +0.000 C 
ATOM     15  C   UNL     1       2.337   3.057  17.302  0.00  0.00    +0.000 C 
ENDBRANCH   3  15
ENDBRANCH   1   4
BRANCH   1  16
ATOM     16  O   UNL     1       1.793   3.492  20.231  0.00  0.00    +0.000 OA
BRANCH  16  17
ATOM     17  C   UNL     1       1.498   4.794  20.772  0.00  0.00    +0.000 C 
BRANCH  17  18
ATOM     18  C   UNL     1       2.668   5.771  20.605  0.00  0.00    +0.000 C 
BRANCH  18  19
ATOM     19  C   UNL     1       2.227   7.059  19.955  0.00  0.00    +0.000 A 
ATOM     20  C   UNL     1       1.467   7.990  20.670  0.00  0.00    +0.000 A 
ATOM     21  C   UNL     1       0.988   9.147  20.044  0.00  0.00    +0.000 A 
ATOM     22  C   UNL     1       1.269   9.426  18.698  0.00  0.00    +0.000 A 
ATOM     23  C   UNL     1       2.025   8.483  17.993  0.00  0.00    +0.000 A 
ATOM     24  C   UNL     1       2.505   7.319  18.611  0.00  0.00    +0.000 A 
BRANCH  22  25
ATOM     25  N   UNL     1       0.660  10.528  18.097  0.00  0.00    +0.000 N 
ATOM     26  C   UNL     1       0.548  11.796  18.799  0.00  0.00    +0.000 C 
ATOM     27  H   UNL     1      -0.207  10.282  17.626  0.00  0.00    +0.000 HD
ENDBRANCH  22  25
ENDBRANCH  18  19
ENDBRANCH  17  18
ENDBRANCH  16  17
ENDBRANCH   1  16
TORSDOF 7
ENDMDL
MODEL 3
REMARK VINA RESULT:      -7.5      0.863      1.295
REMARK  Name = 
REMARK  9 active torsions:
REMARK  status: ('A' for Active; 'I' for Inactive)
REMARK    1  A    between atoms: C_1  and  C_2
REMARK    2  A    between atoms: C_2  and  C_3
REMARK    3  A    between atoms: C_4  and  C_5
REMARK    4  A    between atoms: C_5  and  O_7
REMARK    5  A    between atoms: O_7  and  C_8
REMARK    6  A    between atoms: C_8  and  C_9
REMARK    7  A    between atoms: C_9  and  C_10
REMARK    8  A    between atoms: C_13  and  N_14
REMARK    9  A    between atoms: N_14  and  C_15
REMARK                            x       y       z     vdW  Elec       q    Type
REMARK                         _______ _______ _______ _____ _____    ______ ____
ROOT
ATOM      1  C   UNL     1       4.935   3.939  19.262  0.00  0.00    +0.000 C 
ATOM      2  O   UNL     1       4.966   2.899  19.908  0.00  0.00    +0.000 OA
ENDROOT
BRANCH   1   4
ATOM      3  C   UNL     1       6.590   4.821  17.507  0.00  0.00    +0.000 A 
ATOM      4  C   UNL     1       5.461   4.123  17.927  0.00  0.00    +0.000 A 
ATOM      5  N   UNL     1       4.886   3.581  16.800  0.00  0.00    +0.000 N 
ATOM      6  C   UNL     1       5.593   3.911  15.669  0.00  0.00    +0.000 A 
ATOM      7  C   UNL     1       5.378   3.558  14.332  0.00  0.00    +0.000 A 
ATOM      8  C   UNL     1       6.253   4.084  13.376  0.00  0.00    +0.000 A 
ATOM      9  C   UNL     1       7.294   4.930  13.753  0.00  0.00    +0.000 A 
ATOM     10 CL   UNL     1       8.334   5.588  12.547  0.00  0.00    +0.000 Cl
ATOM     11  C   UNL     1       7.509   5.256  15.095  0.00  0.00    +0.000 A 
ATOM     12  C   UNL     1       6.647   4.724  16.077  0.00  0.00    +0.000 A 
ATOM     13  H   UNL     1       4.053   3.007  16.812  0.00  0.00    +0.000 HD
BRANCH   3  15
ATOM     14  C   UNL     1       7.590   7.059  18.052  0.00  0.00    +0.000 C 
ATOM     15  C   UNL     1       7.568   5.570  18.363  0.00  0.00    +0.000 C 
ENDBRANCH   3  15
ENDBRANCH   1   4
BRANCH   1  16
ATOM     16  O   UNL     1       4.417   5.117  19.714  0.00  0.00    +0.000 OA
BRANCH  16  17
ATOM     17  C   UNL     1       3.127   5.469  19.181  0.00  0.00    +0.000 C 
BRANCH  17  18
ATOM     18  C   UNL     1       2.274   6.248  20.190  0.00  0.00    +0.000 C 
BRANCH  18  19
ATOM     19  C   UNL     1       1.902   7.613  19.667  0.00  0.00    +0.000 A 
ATOM     20  C   UNL     1       2.291   8.011  18.384  0.00  0.00    +0.000 A 
ATOM     21  C   UNL     1       2.019   9.306  17.929  0.00  0.00    +0.000 A 
ATOM     22  C   UNL     1       1.330  10.235  18.723  0.00  0.00    +0.000 A 
ATOM     23  C   UNL     1       0.951   9.826  20.006  0.00  0.00    +0.000 A 
ATOM     24  C   UNL     1       1.225   8.532  20.472  0.00  0.00    +0.000 A 
BRANCH  22  25
ATOM     25  N   UNL     1       1.198  11.547  18.264  0.00  0.00    +0.000 N 
ATOM     26  C   UNL     1       2.339  12.447  18.236  0.00  0.00    +0.000 C 
ATOM     27  H   UNL     1       0.368  12.004  18.631  0.00  0.00    +0.000 HD
ENDBRANCH  22  25
ENDBRANCH  18  19
ENDBRANCH  17  18
ENDBRANCH  16  17
ENDBRANCH   1  16
TORSDOF 7
ENDMDL
MODEL 4
REMARK VINA RESULT:      -7.5      4.366      6.287
REMARK  Name = 
REMARK  9 active torsions:
REMARK  status: ('A' for Active; 'I' for Inactive)
REMARK    1  A    between atoms: C_1  and  C_2
REMARK    2  A    between atoms: C_2  and  C_3
REMARK    3  A    between atoms: C_4  and  C_5
REMARK    4  A    between atoms: C_5  and  O_7
REMARK    5  A    between atoms: O_7  and  C_8
REMARK    6  A    between atoms: C_8  and  C_9
REMARK    7  A    between atoms: C_9  and  C_10
REMARK    8  A    between atoms: C_13  and  N_14
REMARK    9  A    between atoms: N_14  and  C_15
REMARK                            x       y       z     vdW  Elec       q    Type
REMARK                         _______ _______ _______ _____ _____    ______ ____
ROOT
ATOM      1  C   UNL     1       6.946   6.444  17.727  0.00  0.00    +0.000 C 
ATOM      2  O   UNL     1       7.196   5.880  18.785  0.00  0.00    +0.000 OA
ENDROOT
BRANCH   1   4
ATOM      3  C   UNL     1       5.578   5.096  16.022  0.00  0.00    +0.000 A 
ATOM      4  C   UNL     1       6.701   5.795  16.459  0.00  0.00    +0.000 A 
ATOM      5  N   UNL     1       7.603   5.787  15.419  0.00  0.00    +0.000 N 
ATOM      6  C   UNL     1       7.112   5.103  14.334  0.00  0.00    +0.000 A 
ATOM      7  C   UNL     1       7.679   4.873  13.075  0.00  0.00    +0.000 A 
ATOM      8  C   UNL     1       6.950   4.094  12.170  0.00  0.00    +0.000 A 
ATOM      9  C   UNL     1       5.709   3.570  12.522  0.00  0.00    +0.000 A 
ATOM     10 CL   UNL     1       4.852   2.587  11.395  0.00  0.00    +0.000 Cl
ATOM     11  C   UNL     1       5.145   3.826  13.774  0.00  0.00    +0.000 A 
ATOM     12  C   UNL     1       5.857   4.621  14.697  0.00  0.00    +0.000 A 
ATOM     13  H   UNL     1       8.508   6.238  15.455  0.00  0.00    +0.000 HD
BRANCH   3  15
ATOM     14  C   UNL     1       4.407   3.622  17.684  0.00  0.00    +0.000 C 
ATOM     15  C   UNL     1       4.310   4.844  16.783  0.00  0.00    +0.000 C 
ENDBRANCH   3  15
ENDBRANCH   1   4
BRANCH   1  16
ATOM     16  O   UNL     1       6.884   7.797  17.566  0.00  0.00    +0.000 OA
BRANCH  16  17
ATOM     17  C   UNL     1       8.156   8.469  17.492  0.00  0.00    +0.000 C 
BRANCH  17  18
ATOM     18  C   UNL     1       8.579   9.061  18.842  0.00  0.00    +0.000 C 
BRANCH  18  19
ATOM     19  C   UNL     1       9.129  10.458  18.687  0.00  0.00    +0.000 A 
ATOM     20  C   UNL     1      10.186  10.896  19.491  0.00  0.00    +0.000 A 
ATOM     21  C   UNL     1      10.641  12.217  19.406  0.00  0.00    +0.000 A 
ATOM     22  C   UNL     1      10.080  13.133  18.504  0.00  0.00    +0.000 A 
ATOM     23  C   UNL     1       9.020  12.683  17.710  0.00  0.00    +0.000 A 
ATOM     24  C   UNL     1       8.553  11.363  17.792  0.00  0.00    +0.000 A 
BRANCH  22  25
ATOM     25  N   UNL     1      10.491  14.466  18.554  0.00  0.00    +0.000 N 
ATOM     26  C   UNL     1      10.776  15.114  19.823  0.00  0.00    +0.000 C 
ATOM     27  H   UNL     1       9.941  15.064  17.942  0.00  0.00    +0.000 HD
ENDBRANCH  22  25
ENDBRANCH  18  19
ENDBRANCH  17  18
ENDBRANCH  16  17
ENDBRANCH   1  16
TORSDOF 7
ENDMDL
MODEL 5
REMARK VINA RESULT:      -7.5      4.719      6.635
REMARK  Name = 
REMARK  9 active torsions:
REMARK  status: ('A' for Active; 'I' for Inactive)
REMARK    1  A    between atoms: C_1  and  C_2
REMARK    2  A    between atoms: C_2  and  C_3
REMARK    3  A    between atoms: C_4  and  C_5
REMARK    4  A    between atoms: C_5  and  O_7
REMARK    5  A    between atoms: O_7  and  C_8
REMARK    6  A    between atoms: C_8  and  C_9
REMARK    7  A    between atoms: C_9  and  C_10
REMARK    8  A    between atoms: C_13  and  N_14
REMARK    9  A    between atoms: N_14  and  C_15
REMARK                            x       y       z     vdW  Elec       q    Type
REMARK                         _______ _______ _______ _____ _____    ______ ____
ROOT
ATOM      1  C   UNL     1       7.559   4.822  17.677  0.00  0.00    +0.000 C 
ATOM      2  O   UNL     1       8.603   4.199  17.820  0.00  0.00    +0.000 OA
ENDROOT
BRANCH   1   4
ATOM      3  C   UNL     1       5.082   4.326  17.214  0.00  0.00    +0.000 A 
ATOM      4  C   UNL     1       6.234   4.340  17.997  0.00  0.00    +0.000 A 
ATOM      5  N   UNL     1       5.901   3.769  19.204  0.00  0.00    +0.000 N 
ATOM      6  C   UNL     1       4.579   3.398  19.235  0.00  0.00    +0.000 A 
ATOM      7  C   UNL     1       3.838   2.771  20.244  0.00  0.00    +0.000 A 
ATOM      8  C   UNL     1       2.477   2.551  20.004  0.00  0.00    +0.000 A 
ATOM      9  C   UNL     1       1.892   2.950  18.805  0.00  0.00    +0.000 A 
ATOM     10 CL   UNL     1       0.207   2.694  18.555  0.00  0.00    +0.000 Cl
ATOM     11  C   UNL     1       2.649   3.555  17.799  0.00  0.00    +0.000 A 
ATOM     12  C   UNL     1       4.026   3.773  18.013  0.00  0.00    +0.000 A 
ATOM     13  H   UNL     1       6.555   3.636  19.964  0.00  0.00    +0.000 HD
BRANCH   3  15
ATOM     14  C   UNL     1       5.669   3.942  14.803  0.00  0.00    +0.000 C 
ATOM     15  C   UNL     1       4.933   4.819  15.805  0.00  0.00    +0.000 C 
ENDBRANCH   3  15
ENDBRANCH   1   4
BRANCH   1  16
ATOM     16  O   UNL     1       7.473   6.081  17.158  0.00  0.00    +0.000 OA
BRANCH  16  17
ATOM     17  C   UNL     1       7.904   7.140  18.034  0.00  0.00    +0.000 C 
BRANCH  17  18
ATOM     18  C   UNL     1       7.453   8.521  17.541  0.00  0.00    +0.000 C 
BRANCH  18  19
ATOM     19  C   UNL     1       8.310   9.622  18.113  0.00  0.00    +0.000 A 
ATOM     20  C   UNL     1       9.062   9.405  19.272  0.00  0.00    +0.000 A 
ATOM     21  C   UNL     1       9.793  10.450  19.850  0.00  0.00    +0.000 A 
ATOM     22  C   UNL     1       9.819  11.733  19.282  0.00  0.00    +0.000 A 
ATOM     23  C   UNL     1       9.058  11.937  18.126  0.00  0.00    +0.000 A 
ATOM     24  C   UNL     1       8.319  10.897  17.543  0.00  0.00    +0.000 A 
BRANCH  22  25
ATOM     25  N   UNL     1      10.462  12.762  19.971  0.00  0.00    +0.000 N 
ATOM     26  C   UNL     1       9.832  13.407  21.111  0.00  0.00    +0.000 C 
ATOM     27  H   UNL     1      10.889  13.440  19.345  0.00  0.00    +0.000 HD
ENDBRANCH  22  25
ENDBRANCH  18  19
ENDBRANCH  17  18
ENDBRANCH  16  17
ENDBRANCH   1  16
TORSDOF 7
ENDMDL
MODEL 6
REMARK VINA RESULT:      -7.5      1.676      2.976
REMARK  Name = 
REMARK  9 active torsions:
REMARK  status: ('A' for Active; 'I' for Inactive)
REMARK    1  A    between atoms: C_1  and  C_2
REMARK    2  A    between atoms: C_2  and  C_3
REMARK    3  A    between atoms: C_4  and  C_5
REMARK    4  A    between atoms: C_5  and  O_7
REMARK    5  A    between atoms: O_7  and  C_8
REMARK    6  A    between atoms: C_8  and  C_9
REMARK    7  A    between atoms: C_9  and  C_10
REMARK    8  A    between atoms: C_13  and  N_14
REMARK    9  A    between atoms: N_14  and  C_15
REMARK                            x       y       z     vdW  Elec       q    Type
REMARK                         _______ _______ _______ _____ _____    ______ ____
ROOT
ATOM      1  C   UNL     1       3.128   3.522  20.397  0.00  0.00    +0.000 C 
ATOM      2  O   UNL     1       2.685   2.432  20.736  0.00  0.00    +0.000 OA
ENDROOT
BRANCH   1   4
ATOM      3  C   UNL     1       3.673   3.655  17.891  0.00  0.00    +0.000 A 
ATOM      4  C   UNL     1       3.967   3.775  19.247  0.00  0.00    +0.000 A 
ATOM      5  N   UNL     1       5.267   4.219  19.334  0.00  0.00    +0.000 N 
ATOM      6  C   UNL     1       5.826   4.379  18.089  0.00  0.00    +0.000 A 
ATOM      7  C   UNL     1       7.099   4.827  17.719  0.00  0.00    +0.000 A 
ATOM      8  C   UNL     1       7.406   4.848  16.355  0.00  0.00    +0.000 A 
ATOM      9  C   UNL     1       6.472   4.431  15.409  0.00  0.00    +0.000 A 
ATOM     10 CL   UNL     1       6.893   4.438  13.738  0.00  0.00    +0.000 Cl
ATOM     11  C   UNL     1       5.197   4.008  15.792  0.00  0.00    +0.000 A 
ATOM     12  C   UNL     1       4.861   3.993  17.162  0.00  0.00    +0.000 A 
ATOM     13  H   UNL     1       5.741   4.409  20.207  0.00  0.00    +0.000 HD
BRANCH   3  15
ATOM     14  C   UNL     1       1.305   4.306  17.363  0.00  0.00    +0.000 C 
ATOM     15  C   UNL     1       2.374   3.226  17.277  0.00  0.00    +0.000 C 
ENDBRANCH   3  15
ENDBRANCH   1   4
BRANCH   1  16
ATOM     16  O   UNL     1       2.923   4.687  21.077  0.00  0.00    +0.000 OA
BRANCH  16  17
ATOM     17  C   UNL     1       1.898   5.544  20.538  0.00  0.00    +0.000 C 
BRANCH  17  18
ATOM     18  C   UNL     1       2.482   6.758  19.805  0.00  0.00    +0.000 C 
BRANCH  18  19
ATOM     19  C   UNL     1       1.658   7.999  20.043  0.00  0.00    +0.000 A 
ATOM     20  C   UNL     1       1.041   8.215  21.279  0.00  0.00    +0.000 A 
ATOM     21  C   UNL     1       0.209   9.323  21.473  0.00  0.00    +0.000 A 
ATOM     22  C   UNL     1      -0.014  10.264  20.457  0.00  0.00    +0.000 A 
ATOM     23  C   UNL     1       0.605  10.033  19.224  0.00  0.00    +0.000 A 
ATOM     24  C   UNL     1       1.436   8.922  19.018  0.00  0.00    +0.000 A 
BRANCH  22  25
ATOM     25  N   UNL     1      -0.950  11.277  20.669  0.00  0.00    +0.000 N 
ATOM     26  C   UNL     1      -1.464  12.066  19.562  0.00  0.00    +0.000 C 
ATOM     27  H   UNL     1      -0.714  11.861  21.468  0.00  0.00    +0.000 HD
ENDBRANCH  22  25
ENDBRANCH  18  19
ENDBRANCH  17  18
ENDBRANCH  16  17
ENDBRANCH   1  16
TORSDOF 7
ENDMDL
MODEL 7
REMARK VINA RESULT:      -7.4      4.827      7.214
REMARK  Name = 
REMARK  9 active torsions:
REMARK  status: ('A' for Active; 'I' for Inactive)
REMARK    1  A    between atoms: C_1  and  C_2
REMARK    2  A    between atoms: C_2  and  C_3
REMARK    3  A    between atoms: C_4  and  C_5
REMARK    4  A    between atoms: C_5  and  O_7
REMARK    5  A    between atoms: O_7  and  C_8
REMARK    6  A    between atoms: C_8  and  C_9
REMARK    7  A    between atoms: C_9  and  C_10
REMARK    8  A    between atoms: C_13  and  N_14
REMARK    9  A    between atoms: N_14  and  C_15
REMARK                            x       y       z     vdW  Elec       q    Type
REMARK                         _______ _______ _______ _____ _____    ______ ____
ROOT
ATOM      1  C   UNL     1       6.837   6.889  17.103  0.00  0.00    +0.000 C 
ATOM      2  O   UNL     1       7.643   6.564  16.240  0.00  0.00    +0.000 OA
ENDROOT
BRANCH   1   4
ATOM      3  C   UNL     1       5.232   4.885  17.064  0.00  0.00    +0.000 A 
ATOM      4  C   UNL     1       5.678   6.127  17.509  0.00  0.00    +0.000 A 
ATOM      5  N   UNL     1       4.791   6.543  18.477  0.00  0.00    +0.000 N 
ATOM      6  C   UNL     1       3.787   5.625  18.665  0.00  0.00    +0.000 A 
ATOM      7  C   UNL     1       2.706   5.635  19.553  0.00  0.00    +0.000 A 
ATOM      8  C   UNL     1       1.807   4.565  19.490  0.00  0.00    +0.000 A 
ATOM      9  C   UNL     1       1.991   3.535  18.570  0.00  0.00    +0.000 A 
ATOM     10 CL   UNL     1       0.847   2.249  18.496  0.00  0.00    +0.000 Cl
ATOM     11  C   UNL     1       3.087   3.528  17.705  0.00  0.00    +0.000 A 
ATOM     12  C   UNL     1       4.014   4.590  17.762  0.00  0.00    +0.000 A 
ATOM     13  H   UNL     1       4.881   7.413  18.985  0.00  0.00    +0.000 HD
BRANCH   3  15
ATOM     14  C   UNL     1       5.424   4.361  14.615  0.00  0.00    +0.000 C 
ATOM     15  C   UNL     1       5.869   4.008  16.027  0.00  0.00    +0.000 C 
ENDBRANCH   3  15
ENDBRANCH   1   4
BRANCH   1  16
ATOM     16  O   UNL     1       6.887   8.054  17.811  0.00  0.00    +0.000 OA
BRANCH  16  17
ATOM     17  C   UNL     1       8.039   8.881  17.559  0.00  0.00    +0.000 C 
BRANCH  17  18
ATOM     18  C   UNL     1       8.807   9.214  18.844  0.00  0.00    +0.000 C 
BRANCH  18  19
ATOM     19  C   UNL     1       9.297  10.641  18.844  0.00  0.00    +0.000 A 
ATOM     20  C   UNL     1       8.891  11.530  17.843  0.00  0.00    +0.000 A 
ATOM     21  C   UNL     1       9.409  12.830  17.795  0.00  0.00    +0.000 A 
ATOM     22  C   UNL     1      10.324  13.293  18.752  0.00  0.00    +0.000 A 
ATOM     23  C   UNL     1      10.725  12.392  19.744  0.00  0.00    +0.000 A 
ATOM     24  C   UNL     1      10.215  11.087  19.797  0.00  0.00    +0.000 A 
BRANCH  22  25
ATOM     25  N   UNL     1      10.899  14.554  18.579  0.00  0.00    +0.000 N 
ATOM     26  C   UNL     1      11.033  15.139  17.256  0.00  0.00    +0.000 C 
ATOM     27  H   UNL     1      11.746  14.671  19.130  0.00  0.00    +0.000 HD
ENDBRANCH  22  25
ENDBRANCH  18  19
ENDBRANCH  17  18
ENDBRANCH  16  17
ENDBRANCH   1  16
TORSDOF 7
ENDMDL
MODEL 8
REMARK VINA RESULT:      -7.4      4.466      6.106
REMARK  Name = 
REMARK  9 active torsions:
REMARK  status: ('A' for Active; 'I' for Inactive)
REMARK    1  A    between atoms: C_1  and  C_2
REMARK    2  A    between atoms: C_2  and  C_3
REMARK    3  A    between atoms: C_4  and  C_5
REMARK    4  A    between atoms: C_5  and  O_7
REMARK    5  A    between atoms: O_7  and  C_8
REMARK    6  A    between atoms: C_8  and  C_9
REMARK    7  A    between atoms: C_9  and  C_10
REMARK    8  A    between atoms: C_13  and  N_14
REMARK    9  A    between atoms: N_14  and  C_15
REMARK                            x       y       z     vdW  Elec       q    Type
REMARK                         _______ _______ _______ _____ _____    ______ ____
ROOT
ATOM      1  C   UNL     1       7.097   6.382  17.498  0.00  0.00    +0.000 C 
ATOM      2  O   UNL     1       7.308   5.828  18.570  0.00  0.00    +0.000 OA
ENDROOT
BRANCH   1   4
ATOM      3  C   UNL     1       5.655   5.034  15.856  0.00  0.00    +0.000 A 
ATOM      4  C   UNL     1       6.801   5.721  16.247  0.00  0.00    +0.000 A 
ATOM      5  N   UNL     1       7.668   5.689  15.178  0.00  0.00    +0.000 N 
ATOM      6  C   UNL     1       7.132   4.999  14.118  0.00  0.00    +0.000 A 
ATOM      7  C   UNL     1       7.653   4.746  12.844  0.00  0.00    +0.000 A 
ATOM      8  C   UNL     1       6.884   3.967  11.973  0.00  0.00    +0.000 A 
ATOM      9  C   UNL     1       5.648   3.464  12.372  0.00  0.00    +0.000 A 
ATOM     10 CL   UNL     1       4.741   2.481  11.287  0.00  0.00    +0.000 Cl
ATOM     11  C   UNL     1       5.130   3.743  13.639  0.00  0.00    +0.000 A 
ATOM     12  C   UNL     1       5.883   4.539  14.528  0.00  0.00    +0.000 A 
ATOM     13  H   UNL     1       8.580   6.127  15.178  0.00  0.00    +0.000 HD
BRANCH   3  15
ATOM     14  C   UNL     1       4.316   3.389  17.201  0.00  0.00    +0.000 C 
ATOM     15  C   UNL     1       4.410   4.809  16.661  0.00  0.00    +0.000 C 
ENDBRANCH   3  15
ENDBRANCH   1   4
BRANCH   1  16
ATOM     16  O   UNL     1       7.136   7.732  17.303  0.00  0.00    +0.000 OA
BRANCH  16  17
ATOM     17  C   UNL     1       8.122   8.440  18.077  0.00  0.00    +0.000 C 
BRANCH  17  18
ATOM     18  C   UNL     1       8.529   9.766  17.425  0.00  0.00    +0.000 C 
BRANCH  18  19
ATOM     19  C   UNL     1       9.017  10.762  18.449  0.00  0.00    +0.000 A 
ATOM     20  C   UNL     1       9.359  10.343  19.738  0.00  0.00    +0.000 A 
ATOM     21  C   UNL     1       9.732  11.276  20.712  0.00  0.00    +0.000 A 
ATOM     22  C   UNL     1       9.801  12.649  20.429  0.00  0.00    +0.000 A 
ATOM     23  C   UNL     1       9.451  13.054  19.137  0.00  0.00    +0.000 A 
ATOM     24  C   UNL     1       9.071  12.127  18.156  0.00  0.00    +0.000 A 
BRANCH  22  25
ATOM     25  N   UNL     1      10.057  13.540  21.472  0.00  0.00    +0.000 N 
ATOM     26  C   UNL     1       9.584  14.913  21.415  0.00  0.00    +0.000 C 
ATOM     27  H   UNL     1      11.018  13.487  21.799  0.00  0.00    +0.000 HD
ENDBRANCH  22  25
ENDBRANCH  18  19
ENDBRANCH  17  18
ENDBRANCH  16  17
ENDBRANCH   1  16
TORSDOF 7
ENDMDL
MODEL 9
REMARK VINA RESULT:      -7.4      4.737      7.116
REMARK  Name = 
REMARK  9 active torsions:
REMARK  status: ('A' for Active; 'I' for Inactive)
REMARK    1  A    between atoms: C_1  and  C_2
REMARK    2  A    between atoms: C_2  and  C_3
REMARK    3  A    between atoms: C_4  and  C_5
REMARK    4  A    between atoms: C_5  and  O_7
REMARK    5  A    between atoms: O_7  and  C_8
REMARK    6  A    between atoms: C_8  and  C_9
REMARK    7  A    between atoms: C_9  and  C_10
REMARK    8  A    between atoms: C_13  and  N_14
REMARK    9  A    between atoms: N_14  and  C_15
REMARK                            x       y       z     vdW  Elec       q    Type
REMARK                         _______ _______ _______ _____ _____    ______ ____
ROOT
ATOM      1  C   UNL     1       6.787   6.724  17.181  0.00  0.00    +0.000 C 
ATOM      2  O   UNL     1       7.570   6.372  16.308  0.00  0.00    +0.000 OA
ENDROOT
BRANCH   1   4
ATOM      3  C   UNL     1       4.358   6.074  17.706  0.00  0.00    +0.000 A 
ATOM      4  C   UNL     1       5.740   5.909  17.757  0.00  0.00    +0.000 A 
ATOM      5  N   UNL     1       5.977   4.762  18.480  0.00  0.00    +0.000 N 
ATOM      6  C   UNL     1       4.805   4.186  18.905  0.00  0.00    +0.000 A 
ATOM      7  C   UNL     1       4.585   3.014  19.638  0.00  0.00    +0.000 A 
ATOM      8  C   UNL     1       3.263   2.694  19.964  0.00  0.00    +0.000 A 
ATOM      9  C   UNL     1       2.213   3.522  19.572  0.00  0.00    +0.000 A 
ATOM     10 CL   UNL     1       0.599   3.117  20.019  0.00  0.00    +0.000 Cl
ATOM     11  C   UNL     1       2.446   4.677  18.822  0.00  0.00    +0.000 A 
ATOM     12  C   UNL     1       3.770   5.011  18.469  0.00  0.00    +0.000 A 
ATOM     13  H   UNL     1       6.901   4.391  18.662  0.00  0.00    +0.000 HD
BRANCH   3  15
ATOM     14  C   UNL     1       2.851   8.062  17.993  0.00  0.00    +0.000 C 
ATOM     15  C   UNL     1       3.597   7.166  17.015  0.00  0.00    +0.000 C 
ENDBRANCH   3  15
ENDBRANCH   1   4
BRANCH   1  16
ATOM     16  O   UNL     1       6.756   7.968  17.740  0.00  0.00    +0.000 OA
BRANCH  16  17
ATOM     17  C   UNL     1       7.962   8.740  17.593  0.00  0.00    +0.000 C 
BRANCH  17  18
ATOM     18  C   UNL     1       8.746   8.848  18.907  0.00  0.00    +0.000 C 
BRANCH  18  19
ATOM     19  C   UNL     1       9.292  10.240  19.116  0.00  0.00    +0.000 A 
ATOM     20  C   UNL     1       9.526  10.723  20.407  0.00  0.00    +0.000 A 
ATOM     21  C   UNL     1       9.953  12.041  20.605  0.00  0.00    +0.000 A 
ATOM     22  C   UNL     1      10.185  12.910  19.528  0.00  0.00    +0.000 A 
ATOM     23  C   UNL     1       9.942  12.415  18.242  0.00  0.00    +0.000 A 
ATOM     24  C   UNL     1       9.509  11.097  18.035  0.00  0.00    +0.000 A 
BRANCH  22  25
ATOM     25  N   UNL     1      10.488  14.246  19.793  0.00  0.00    +0.000 N 
ATOM     26  C   UNL     1      10.155  14.849  21.073  0.00  0.00    +0.000 C 
ATOM     27  H   UNL     1      10.251  14.858  19.016  0.00  0.00    +0.000 HD
ENDBRANCH  22  25
ENDBRANCH  18  19
ENDBRANCH  17  18
ENDBRANCH  16  17
ENDBRANCH   1  16
TORSDOF 7
ENDMDL
