MODEL 1
REMARK VINA RESULT:      -6.3      0.000      0.000
REMARK  Name = 
REMARK  8 active torsions:
REMARK  status: ('A' for Active; 'I' for Inactive)
REMARK    1  A    between atoms: C_1  and  N_2
REMARK    2  A    between atoms: N_2  and  C_3
REMARK    3  A    between atoms: C_3  and  C_4
REMARK    4  A    between atoms: C_15  and  C_16
REMARK    5  A    between atoms: C_16  and  C_17
REMARK    6  A    between atoms: C_17  and  C_18
REMARK    7  A    between atoms: C_17  and  C_20
REMARK    8  A    between atoms: C_17  and  C_26
REMARK                            x       y       z     vdW  Elec       q    Type
REMARK                         _______ _______ _______ _____ _____    ______ ____
ROOT
ATOM      1  C   UNL     1       2.597  15.720  21.532  0.00  0.00    +0.000 C 
ATOM      2  N   UNL     1       3.004  15.304  20.109  0.00  0.00    +0.000 N 
ATOM      3  C   UNL     1       1.923  15.558  19.030  0.00  0.00    +0.000 C 
ATOM      4  C   UNL     1       2.401  14.697  17.838  0.00  0.00    +0.000 C 
ATOM      5  C   UNL     1       3.216  13.549  18.434  0.00  0.00    +0.000 C 
ATOM      6  C   UNL     1       3.128  13.763  19.945  0.00  0.00    +0.000 C 
ATOM      7  C   UNL     1       1.837  13.062  20.457  0.00  0.00    +0.000 C 
ATOM      8  C   UNL     1       0.495  13.640  19.910  0.00  0.00    +0.000 C 
ATOM      9  C   UNL     1       0.586  15.137  19.612  0.00  0.00    +0.000 C 
ENDROOT
BRANCH   2  10
ATOM     10  C   UNL     1       4.208  16.198  19.683  0.00  0.00    +0.000 C 
BRANCH  10  11
ATOM     11  C   UNL     1       5.405  16.295  20.653  0.00  0.00    +0.000 C 
ATOM     12  C   UNL     1       6.307  15.057  20.639  0.00  0.00    +0.000 C 
ATOM     13  C   UNL     1       6.994  14.858  19.289  0.00  0.00    +0.000 C 
ATOM     14  C   UNL     1       7.771  16.096  18.846  0.00  0.00    +0.000 C 
ATOM     15  C   UNL     1       6.979  17.397  18.957  0.00  0.00    +0.000 C 
ATOM     16  C   UNL     1       6.265  17.529  20.299  0.00  0.00    +0.000 C 
ENDBRANCH  10  11
ENDBRANCH   2  10
BRANCH   8  17
ATOM     17  C   UNL     1      -0.078  12.828  18.699  0.00  0.00    +0.000 C 
BRANCH  17  18
ATOM     18  C   UNL     1      -1.023  11.615  19.046  0.00  0.00    +0.000 C 
BRANCH  18  19
ATOM     19  C   UNL     1      -2.085  11.079  18.040  0.00  0.00    +0.000 A 
ATOM     20  C   UNL     1      -1.787  10.127  17.055  0.00  0.00    +0.000 A 
ATOM     21  C   UNL     1      -2.720   9.812  16.044  0.00  0.00    +0.000 A 
ATOM     22  C   UNL     1      -3.971  10.411  16.023  0.00  0.00    +0.000 A 
ATOM     23  C   UNL     1      -4.337  11.273  17.045  0.00  0.00    +0.000 A 
ATOM     24  C   UNL     1      -3.418  11.580  18.048  0.00  0.00    +0.000 A 
ENDBRANCH  18  19
BRANCH  18  25
ATOM     25  C   UNL     1      -0.151  10.414  19.523  0.00  0.00    +0.000 A 
ATOM     26  C   UNL     1       0.929   9.927  18.756  0.00  0.00    +0.000 A 
ATOM     27  C   UNL     1       1.703   8.849  19.192  0.00  0.00    +0.000 A 
ATOM     28  C   UNL     1       1.439   8.245  20.415  0.00  0.00    +0.000 A 
ATOM     29  C   UNL     1       0.402   8.724  21.207  0.00  0.00    +0.000 A 
ATOM     30  C   UNL     1      -0.383   9.795  20.768  0.00  0.00    +0.000 A 
ENDBRANCH  18  25
BRANCH  18  31
ATOM     31  C   UNL     1      -1.783  12.192  20.229  0.00  0.00    +0.000 C 
ATOM     32  N   UNL     1      -2.413  12.670  21.211  0.00  0.00    +0.000 NA
ENDBRANCH  18  31
ENDBRANCH  17  18
ENDBRANCH   8  17
TORSDOF 7
ENDMDL
MODEL 2
REMARK VINA RESULT:      -6.2      1.126      1.477
REMARK  Name = 
REMARK  8 active torsions:
REMARK  status: ('A' for Active; 'I' for Inactive)
REMARK    1  A    between atoms: C_1  and  N_2
REMARK    2  A    between atoms: N_2  and  C_3
REMARK    3  A    between atoms: C_3  and  C_4
REMARK    4  A    between atoms: C_15  and  C_16
REMARK    5  A    between atoms: C_16  and  C_17
REMARK    6  A    between atoms: C_17  and  C_18
REMARK    7  A    between atoms: C_17  and  C_20
REMARK    8  A    between atoms: C_17  and  C_26
REMARK                            x       y       z     vdW  Elec       q    Type
REMARK                         _______ _______ _______ _____ _____    ______ ____
ROOT
ATOM      1  C   UNL     1       3.500  15.029  22.072  0.00  0.00    +0.000 C 
ATOM      2  N   UNL     1       3.375  15.220  20.551  0.00  0.00    +0.000 N 
ATOM      3  C   UNL     1       2.045  15.866  20.091  0.00  0.00    +0.000 C 
ATOM      4  C   UNL     1       2.006  15.558  18.576  0.00  0.00    +0.000 C 
ATOM      5  C   UNL     1       2.821  14.281  18.374  0.00  0.00    +0.000 C 
ATOM      6  C   UNL     1       3.248  13.874  19.784  0.00  0.00    +0.000 C 
ATOM      7  C   UNL     1       2.113  13.007  20.401  0.00  0.00    +0.000 C 
ATOM      8  C   UNL     1       0.749  13.735  20.610  0.00  0.00    +0.000 C 
ATOM      9  C   UNL     1       0.924  15.228  20.890  0.00  0.00    +0.000 C 
ENDROOT
BRANCH   2  10
ATOM     10  C   UNL     1       4.480  16.228  20.110  0.00  0.00    +0.000 C 
BRANCH  10  11
ATOM     11  C   UNL     1       5.873  16.091  20.762  0.00  0.00    +0.000 C 
ATOM     12  C   UNL     1       6.636  14.838  20.318  0.00  0.00    +0.000 C 
ATOM     13  C   UNL     1       6.971  14.863  18.829  0.00  0.00    +0.000 C 
ATOM     14  C   UNL     1       7.729  16.127  18.425  0.00  0.00    +0.000 C 
ATOM     15  C   UNL     1       7.100  17.418  18.945  0.00  0.00    +0.000 C 
ATOM     16  C   UNL     1       6.731  17.330  20.423  0.00  0.00    +0.000 C 
ENDBRANCH  10  11
ENDBRANCH   2  10
BRANCH   8  17
ATOM     17  C   UNL     1      -0.278  13.464  19.459  0.00  0.00    +0.000 C 
BRANCH  17  18
ATOM     18  C   UNL     1      -1.544  12.601  19.829  0.00  0.00    +0.000 C 
BRANCH  18  19
ATOM     19  C   UNL     1      -2.447  11.947  18.741  0.00  0.00    +0.000 A 
ATOM     20  C   UNL     1      -1.957  11.537  17.492  0.00  0.00    +0.000 A 
ATOM     21  C   UNL     1      -2.837  11.131  16.466  0.00  0.00    +0.000 A 
ATOM     22  C   UNL     1      -4.206  11.091  16.682  0.00  0.00    +0.000 A 
ATOM     23  C   UNL     1      -4.713  11.384  17.939  0.00  0.00    +0.000 A 
ATOM     24  C   UNL     1      -3.845  11.780  18.955  0.00  0.00    +0.000 A 
ENDBRANCH  18  19
BRANCH  18  25
ATOM     25  C   UNL     1      -1.123  11.496  20.846  0.00  0.00    +0.000 A 
ATOM     26  C   UNL     1      -0.422  10.340  20.442  0.00  0.00    +0.000 A 
ATOM     27  C   UNL     1      -0.052   9.355  21.360  0.00  0.00    +0.000 A 
ATOM     28  C   UNL     1      -0.348   9.508  22.709  0.00  0.00    +0.000 A 
ATOM     29  C   UNL     1      -1.009  10.651  23.142  0.00  0.00    +0.000 A 
ATOM     30  C   UNL     1      -1.392  11.634  22.223  0.00  0.00    +0.000 A 
ENDBRANCH  18  25
BRANCH  18  31
ATOM     31  C   UNL     1      -2.388  13.648  20.538  0.00  0.00    +0.000 C 
ATOM     32  N   UNL     1      -3.088  14.517  21.124  0.00  0.00    +0.000 NA
ENDBRANCH  18  31
ENDBRANCH  17  18
ENDBRANCH   8  17
TORSDOF 7
ENDMDL
MODEL 3
REMARK VINA RESULT:      -6.1      1.461      3.757
REMARK  Name = 
REMARK  8 active torsions:
REMARK  status: ('A' for Active; 'I' for Inactive)
REMARK    1  A    between atoms: C_1  and  N_2
REMARK    2  A    between atoms: N_2  and  C_3
REMARK    3  A    between atoms: C_3  and  C_4
REMARK    4  A    between atoms: C_15  and  C_16
REMARK    5  A    between atoms: C_16  and  C_17
REMARK    6  A    between atoms: C_17  and  C_18
REMARK    7  A    between atoms: C_17  and  C_20
REMARK    8  A    between atoms: C_17  and  C_26
REMARK                            x       y       z     vdW  Elec       q    Type
REMARK                         _______ _______ _______ _____ _____    ______ ____
ROOT
ATOM      1  C   UNL     1       3.002  15.928  21.906  0.00  0.00    +0.000 C 
ATOM      2  N   UNL     1       3.278  15.632  20.423  0.00  0.00    +0.000 N 
ATOM      3  C   UNL     1       2.079  15.899  19.480  0.00  0.00    +0.000 C 
ATOM      4  C   UNL     1       2.471  15.147  18.186  0.00  0.00    +0.000 C 
ATOM      5  C   UNL     1       3.397  14.008  18.612  0.00  0.00    +0.000 C 
ATOM      6  C   UNL     1       3.456  14.115  20.136  0.00  0.00    +0.000 C 
ATOM      7  C   UNL     1       2.260  13.311  20.722  0.00  0.00    +0.000 C 
ATOM      8  C   UNL     1       0.843  13.851  20.357  0.00  0.00    +0.000 C 
ATOM      9  C   UNL     1       0.832  15.368  20.161  0.00  0.00    +0.000 C 
ENDROOT
BRANCH   2  10
ATOM     10  C   UNL     1       4.388  16.616  19.944  0.00  0.00    +0.000 C 
BRANCH  10  11
ATOM     11  C   UNL     1       5.791  16.033  19.670  0.00  0.00    +0.000 C 
ATOM     12  C   UNL     1       6.785  17.061  19.119  0.00  0.00    +0.000 C 
ATOM     13  C   UNL     1       7.081  18.174  20.122  0.00  0.00    +0.000 C 
ATOM     14  C   UNL     1       7.559  17.630  21.468  0.00  0.00    +0.000 C 
ATOM     15  C   UNL     1       6.690  16.504  22.023  0.00  0.00    +0.000 C 
ATOM     16  C   UNL     1       6.373  15.442  20.974  0.00  0.00    +0.000 C 
ENDBRANCH  10  11
ENDBRANCH   2  10
BRANCH   8  17
ATOM     17  C   UNL     1       0.185  13.093  19.154  0.00  0.00    +0.000 C 
BRANCH  17  18
ATOM     18  C   UNL     1      -0.100  11.557  19.358  0.00  0.00    +0.000 C 
BRANCH  18  19
ATOM     19  C   UNL     1      -0.101  10.894  20.767  0.00  0.00    +0.000 A 
ATOM     20  C   UNL     1       0.575   9.698  21.045  0.00  0.00    +0.000 A 
ATOM     21  C   UNL     1       0.392   9.030  22.276  0.00  0.00    +0.000 A 
ATOM     22  C   UNL     1      -0.432   9.564  23.255  0.00  0.00    +0.000 A 
ATOM     23  C   UNL     1      -1.028  10.799  23.054  0.00  0.00    +0.000 A 
ATOM     24  C   UNL     1      -0.843  11.462  21.842  0.00  0.00    +0.000 A 
ENDBRANCH  18  19
BRANCH  18  25
ATOM     25  C   UNL     1      -1.437  11.191  18.643  0.00  0.00    +0.000 A 
ATOM     26  C   UNL     1      -2.612  11.952  18.827  0.00  0.00    +0.000 A 
ATOM     27  C   UNL     1      -3.805  11.615  18.184  0.00  0.00    +0.000 A 
ATOM     28  C   UNL     1      -3.854  10.526  17.322  0.00  0.00    +0.000 A 
ATOM     29  C   UNL     1      -2.705   9.777  17.096  0.00  0.00    +0.000 A 
ATOM     30  C   UNL     1      -1.511  10.105  17.748  0.00  0.00    +0.000 A 
ENDBRANCH  18  25
BRANCH  18  31
ATOM     31  C   UNL     1       1.066  10.960  18.586  0.00  0.00    +0.000 C 
ATOM     32  N   UNL     1       2.033  10.466  17.946  0.00  0.00    +0.000 NA
ENDBRANCH  18  31
ENDBRANCH  17  18
ENDBRANCH   8  17
TORSDOF 7
ENDMDL
MODEL 4
REMARK VINA RESULT:      -6.1      1.110      1.842
REMARK  Name = 
REMARK  8 active torsions:
REMARK  status: ('A' for Active; 'I' for Inactive)
REMARK    1  A    between atoms: C_1  and  N_2
REMARK    2  A    between atoms: N_2  and  C_3
REMARK    3  A    between atoms: C_3  and  C_4
REMARK    4  A    between atoms: C_15  and  C_16
REMARK    5  A    between atoms: C_16  and  C_17
REMARK    6  A    between atoms: C_17  and  C_18
REMARK    7  A    between atoms: C_17  and  C_20
REMARK    8  A    between atoms: C_17  and  C_26
REMARK                            x       y       z     vdW  Elec       q    Type
REMARK                         _______ _______ _______ _____ _____    ______ ____
ROOT
ATOM      1  C   UNL     1       3.224  16.292  21.409  0.00  0.00    +0.000 C 
ATOM      2  N   UNL     1       3.491  15.596  20.065  0.00  0.00    +0.000 N 
ATOM      3  C   UNL     1       2.390  15.814  18.998  0.00  0.00    +0.000 C 
ATOM      4  C   UNL     1       2.683  14.711  17.954  0.00  0.00    +0.000 C 
ATOM      5  C   UNL     1       3.377  13.577  18.707  0.00  0.00    +0.000 C 
ATOM      6  C   UNL     1       3.405  14.047  20.162  0.00  0.00    +0.000 C 
ATOM      7  C   UNL     1       2.067  13.622  20.832  0.00  0.00    +0.000 C 
ATOM      8  C   UNL     1       0.781  14.281  20.243  0.00  0.00    +0.000 C 
ATOM      9  C   UNL     1       1.047  15.682  19.691  0.00  0.00    +0.000 C 
ENDROOT
BRANCH   2  10
ATOM     10  C   UNL     1       4.773  16.234  19.449  0.00  0.00    +0.000 C 
BRANCH  10  11
ATOM     11  C   UNL     1       6.101  16.050  20.215  0.00  0.00    +0.000 C 
ATOM     12  C   UNL     1       6.924  14.850  19.735  0.00  0.00    +0.000 C 
ATOM     13  C   UNL     1       7.397  15.013  18.292  0.00  0.00    +0.000 C 
ATOM     14  C   UNL     1       8.168  16.315  18.078  0.00  0.00    +0.000 C 
ATOM     15  C   UNL     1       7.471  17.548  18.650  0.00  0.00    +0.000 C 
ATOM     16  C   UNL     1       6.966  17.322  20.072  0.00  0.00    +0.000 C 
ENDBRANCH  10  11
ENDBRANCH   2  10
BRANCH   8  17
ATOM     17  C   UNL     1       0.038  13.368  19.210  0.00  0.00    +0.000 C 
BRANCH  17  18
ATOM     18  C   UNL     1      -1.266  12.642  19.717  0.00  0.00    +0.000 C 
BRANCH  18  19
ATOM     19  C   UNL     1      -2.272  11.967  18.738  0.00  0.00    +0.000 A 
ATOM     20  C   UNL     1      -3.660  11.984  18.943  0.00  0.00    +0.000 A 
ATOM     21  C   UNL     1      -4.520  11.200  18.144  0.00  0.00    +0.000 A 
ATOM     22  C   UNL     1      -4.015  10.422  17.113  0.00  0.00    +0.000 A 
ATOM     23  C   UNL     1      -2.663  10.469  16.814  0.00  0.00    +0.000 A 
ATOM     24  C   UNL     1      -1.813  11.248  17.598  0.00  0.00    +0.000 A 
ENDBRANCH  18  19
BRANCH  18  25
ATOM     25  C   UNL     1      -0.875  11.603  20.812  0.00  0.00    +0.000 A 
ATOM     26  C   UNL     1      -1.386  11.677  22.125  0.00  0.00    +0.000 A 
ATOM     27  C   UNL     1      -1.027  10.743  23.100  0.00  0.00    +0.000 A 
ATOM     28  C   UNL     1      -0.170   9.696  22.785  0.00  0.00    +0.000 A 
ATOM     29  C   UNL     1       0.325   9.579  21.491  0.00  0.00    +0.000 A 
ATOM     30  C   UNL     1      -0.023  10.520  20.516  0.00  0.00    +0.000 A 
ENDBRANCH  18  25
BRANCH  18  31
ATOM     31  C   UNL     1      -1.992  13.812  20.364  0.00  0.00    +0.000 C 
ATOM     32  N   UNL     1      -2.595  14.780  20.901  0.00  0.00    +0.000 NA
ENDBRANCH  18  31
ENDBRANCH  17  18
ENDBRANCH   8  17
TORSDOF 7
ENDMDL
MODEL 5
REMARK VINA RESULT:      -6.0      4.146      9.453
REMARK  Name = 
REMARK  8 active torsions:
REMARK  status: ('A' for Active; 'I' for Inactive)
REMARK    1  A    between atoms: C_1  and  N_2
REMARK    2  A    between atoms: N_2  and  C_3
REMARK    3  A    between atoms: C_3  and  C_4
REMARK    4  A    between atoms: C_15  and  C_16
REMARK    5  A    between atoms: C_16  and  C_17
REMARK    6  A    between atoms: C_17  and  C_18
REMARK    7  A    between atoms: C_17  and  C_20
REMARK    8  A    between atoms: C_17  and  C_26
REMARK                            x       y       z     vdW  Elec       q    Type
REMARK                         _______ _______ _______ _____ _____    ______ ____
ROOT
ATOM      1  C   UNL     1       3.110  14.115  19.961  0.00  0.00    +0.000 C 
ATOM      2  N   UNL     1       3.539  15.588  20.067  0.00  0.00    +0.000 N 
ATOM      3  C   UNL     1       4.557  16.040  18.990  0.00  0.00    +0.000 C 
ATOM      4  C   UNL     1       5.115  17.364  19.562  0.00  0.00    +0.000 C 
ATOM      5  C   UNL     1       4.980  17.268  21.082  0.00  0.00    +0.000 C 
ATOM      6  C   UNL     1       4.403  15.874  21.327  0.00  0.00    +0.000 C 
ATOM      7  C   UNL     1       5.588  14.869  21.406  0.00  0.00    +0.000 C 
ATOM      8  C   UNL     1       6.426  14.712  20.100  0.00  0.00    +0.000 C 
ATOM      9  C   UNL     1       5.588  14.937  18.842  0.00  0.00    +0.000 C 
ENDROOT
BRANCH   2  10
ATOM     10  C   UNL     1       2.277  16.467  19.814  0.00  0.00    +0.000 C 
BRANCH  10  11
ATOM     11  C   UNL     1       1.472  16.207  18.522  0.00  0.00    +0.000 C 
ATOM     12  C   UNL     1       0.020  15.789  18.779  0.00  0.00    +0.000 C 
ATOM     13  C   UNL     1      -0.789  16.896  19.452  0.00  0.00    +0.000 C 
ATOM     14  C   UNL     1      -0.735  18.210  18.674  0.00  0.00    +0.000 C 
ATOM     15  C   UNL     1       0.675  18.629  18.264  0.00  0.00    +0.000 C 
ATOM     16  C   UNL     1       1.466  17.480  17.646  0.00  0.00    +0.000 C 
ENDBRANCH  10  11
ENDBRANCH   2  10
BRANCH   8  17
ATOM     17  C   UNL     1       7.737  15.571  20.100  0.00  0.00    +0.000 C 
BRANCH  17  18
ATOM     18  C   UNL     1       9.100  14.780  20.074  0.00  0.00    +0.000 C 
BRANCH  18  19
ATOM     19  C   UNL     1       9.159  13.239  19.860  0.00  0.00    +0.000 A 
ATOM     20  C   UNL     1       9.232  12.326  20.922  0.00  0.00    +0.000 A 
ATOM     21  C   UNL     1       9.479  10.956  20.685  0.00  0.00    +0.000 A 
ATOM     22  C   UNL     1       9.617  10.475  19.393  0.00  0.00    +0.000 A 
ATOM     23  C   UNL     1       9.440  11.331  18.317  0.00  0.00    +0.000 A 
ATOM     24  C   UNL     1       9.190  12.683  18.549  0.00  0.00    +0.000 A 
ENDBRANCH  18  19
BRANCH  18  25
ATOM     25  C   UNL     1      10.057  15.455  19.044  0.00  0.00    +0.000 A 
ATOM     26  C   UNL     1       9.570  16.098  17.886  0.00  0.00    +0.000 A 
ATOM     27  C   UNL     1      10.435  16.698  16.968  0.00  0.00    +0.000 A 
ATOM     28  C   UNL     1      11.807  16.696  17.193  0.00  0.00    +0.000 A 
ATOM     29  C   UNL     1      12.313  16.099  18.342  0.00  0.00    +0.000 A 
ATOM     30  C   UNL     1      11.450  15.486  19.256  0.00  0.00    +0.000 A 
ENDBRANCH  18  25
BRANCH  18  31
ATOM     31  C   UNL     1       9.599  15.053  21.484  0.00  0.00    +0.000 C 
ATOM     32  N   UNL     1      10.011  15.279  22.654  0.00  0.00    +0.000 NA
ENDBRANCH  18  31
ENDBRANCH  17  18
ENDBRANCH   8  17
TORSDOF 7
ENDMDL
MODEL 6
REMARK VINA RESULT:      -6.0      1.141      1.786
REMARK  Name = 
REMARK  8 active torsions:
REMARK  status: ('A' for Active; 'I' for Inactive)
REMARK    1  A    between atoms: C_1  and  N_2
REMARK    2  A    between atoms: N_2  and  C_3
REMARK    3  A    between atoms: C_3  and  C_4
REMARK    4  A    between atoms: C_15  and  C_16
REMARK    5  A    between atoms: C_16  and  C_17
REMARK    6  A    between atoms: C_17  and  C_18
REMARK    7  A    between atoms: C_17  and  C_20
REMARK    8  A    between atoms: C_17  and  C_26
REMARK                            x       y       z     vdW  Elec       q    Type
REMARK                         _______ _______ _______ _____ _____    ______ ____
ROOT
ATOM      1  C   UNL     1       3.966  14.006  21.686  0.00  0.00    +0.000 C 
ATOM      2  N   UNL     1       3.528  14.768  20.424  0.00  0.00    +0.000 N 
ATOM      3  C   UNL     1       2.171  15.502  20.554  0.00  0.00    +0.000 C 
ATOM      4  C   UNL     1       1.788  15.804  19.087  0.00  0.00    +0.000 C 
ATOM      5  C   UNL     1       2.462  14.730  18.235  0.00  0.00    +0.000 C 
ATOM      6  C   UNL     1       3.159  13.821  19.248  0.00  0.00    +0.000 C 
ATOM      7  C   UNL     1       2.134  12.750  19.719  0.00  0.00    +0.000 C 
ATOM      8  C   UNL     1       0.893  13.300  20.489  0.00  0.00    +0.000 C 
ATOM      9  C   UNL     1       1.213  14.572  21.274  0.00  0.00    +0.000 C 
ENDROOT
BRANCH   2  10
ATOM     10  C   UNL     1       4.570  15.900  20.171  0.00  0.00    +0.000 C 
BRANCH  10  11
ATOM     11  C   UNL     1       6.027  15.641  20.612  0.00  0.00    +0.000 C 
ATOM     12  C   UNL     1       6.891  14.995  19.524  0.00  0.00    +0.000 C 
ATOM     13  C   UNL     1       7.071  15.907  18.312  0.00  0.00    +0.000 C 
ATOM     14  C   UNL     1       7.624  17.279  18.695  0.00  0.00    +0.000 C 
ATOM     15  C   UNL     1       6.895  17.934  19.867  0.00  0.00    +0.000 C 
ATOM     16  C   UNL     1       6.688  16.973  21.033  0.00  0.00    +0.000 C 
ENDBRANCH  10  11
ENDBRANCH   2  10
BRANCH   8  17
ATOM     17  C   UNL     1      -0.372  13.466  19.580  0.00  0.00    +0.000 C 
BRANCH  17  18
ATOM     18  C   UNL     1      -1.558  12.457  19.828  0.00  0.00    +0.000 C 
BRANCH  18  19
ATOM     19  C   UNL     1      -2.288  11.735  18.657  0.00  0.00    +0.000 A 
ATOM     20  C   UNL     1      -3.686  11.667  18.559  0.00  0.00    +0.000 A 
ATOM     21  C   UNL     1      -4.306  10.843  17.596  0.00  0.00    +0.000 A 
ATOM     22  C   UNL     1      -3.547  10.109  16.698  0.00  0.00    +0.000 A 
ATOM     23  C   UNL     1      -2.167  10.239  16.696  0.00  0.00    +0.000 A 
ATOM     24  C   UNL     1      -1.553  11.058  17.643  0.00  0.00    +0.000 A 
ENDBRANCH  18  19
BRANCH  18  25
ATOM     25  C   UNL     1      -1.100  11.381  20.859  0.00  0.00    +0.000 A 
ATOM     26  C   UNL     1      -0.423  10.209  20.461  0.00  0.00    +0.000 A 
ATOM     27  C   UNL     1      -0.020   9.249  21.393  0.00  0.00    +0.000 A 
ATOM     28  C   UNL     1      -0.256   9.445  22.748  0.00  0.00    +0.000 A 
ATOM     29  C   UNL     1      -0.892  10.605  23.173  0.00  0.00    +0.000 A 
ATOM     30  C   UNL     1      -1.309  11.562  22.241  0.00  0.00    +0.000 A 
ENDBRANCH  18  25
BRANCH  18  31
ATOM     31  C   UNL     1      -2.571  13.385  20.479  0.00  0.00    +0.000 C 
ATOM     32  N   UNL     1      -3.412  14.155  21.018  0.00  0.00    +0.000 NA
ENDBRANCH  18  31
ENDBRANCH  17  18
ENDBRANCH   8  17
TORSDOF 7
ENDMDL
MODEL 7
REMARK VINA RESULT:      -6.0      1.255      1.924
REMARK  Name = 
REMARK  8 active torsions:
REMARK  status: ('A' for Active; 'I' for Inactive)
REMARK    1  A    between atoms: C_1  and  N_2
REMARK    2  A    between atoms: N_2  and  C_3
REMARK    3  A    between atoms: C_3  and  C_4
REMARK    4  A    between atoms: C_15  and  C_16
REMARK    5  A    between atoms: C_16  and  C_17
REMARK    6  A    between atoms: C_17  and  C_18
REMARK    7  A    between atoms: C_17  and  C_20
REMARK    8  A    between atoms: C_17  and  C_26
REMARK                            x       y       z     vdW  Elec       q    Type
REMARK                         _______ _______ _______ _____ _____    ______ ____
ROOT
ATOM      1  C   UNL     1       3.975  14.050  21.643  0.00  0.00    +0.000 C 
ATOM      2  N   UNL     1       3.516  14.867  20.424  0.00  0.00    +0.000 N 
ATOM      3  C   UNL     1       2.121  15.520  20.575  0.00  0.00    +0.000 C 
ATOM      4  C   UNL     1       1.744  15.894  19.123  0.00  0.00    +0.000 C 
ATOM      5  C   UNL     1       2.487  14.912  18.217  0.00  0.00    +0.000 C 
ATOM      6  C   UNL     1       3.215  13.979  19.184  0.00  0.00    +0.000 C 
ATOM      7  C   UNL     1       2.241  12.828  19.569  0.00  0.00    +0.000 C 
ATOM      8  C   UNL     1       0.962  13.263  20.349  0.00  0.00    +0.000 C 
ATOM      9  C   UNL     1       1.202  14.497  21.218  0.00  0.00    +0.000 C 
ENDROOT
BRANCH   2  10
ATOM     10  C   UNL     1       4.500  16.065  20.261  0.00  0.00    +0.000 C 
BRANCH  10  11
ATOM     11  C   UNL     1       5.712  15.872  19.324  0.00  0.00    +0.000 C 
ATOM     12  C   UNL     1       6.399  17.185  18.933  0.00  0.00    +0.000 C 
ATOM     13  C   UNL     1       7.023  17.890  20.135  0.00  0.00    +0.000 C 
ATOM     14  C   UNL     1       7.985  16.986  20.904  0.00  0.00    +0.000 C 
ATOM     15  C   UNL     1       7.418  15.603  21.217  0.00  0.00    +0.000 C 
ATOM     16  C   UNL     1       6.756  14.958  20.003  0.00  0.00    +0.000 C 
ENDBRANCH  10  11
ENDBRANCH   2  10
BRANCH   8  17
ATOM     17  C   UNL     1      -0.297  13.420  19.430  0.00  0.00    +0.000 C 
BRANCH  17  18
ATOM     18  C   UNL     1      -1.565  12.567  19.815  0.00  0.00    +0.000 C 
BRANCH  18  19
ATOM     19  C   UNL     1      -2.492  11.929  18.738  0.00  0.00    +0.000 A 
ATOM     20  C   UNL     1      -2.018  11.483  17.496  0.00  0.00    +0.000 A 
ATOM     21  C   UNL     1      -2.913  11.091  16.477  0.00  0.00    +0.000 A 
ATOM     22  C   UNL     1      -4.282  11.103  16.694  0.00  0.00    +0.000 A 
ATOM     23  C   UNL     1      -4.778  11.432  17.946  0.00  0.00    +0.000 A 
ATOM     24  C   UNL     1      -3.894  11.814  18.956  0.00  0.00    +0.000 A 
ENDBRANCH  18  19
BRANCH  18  25
ATOM     25  C   UNL     1      -1.140  11.453  20.819  0.00  0.00    +0.000 A 
ATOM     26  C   UNL     1      -0.469  10.286  20.396  0.00  0.00    +0.000 A 
ATOM     27  C   UNL     1      -0.094   9.292  21.303  0.00  0.00    +0.000 A 
ATOM     28  C   UNL     1      -0.354   9.446  22.659  0.00  0.00    +0.000 A 
ATOM     29  C   UNL     1      -0.984  10.600  23.110  0.00  0.00    +0.000 A 
ATOM     30  C   UNL     1      -1.372  11.592  22.203  0.00  0.00    +0.000 A 
ENDBRANCH  18  25
BRANCH  18  31
ATOM     31  C   UNL     1      -2.388  13.619  20.543  0.00  0.00    +0.000 C 
ATOM     32  N   UNL     1      -3.071  14.490  21.146  0.00  0.00    +0.000 NA
ENDBRANCH  18  31
ENDBRANCH  17  18
ENDBRANCH   8  17
TORSDOF 7
ENDMDL
MODEL 8
REMARK VINA RESULT:      -5.9      1.488      2.367
REMARK  Name = 
REMARK  8 active torsions:
REMARK  status: ('A' for Active; 'I' for Inactive)
REMARK    1  A    between atoms: C_1  and  N_2
REMARK    2  A    between atoms: N_2  and  C_3
REMARK    3  A    between atoms: C_3  and  C_4
REMARK    4  A    between atoms: C_15  and  C_16
REMARK    5  A    between atoms: C_16  and  C_17
REMARK    6  A    between atoms: C_17  and  C_18
REMARK    7  A    between atoms: C_17  and  C_20
REMARK    8  A    between atoms: C_17  and  C_26
REMARK                            x       y       z     vdW  Elec       q    Type
REMARK                         _______ _______ _______ _____ _____    ______ ____
ROOT
ATOM      1  C   UNL     1       2.520  16.577  20.866  0.00  0.00    +0.000 C 
ATOM      2  N   UNL     1       2.833  15.221  20.213  0.00  0.00    +0.000 N 
ATOM      3  C   UNL     1       2.169  15.004  18.831  0.00  0.00    +0.000 C 
ATOM      4  C   UNL     1       2.290  13.477  18.614  0.00  0.00    +0.000 C 
ATOM      5  C   UNL     1       2.337  12.846  20.005  0.00  0.00    +0.000 C 
ATOM      6  C   UNL     1       2.184  14.026  20.965  0.00  0.00    +0.000 C 
ATOM      7  C   UNL     1       0.664  14.283  21.174  0.00  0.00    +0.000 C 
ATOM      8  C   UNL     1      -0.126  14.721  19.901  0.00  0.00    +0.000 C 
ATOM      9  C   UNL     1       0.742  15.513  18.923  0.00  0.00    +0.000 C 
ENDROOT
BRANCH   2  10
ATOM     10  C   UNL     1       4.366  15.177  19.927  0.00  0.00    +0.000 C 
BRANCH  10  11
ATOM     11  C   UNL     1       4.877  15.898  18.661  0.00  0.00    +0.000 C 
ATOM     12  C   UNL     1       5.694  17.159  18.963  0.00  0.00    +0.000 C 
ATOM     13  C   UNL     1       6.990  16.844  19.707  0.00  0.00    +0.000 C 
ATOM     14  C   UNL     1       7.844  15.810  18.974  0.00  0.00    +0.000 C 
ATOM     15  C   UNL     1       7.068  14.575  18.521  0.00  0.00    +0.000 C 
ATOM     16  C   UNL     1       5.755  14.934  17.831  0.00  0.00    +0.000 C 
ENDBRANCH  10  11
ENDBRANCH   2  10
BRANCH   8  17
ATOM     17  C   UNL     1      -0.876  13.536  19.204  0.00  0.00    +0.000 C 
BRANCH  17  18
ATOM     18  C   UNL     1      -2.071  12.888  20.002  0.00  0.00    +0.000 C 
BRANCH  18  19
ATOM     19  C   UNL     1      -3.311  12.277  19.285  0.00  0.00    +0.000 A 
ATOM     20  C   UNL     1      -4.621  12.445  19.757  0.00  0.00    +0.000 A 
ATOM     21  C   UNL     1      -5.693  11.719  19.194  0.00  0.00    +0.000 A 
ATOM     22  C   UNL     1      -5.481  10.850  18.135  0.00  0.00    +0.000 A 
ATOM     23  C   UNL     1      -4.218  10.745  17.574  0.00  0.00    +0.000 A 
ATOM     24  C   UNL     1      -3.159  11.466  18.125  0.00  0.00    +0.000 A 
ENDBRANCH  18  19
BRANCH  18  25
ATOM     25  C   UNL     1      -1.501  11.823  20.989  0.00  0.00    +0.000 A 
ATOM     26  C   UNL     1      -0.623  10.805  20.560  0.00  0.00    +0.000 A 
ATOM     27  C   UNL     1      -0.120   9.855  21.452  0.00  0.00    +0.000 A 
ATOM     28  C   UNL     1      -0.458   9.909  22.799  0.00  0.00    +0.000 A 
ATOM     29  C   UNL     1      -1.295  10.920  23.256  0.00  0.00    +0.000 A 
ATOM     30  C   UNL     1      -1.811  11.866  22.364  0.00  0.00    +0.000 A 
ENDBRANCH  18  25
BRANCH  18  31
ATOM     31  C   UNL     1      -2.560  14.096  20.786  0.00  0.00    +0.000 C 
ATOM     32  N   UNL     1      -2.967  15.096  21.436  0.00  0.00    +0.000 NA
ENDBRANCH  18  31
ENDBRANCH  17  18
ENDBRANCH   8  17
TORSDOF 7
ENDMDL
MODEL 9
REMARK VINA RESULT:      -5.9      1.138      2.318
REMARK  Name = 
REMARK  8 active torsions:
REMARK  status: ('A' for Active; 'I' for Inactive)
REMARK    1  A    between atoms: C_1  and  N_2
REMARK    2  A    between atoms: N_2  and  C_3
REMARK    3  A    between atoms: C_3  and  C_4
REMARK    4  A    between atoms: C_15  and  C_16
REMARK    5  A    between atoms: C_16  and  C_17
REMARK    6  A    between atoms: C_17  and  C_18
REMARK    7  A    between atoms: C_17  and  C_20
REMARK    8  A    between atoms: C_17  and  C_26
REMARK                            x       y       z     vdW  Elec       q    Type
REMARK                         _______ _______ _______ _____ _____    ______ ____
ROOT
ATOM      1  C   UNL     1       2.977  14.906  17.703  0.00  0.00    +0.000 C 
ATOM      2  N   UNL     1       2.781  15.363  19.158  0.00  0.00    +0.000 N 
ATOM      3  C   UNL     1       2.611  14.209  20.177  0.00  0.00    +0.000 C 
ATOM      4  C   UNL     1       2.029  14.918  21.422  0.00  0.00    +0.000 C 
ATOM      5  C   UNL     1       1.282  16.148  20.909  0.00  0.00    +0.000 C 
ATOM      6  C   UNL     1       1.415  16.069  19.388  0.00  0.00    +0.000 C 
ATOM      7  C   UNL     1       0.255  15.185  18.847  0.00  0.00    +0.000 C 
ATOM      8  C   UNL     1       0.271  13.695  19.311  0.00  0.00    +0.000 C 
ATOM      9  C   UNL     1       1.689  13.178  19.553  0.00  0.00    +0.000 C 
ENDROOT
BRANCH   2  10
ATOM     10  C   UNL     1       4.083  16.096  19.602  0.00  0.00    +0.000 C 
BRANCH  10  11
ATOM     11  C   UNL     1       5.380  15.263  19.685  0.00  0.00    +0.000 C 
ATOM     12  C   UNL     1       6.430  15.660  18.642  0.00  0.00    +0.000 C 
ATOM     13  C   UNL     1       6.941  17.083  18.849  0.00  0.00    +0.000 C 
ATOM     14  C   UNL     1       7.474  17.309  20.263  0.00  0.00    +0.000 C 
ATOM     15  C   UNL     1       6.537  16.815  21.363  0.00  0.00    +0.000 C 
ATOM     16  C   UNL     1       6.007  15.411  21.089  0.00  0.00    +0.000 C 
ENDBRANCH  10  11
ENDBRANCH   2  10
BRANCH   8  17
ATOM     17  C   UNL     1      -0.678  13.417  20.526  0.00  0.00    +0.000 C 
BRANCH  17  18
ATOM     18  C   UNL     1      -1.472  12.056  20.505  0.00  0.00    +0.000 C 
BRANCH  18  19
ATOM     19  C   UNL     1      -1.982  11.415  19.181  0.00  0.00    +0.000 A 
ATOM     20  C   UNL     1      -1.248  10.454  18.469  0.00  0.00    +0.000 A 
ATOM     21  C   UNL     1      -1.650  10.043  17.181  0.00  0.00    +0.000 A 
ATOM     22  C   UNL     1      -2.803  10.551  16.603  0.00  0.00    +0.000 A 
ATOM     23  C   UNL     1      -3.610  11.417  17.324  0.00  0.00    +0.000 A 
ATOM     24  C   UNL     1      -3.217  11.820  18.599  0.00  0.00    +0.000 A 
ENDBRANCH  18  19
BRANCH  18  25
ATOM     25  C   UNL     1      -0.657  10.982  21.288  0.00  0.00    +0.000 A 
ATOM     26  C   UNL     1      -0.931  10.677  22.638  0.00  0.00    +0.000 A 
ATOM     27  C   UNL     1      -0.193   9.714  23.332  0.00  0.00    +0.000 A 
ATOM     28  C   UNL     1       0.820   9.012  22.691  0.00  0.00    +0.000 A 
ATOM     29  C   UNL     1       1.092   9.268  21.352  0.00  0.00    +0.000 A 
ATOM     30  C   UNL     1       0.363  10.240  20.658  0.00  0.00    +0.000 A 
ENDBRANCH  18  25
BRANCH  18  31
ATOM     31  C   UNL     1      -2.701  12.447  21.312  0.00  0.00    +0.000 C 
ATOM     32  N   UNL     1      -3.719  12.771  21.980  0.00  0.00    +0.000 NA
ENDBRANCH  18  31
ENDBRANCH  17  18
ENDBRANCH   8  17
TORSDOF 7
ENDMDL
