MODEL 1
REMARK VINA RESULT:      -8.5      0.000      0.000
REMARK  Name = 
REMARK  8 active torsions:
REMARK  status: ('A' for Active; 'I' for Inactive)
REMARK    1  A    between atoms: C_2  and  O_5
REMARK    2  A    between atoms: O_5  and  C_6
REMARK    3  A    between atoms: C_10  and  C_11
REMARK    4  A    between atoms: C_11  and  N_12
REMARK    5  A    between atoms: N_12  and  C_13
REMARK    6  A    between atoms: N_12  and  C_21
REMARK    7  A    between atoms: C_13  and  C_14
REMARK    8  A    between atoms: C_14  and  C_15
REMARK                            x       y       z     vdW  Elec       q    Type
REMARK                         _______ _______ _______ _____ _____    ______ ____
ROOT
ATOM      1  N   UNL     1       4.423   6.315  17.630  0.00  0.00    +0.000 NA
ENDROOT
BRANCH   1   2
ATOM      2  C   UNL     1       5.787   6.500  17.026  0.00  0.00    +0.000 C 
ATOM      3  C   UNL     1       6.027   5.731  15.701  0.00  0.00    +0.000 C 
ATOM      4  C   UNL     1       6.668   4.348  15.848  0.00  0.00    +0.000 C 
ATOM      5  N   UNL     1       7.868   4.376  16.679  0.00  0.00    +0.000 NA
ATOM      6  C   UNL     1       7.574   4.901  18.009  0.00  0.00    +0.000 C 
ATOM      7  C   UNL     1       7.012   6.321  17.955  0.00  0.00    +0.000 C 
ATOM      8  H   UNL     1       8.573   4.960  16.231  0.00  0.00    +0.000 HD
ENDBRANCH   1   2
BRANCH   1   9
ATOM      9  C   UNL     1       3.529   7.436  17.298  0.00  0.00    +0.000 C 
BRANCH   9  14
ATOM     10  C   UNL     1       1.014   9.703  19.015  0.00  0.00    +0.000 A 
ATOM     11  C   UNL     1       0.952   9.111  20.278  0.00  0.00    +0.000 A 
ATOM     12  C   UNL     1       1.591   7.903  20.537  0.00  0.00    +0.000 A 
ATOM     13  C   UNL     1       2.344   7.281  19.540  0.00  0.00    +0.000 A 
ATOM     14  C   UNL     1       2.463   7.881  18.281  0.00  0.00    +0.000 A 
ATOM     15  C   UNL     1       1.777   9.090  18.022  0.00  0.00    +0.000 A 
BRANCH  10  16
ATOM     16  O   UNL     1       0.354  10.890  18.924  0.00  0.00    +0.000 OA
BRANCH  16  18
ATOM     17  F   UNL     1      -1.439   9.759  18.008  0.00  0.00    +0.000 F 
ATOM     18  C   UNL     1      -1.016  10.914  18.562  0.00  0.00    +0.000 C 
ATOM     19  F   UNL     1      -1.258  11.932  17.708  0.00  0.00    +0.000 F 
ATOM     20  F   UNL     1      -1.743  11.124  19.682  0.00  0.00    +0.000 F 
ENDBRANCH  16  18
ENDBRANCH  10  16
ENDBRANCH   9  14
ENDBRANCH   1   9
BRANCH   1  21
ATOM     21  C   UNL     1       3.796   5.011  17.274  0.00  0.00    +0.000 C 
BRANCH  21  22
ATOM     22  C   UNL     1       4.069   3.838  18.251  0.00  0.00    +0.000 C 
BRANCH  22  23
ATOM     23  C   UNL     1       3.044   3.556  19.338  0.00  0.00    +0.000 A 
ATOM     24  C   UNL     1       1.689   3.887  19.238  0.00  0.00    +0.000 A 
ATOM     25  C   UNL     1       0.797   3.567  20.269  0.00  0.00    +0.000 A 
ATOM     26  C   UNL     1       1.241   2.904  21.410  0.00  0.00    +0.000 A 
ATOM     27  C   UNL     1       2.589   2.570  21.523  0.00  0.00    +0.000 A 
ATOM     28  C   UNL     1       3.482   2.897  20.504  0.00  0.00    +0.000 A 
ENDBRANCH  22  23
ENDBRANCH  21  22
ENDBRANCH   1  21
TORSDOF 8
ENDMDL
MODEL 2
REMARK VINA RESULT:      -8.4      3.917      6.847
REMARK  Name = 
REMARK  8 active torsions:
REMARK  status: ('A' for Active; 'I' for Inactive)
REMARK    1  A    between atoms: C_2  and  O_5
REMARK    2  A    between atoms: O_5  and  C_6
REMARK    3  A    between atoms: C_10  and  C_11
REMARK    4  A    between atoms: C_11  and  N_12
REMARK    5  A    between atoms: N_12  and  C_13
REMARK    6  A    between atoms: N_12  and  C_21
REMARK    7  A    between atoms: C_13  and  C_14
REMARK    8  A    between atoms: C_14  and  C_15
REMARK                            x       y       z     vdW  Elec       q    Type
REMARK                         _______ _______ _______ _____ _____    ______ ____
ROOT
ATOM      1  N   UNL     1       4.185   3.683  18.970  0.00  0.00    +0.000 NA
ENDROOT
BRANCH   1   2
ATOM      2  C   UNL     1       3.359   2.649  19.681  0.00  0.00    +0.000 C 
ATOM      3  C   UNL     1       2.261   1.977  18.816  0.00  0.00    +0.000 C 
ATOM      4  C   UNL     1       0.875   2.623  18.891  0.00  0.00    +0.000 C 
ATOM      5  N   UNL     1       0.428   2.826  20.265  0.00  0.00    +0.000 NA
ATOM      6  C   UNL     1       1.373   3.654  21.009  0.00  0.00    +0.000 C 
ATOM      7  C   UNL     1       2.767   3.031  21.061  0.00  0.00    +0.000 C 
ATOM      8  H   UNL     1       0.335   1.921  20.725  0.00  0.00    +0.000 HD
ENDBRANCH   1   2
BRANCH   1   9
ATOM      9  C   UNL     1       4.106   3.526  17.509  0.00  0.00    +0.000 C 
BRANCH   9  14
ATOM     10  C   UNL     1       7.097   5.507  16.267  0.00  0.00    +0.000 A 
ATOM     11  C   UNL     1       7.090   5.166  14.913  0.00  0.00    +0.000 A 
ATOM     12  C   UNL     1       6.229   4.189  14.424  0.00  0.00    +0.000 A 
ATOM     13  C   UNL     1       5.325   3.559  15.280  0.00  0.00    +0.000 A 
ATOM     14  C   UNL     1       5.279   3.919  16.632  0.00  0.00    +0.000 A 
ATOM     15  C   UNL     1       6.186   4.888  17.122  0.00  0.00    +0.000 A 
BRANCH  10  16
ATOM     16  O   UNL     1       7.980   6.491  16.588  0.00  0.00    +0.000 OA
BRANCH  16  18
ATOM     17  F   UNL     1       6.280   7.741  17.528  0.00  0.00    +0.000 F 
ATOM     18  C   UNL     1       7.609   7.508  17.504  0.00  0.00    +0.000 C 
ATOM     19  F   UNL     1       8.257   8.657  17.217  0.00  0.00    +0.000 F 
ATOM     20  F   UNL     1       7.980   7.114  18.743  0.00  0.00    +0.000 F 
ENDBRANCH  16  18
ENDBRANCH  10  16
ENDBRANCH   9  14
ENDBRANCH   1   9
BRANCH   1  21
ATOM     21  C   UNL     1       3.851   5.079  19.372  0.00  0.00    +0.000 C 
BRANCH  21  22
ATOM     22  C   UNL     1       2.966   5.878  18.380  0.00  0.00    +0.000 C 
BRANCH  22  23
ATOM     23  C   UNL     1       2.284   7.140  18.882  0.00  0.00    +0.000 A 
ATOM     24  C   UNL     1       1.873   7.332  20.205  0.00  0.00    +0.000 A 
ATOM     25  C   UNL     1       1.278   8.536  20.602  0.00  0.00    +0.000 A 
ATOM     26  C   UNL     1       1.094   9.570  19.687  0.00  0.00    +0.000 A 
ATOM     27  C   UNL     1       1.497   9.391  18.365  0.00  0.00    +0.000 A 
ATOM     28  C   UNL     1       2.079   8.189  17.965  0.00  0.00    +0.000 A 
ENDBRANCH  22  23
ENDBRANCH  21  22
ENDBRANCH   1  21
TORSDOF 8
ENDMDL
MODEL 3
REMARK VINA RESULT:      -8.3      4.297      7.128
REMARK  Name = 
REMARK  8 active torsions:
REMARK  status: ('A' for Active; 'I' for Inactive)
REMARK    1  A    between atoms: C_2  and  O_5
REMARK    2  A    between atoms: O_5  and  C_6
REMARK    3  A    between atoms: C_10  and  C_11
REMARK    4  A    between atoms: C_11  and  N_12
REMARK    5  A    between atoms: N_12  and  C_13
REMARK    6  A    between atoms: N_12  and  C_21
REMARK    7  A    between atoms: C_13  and  C_14
REMARK    8  A    between atoms: C_14  and  C_15
REMARK                            x       y       z     vdW  Elec       q    Type
REMARK                         _______ _______ _______ _____ _____    ______ ____
ROOT
ATOM      1  N   UNL     1       2.429   5.506  19.573  0.00  0.00    +0.000 NA
ENDROOT
BRANCH   1   2
ATOM      2  C   UNL     1       1.450   4.498  19.042  0.00  0.00    +0.000 C 
ATOM      3  C   UNL     1       1.056   3.377  20.040  0.00  0.00    +0.000 C 
ATOM      4  C   UNL     1       1.885   2.093  19.950  0.00  0.00    +0.000 C 
ATOM      5  N   UNL     1       1.984   1.587  18.584  0.00  0.00    +0.000 NA
ATOM      6  C   UNL     1       2.568   2.587  17.695  0.00  0.00    +0.000 C 
ATOM      7  C   UNL     1       1.745   3.874  17.656  0.00  0.00    +0.000 C 
ATOM      8  H   UNL     1       1.054   1.339  18.250  0.00  0.00    +0.000 HD
ENDBRANCH   1   2
BRANCH   1   9
ATOM      9  C   UNL     1       3.091   6.242  18.484  0.00  0.00    +0.000 C 
BRANCH   9  14
ATOM     10  C   UNL     1       6.274   5.635  16.506  0.00  0.00    +0.000 A 
ATOM     11  C   UNL     1       7.087   5.071  17.491  0.00  0.00    +0.000 A 
ATOM     12  C   UNL     1       6.678   5.023  18.820  0.00  0.00    +0.000 A 
ATOM     13  C   UNL     1       5.420   5.507  19.183  0.00  0.00    +0.000 A 
ATOM     14  C   UNL     1       4.567   6.032  18.205  0.00  0.00    +0.000 A 
ATOM     15  C   UNL     1       5.011   6.107  16.865  0.00  0.00    +0.000 A 
BRANCH  10  16
ATOM     16  O   UNL     1       6.804   5.591  15.254  0.00  0.00    +0.000 OA
BRANCH  16  18
ATOM     17  F   UNL     1       7.073   4.611  13.180  0.00  0.00    +0.000 F 
ATOM     18  C   UNL     1       6.381   4.595  14.338  0.00  0.00    +0.000 C 
ATOM     19  F   UNL     1       5.064   4.732  14.072  0.00  0.00    +0.000 F 
ATOM     20  F   UNL     1       6.569   3.386  14.914  0.00  0.00    +0.000 F 
ENDBRANCH  16  18
ENDBRANCH  10  16
ENDBRANCH   9  14
ENDBRANCH   1   9
BRANCH   1  21
ATOM     21  C   UNL     1       1.825   6.446  20.559  0.00  0.00    +0.000 C 
BRANCH  21  22
ATOM     22  C   UNL     1       1.797   7.941  20.142  0.00  0.00    +0.000 C 
BRANCH  22  23
ATOM     23  C   UNL     1       0.910   8.890  20.932  0.00  0.00    +0.000 A 
ATOM     24  C   UNL     1       0.743   8.830  22.319  0.00  0.00    +0.000 A 
ATOM     25  C   UNL     1      -0.066   9.759  22.984  0.00  0.00    +0.000 A 
ATOM     26  C   UNL     1      -0.714  10.768  22.274  0.00  0.00    +0.000 A 
ATOM     27  C   UNL     1      -0.558  10.837  20.892  0.00  0.00    +0.000 A 
ATOM     28  C   UNL     1       0.238   9.907  20.227  0.00  0.00    +0.000 A 
ENDBRANCH  22  23
ENDBRANCH  21  22
ENDBRANCH   1  21
TORSDOF 8
ENDMDL
MODEL 4
REMARK VINA RESULT:      -8.2      4.243      7.223
REMARK  Name = 
REMARK  8 active torsions:
REMARK  status: ('A' for Active; 'I' for Inactive)
REMARK    1  A    between atoms: C_2  and  O_5
REMARK    2  A    between atoms: O_5  and  C_6
REMARK    3  A    between atoms: C_10  and  C_11
REMARK    4  A    between atoms: C_11  and  N_12
REMARK    5  A    between atoms: N_12  and  C_13
REMARK    6  A    between atoms: N_12  and  C_21
REMARK    7  A    between atoms: C_13  and  C_14
REMARK    8  A    between atoms: C_14  and  C_15
REMARK                            x       y       z     vdW  Elec       q    Type
REMARK                         _______ _______ _______ _____ _____    ______ ____
ROOT
ATOM      1  N   UNL     1       2.647   5.593  19.258  0.00  0.00    +0.000 NA
ENDROOT
BRANCH   1   2
ATOM      2  C   UNL     1       1.495   4.631  19.180  0.00  0.00    +0.000 C 
ATOM      3  C   UNL     1       1.286   3.755  20.443  0.00  0.00    +0.000 C 
ATOM      4  C   UNL     1       1.971   2.386  20.417  0.00  0.00    +0.000 C 
ATOM      5  N   UNL     1       1.685   1.643  19.194  0.00  0.00    +0.000 NA
ATOM      6  C   UNL     1       2.096   2.397  18.013  0.00  0.00    +0.000 C 
ATOM      7  C   UNL     1       1.385   3.745  17.914  0.00  0.00    +0.000 C 
ATOM      8  H   UNL     1       0.685   1.452  19.143  0.00  0.00    +0.000 HD
ENDBRANCH   1   2
BRANCH   1   9
ATOM      9  C   UNL     1       3.907   4.903  19.579  0.00  0.00    +0.000 C 
BRANCH   9  14
ATOM     10  C   UNL     1       6.237   4.211  16.663  0.00  0.00    +0.000 A 
ATOM     11  C   UNL     1       7.444   4.690  17.177  0.00  0.00    +0.000 A 
ATOM     12  C   UNL     1       7.488   5.372  18.389  0.00  0.00    +0.000 A 
ATOM     13  C   UNL     1       6.322   5.553  19.134  0.00  0.00    +0.000 A 
ATOM     14  C   UNL     1       5.108   5.037  18.664  0.00  0.00    +0.000 A 
ATOM     15  C   UNL     1       5.073   4.379  17.413  0.00  0.00    +0.000 A 
BRANCH  10  16
ATOM     16  O   UNL     1       6.359   3.550  15.480  0.00  0.00    +0.000 OA
BRANCH  16  18
ATOM     17  F   UNL     1       7.350   4.932  13.916  0.00  0.00    +0.000 F 
ATOM     18  C   UNL     1       6.233   4.256  14.257  0.00  0.00    +0.000 C 
ATOM     19  F   UNL     1       5.193   5.115  14.316  0.00  0.00    +0.000 F 
ATOM     20  F   UNL     1       5.981   3.358  13.278  0.00  0.00    +0.000 F 
ENDBRANCH  16  18
ENDBRANCH  10  16
ENDBRANCH   9  14
ENDBRANCH   1   9
BRANCH   1  21
ATOM     21  C   UNL     1       2.796   6.428  18.032  0.00  0.00    +0.000 C 
BRANCH  21  22
ATOM     22  C   UNL     1       2.918   7.957  18.264  0.00  0.00    +0.000 C 
BRANCH  22  23
ATOM     23  C   UNL     1       1.715   8.695  18.829  0.00  0.00    +0.000 A 
ATOM     24  C   UNL     1       1.367   8.699  20.184  0.00  0.00    +0.000 A 
ATOM     25  C   UNL     1       0.261   9.428  20.637  0.00  0.00    +0.000 A 
ATOM     26  C   UNL     1      -0.508  10.173  19.746  0.00  0.00    +0.000 A 
ATOM     27  C   UNL     1      -0.174  10.176  18.393  0.00  0.00    +0.000 A 
ATOM     28  C   UNL     1       0.920   9.441  17.938  0.00  0.00    +0.000 A 
ENDBRANCH  22  23
ENDBRANCH  21  22
ENDBRANCH   1  21
TORSDOF 8
ENDMDL
MODEL 5
REMARK VINA RESULT:      -8.2      0.489      1.253
REMARK  Name = 
REMARK  8 active torsions:
REMARK  status: ('A' for Active; 'I' for Inactive)
REMARK    1  A    between atoms: C_2  and  O_5
REMARK    2  A    between atoms: O_5  and  C_6
REMARK    3  A    between atoms: C_10  and  C_11
REMARK    4  A    between atoms: C_11  and  N_12
REMARK    5  A    between atoms: N_12  and  C_13
REMARK    6  A    between atoms: N_12  and  C_21
REMARK    7  A    between atoms: C_13  and  C_14
REMARK    8  A    between atoms: C_14  and  C_15
REMARK                            x       y       z     vdW  Elec       q    Type
REMARK                         _______ _______ _______ _____ _____    ______ ____
ROOT
ATOM      1  N   UNL     1       4.444   6.057  17.530  0.00  0.00    +0.000 NA
ENDROOT
BRANCH   1   2
ATOM      2  C   UNL     1       5.898   6.321  17.261  0.00  0.00    +0.000 C 
ATOM      3  C   UNL     1       6.428   5.766  15.913  0.00  0.00    +0.000 C 
ATOM      4  C   UNL     1       7.057   4.371  15.975  0.00  0.00    +0.000 C 
ATOM      5  N   UNL     1       8.056   4.257  17.033  0.00  0.00    +0.000 NA
ATOM      6  C   UNL     1       7.479   4.571  18.337  0.00  0.00    +0.000 C 
ATOM      7  C   UNL     1       6.907   5.987  18.387  0.00  0.00    +0.000 C 
ATOM      8  H   UNL     1       8.824   4.898  16.839  0.00  0.00    +0.000 HD
ENDBRANCH   1   2
BRANCH   1   9
ATOM      9  C   UNL     1       3.617   7.240  17.243  0.00  0.00    +0.000 C 
BRANCH   9  14
ATOM     10  C   UNL     1       1.158   9.538  18.998  0.00  0.00    +0.000 A 
ATOM     11  C   UNL     1       1.075   8.922  20.248  0.00  0.00    +0.000 A 
ATOM     12  C   UNL     1       1.682   7.692  20.484  0.00  0.00    +0.000 A 
ATOM     13  C   UNL     1       2.421   7.071  19.477  0.00  0.00    +0.000 A 
ATOM     14  C   UNL     1       2.560   7.693  18.231  0.00  0.00    +0.000 A 
ATOM     15  C   UNL     1       1.908   8.925  17.995  0.00  0.00    +0.000 A 
BRANCH  10  16
ATOM     16  O   UNL     1       0.530  10.744  18.929  0.00  0.00    +0.000 OA
BRANCH  16  18
ATOM     17  F   UNL     1      -1.142  11.955  17.894  0.00  0.00    +0.000 F 
ATOM     18  C   UNL     1      -0.832  10.814  18.544  0.00  0.00    +0.000 C 
ATOM     19  F   UNL     1      -1.632  10.685  19.624  0.00  0.00    +0.000 F 
ATOM     20  F   UNL     1      -1.087   9.782  17.708  0.00  0.00    +0.000 F 
ENDBRANCH  16  18
ENDBRANCH  10  16
ENDBRANCH   9  14
ENDBRANCH   1   9
BRANCH   1  21
ATOM     21  C   UNL     1       3.923   4.859  16.812  0.00  0.00    +0.000 C 
BRANCH  21  22
ATOM     22  C   UNL     1       3.886   3.541  17.630  0.00  0.00    +0.000 C 
BRANCH  22  23
ATOM     23  C   UNL     1       2.959   3.469  18.833  0.00  0.00    +0.000 A 
ATOM     24  C   UNL     1       3.391   3.565  20.159  0.00  0.00    +0.000 A 
ATOM     25  C   UNL     1       2.474   3.521  21.216  0.00  0.00    +0.000 A 
ATOM     26  C   UNL     1       1.110   3.391  20.965  0.00  0.00    +0.000 A 
ATOM     27  C   UNL     1       0.666   3.293  19.648  0.00  0.00    +0.000 A 
ATOM     28  C   UNL     1       1.578   3.324  18.595  0.00  0.00    +0.000 A 
ENDBRANCH  22  23
ENDBRANCH  21  22
ENDBRANCH   1  21
TORSDOF 8
ENDMDL
MODEL 6
REMARK VINA RESULT:      -8.2      2.429      4.815
REMARK  Name = 
REMARK  8 active torsions:
REMARK  status: ('A' for Active; 'I' for Inactive)
REMARK    1  A    between atoms: C_2  and  O_5
REMARK    2  A    between atoms: O_5  and  C_6
REMARK    3  A    between atoms: C_10  and  C_11
REMARK    4  A    between atoms: C_11  and  N_12
REMARK    5  A    between atoms: N_12  and  C_13
REMARK    6  A    between atoms: N_12  and  C_21
REMARK    7  A    between atoms: C_13  and  C_14
REMARK    8  A    between atoms: C_14  and  C_15
REMARK                            x       y       z     vdW  Elec       q    Type
REMARK                         _______ _______ _______ _____ _____    ______ ____
ROOT
ATOM      1  N   UNL     1       2.930   5.334  19.138  0.00  0.00    +0.000 NA
ENDROOT
BRANCH   1   2
ATOM      2  C   UNL     1       1.919   4.396  18.542  0.00  0.00    +0.000 C 
ATOM      3  C   UNL     1       1.080   3.595  19.571  0.00  0.00    +0.000 C 
ATOM      4  C   UNL     1       1.626   2.212  19.933  0.00  0.00    +0.000 C 
ATOM      5  N   UNL     1       1.939   1.409  18.755  0.00  0.00    +0.000 NA
ATOM      6  C   UNL     1       2.909   2.088  17.900  0.00  0.00    +0.000 C 
ATOM      7  C   UNL     1       2.400   3.445  17.417  0.00  0.00    +0.000 C 
ATOM      8  H   UNL     1       1.084   1.239  18.228  0.00  0.00    +0.000 HD
ENDBRANCH   1   2
BRANCH   1   9
ATOM      9  C   UNL     1       2.343   6.149  20.214  0.00  0.00    +0.000 C 
BRANCH   9  14
ATOM     10  C   UNL     1       0.663   9.518  20.697  0.00  0.00    +0.000 A 
ATOM     11  C   UNL     1       0.748  10.037  19.403  0.00  0.00    +0.000 A 
ATOM     12  C   UNL     1       1.473   9.383  18.413  0.00  0.00    +0.000 A 
ATOM     13  C   UNL     1       2.099   8.167  18.691  0.00  0.00    +0.000 A 
ATOM     14  C   UNL     1       1.987   7.601  19.967  0.00  0.00    +0.000 A 
ATOM     15  C   UNL     1       1.277   8.297  20.973  0.00  0.00    +0.000 A 
BRANCH  10  16
ATOM     16  O   UNL     1      -0.096  10.262  21.546  0.00  0.00    +0.000 OA
BRANCH  16  18
ATOM     17  F   UNL     1      -1.333  10.526  23.479  0.00  0.00    +0.000 F 
ATOM     18  C   UNL     1      -0.452   9.746  22.817  0.00  0.00    +0.000 C 
ATOM     19  F   UNL     1       0.649   9.572  23.579  0.00  0.00    +0.000 F 
ATOM     20  F   UNL     1      -1.030   8.537  22.634  0.00  0.00    +0.000 F 
ENDBRANCH  16  18
ENDBRANCH  10  16
ENDBRANCH   9  14
ENDBRANCH   1   9
BRANCH   1  21
ATOM     21  C   UNL     1       4.165   4.644  19.607  0.00  0.00    +0.000 C 
BRANCH  21  22
ATOM     22  C   UNL     1       5.491   5.098  18.941  0.00  0.00    +0.000 C 
BRANCH  22  23
ATOM     23  C   UNL     1       5.550   5.149  17.423  0.00  0.00    +0.000 A 
ATOM     24  C   UNL     1       5.263   6.292  16.668  0.00  0.00    +0.000 A 
ATOM     25  C   UNL     1       5.369   6.273  15.273  0.00  0.00    +0.000 A 
ATOM     26  C   UNL     1       5.773   5.116  14.609  0.00  0.00    +0.000 A 
ATOM     27  C   UNL     1       6.059   3.971  15.348  0.00  0.00    +0.000 A 
ATOM     28  C   UNL     1       5.942   3.983  16.737  0.00  0.00    +0.000 A 
ENDBRANCH  22  23
ENDBRANCH  21  22
ENDBRANCH   1  21
TORSDOF 8
ENDMDL
MODEL 7
REMARK VINA RESULT:      -8.2      1.141      1.921
REMARK  Name = 
REMARK  8 active torsions:
REMARK  status: ('A' for Active; 'I' for Inactive)
REMARK    1  A    between atoms: C_2  and  O_5
REMARK    2  A    between atoms: O_5  and  C_6
REMARK    3  A    between atoms: C_10  and  C_11
REMARK    4  A    between atoms: C_11  and  N_12
REMARK    5  A    between atoms: N_12  and  C_13
REMARK    6  A    between atoms: N_12  and  C_21
REMARK    7  A    between atoms: C_13  and  C_14
REMARK    8  A    between atoms: C_14  and  C_15
REMARK                            x       y       z     vdW  Elec       q    Type
REMARK                         _______ _______ _______ _____ _____    ______ ____
ROOT
ATOM      1  N   UNL     1       4.287   4.625  17.710  0.00  0.00    +0.000 NA
ENDROOT
BRANCH   1   2
ATOM      2  C   UNL     1       5.707   4.273  17.369  0.00  0.00    +0.000 C 
ATOM      3  C   UNL     1       6.778   5.242  17.934  0.00  0.00    +0.000 C 
ATOM      4  C   UNL     1       7.206   6.372  16.994  0.00  0.00    +0.000 C 
ATOM      5  N   UNL     1       7.568   5.887  15.666  0.00  0.00    +0.000 NA
ATOM      6  C   UNL     1       6.460   5.159  15.053  0.00  0.00    +0.000 C 
ATOM      7  C   UNL     1       6.030   3.955  15.888  0.00  0.00    +0.000 C 
ATOM      8  H   UNL     1       8.376   5.271  15.743  0.00  0.00    +0.000 HD
ENDBRANCH   1   2
BRANCH   1   9
ATOM      9  C   UNL     1       4.043   6.070  17.581  0.00  0.00    +0.000 C 
BRANCH   9  14
ATOM     10  C   UNL     1       1.692   8.788  18.805  0.00  0.00    +0.000 A 
ATOM     11  C   UNL     1       1.436   8.343  20.104  0.00  0.00    +0.000 A 
ATOM     12  C   UNL     1       1.889   7.101  20.540  0.00  0.00    +0.000 A 
ATOM     13  C   UNL     1       2.645   6.294  19.690  0.00  0.00    +0.000 A 
ATOM     14  C   UNL     1       2.956   6.739  18.400  0.00  0.00    +0.000 A 
ATOM     15  C   UNL     1       2.459   7.987  17.959  0.00  0.00    +0.000 A 
BRANCH  10  16
ATOM     16  O   UNL     1       1.201  10.028  18.535  0.00  0.00    +0.000 OA
BRANCH  16  18
ATOM     17  F   UNL     1      -0.841   9.864  19.601  0.00  0.00    +0.000 F 
ATOM     18  C   UNL     1      -0.199  10.240  18.476  0.00  0.00    +0.000 C 
ATOM     19  F   UNL     1      -0.729   9.585  17.421  0.00  0.00    +0.000 F 
ATOM     20  F   UNL     1      -0.417  11.563  18.301  0.00  0.00    +0.000 F 
ENDBRANCH  16  18
ENDBRANCH  10  16
ENDBRANCH   9  14
ENDBRANCH   1   9
BRANCH   1  21
ATOM     21  C   UNL     1       3.286   3.845  16.930  0.00  0.00    +0.000 C 
BRANCH  21  22
ATOM     22  C   UNL     1       2.740   2.564  17.615  0.00  0.00    +0.000 C 
BRANCH  22  23
ATOM     23  C   UNL     1       2.334   2.650  19.077  0.00  0.00    +0.000 A 
ATOM     24  C   UNL     1       3.228   2.522  20.144  0.00  0.00    +0.000 A 
ATOM     25  C   UNL     1       2.786   2.644  21.467  0.00  0.00    +0.000 A 
ATOM     26  C   UNL     1       1.446   2.905  21.744  0.00  0.00    +0.000 A 
ATOM     27  C   UNL     1       0.544   3.032  20.690  0.00  0.00    +0.000 A 
ATOM     28  C   UNL     1       0.980   2.900  19.373  0.00  0.00    +0.000 A 
ENDBRANCH  22  23
ENDBRANCH  21  22
ENDBRANCH   1  21
TORSDOF 8
ENDMDL
MODEL 8
REMARK VINA RESULT:      -8.2      6.174      7.774
REMARK  Name = 
REMARK  8 active torsions:
REMARK  status: ('A' for Active; 'I' for Inactive)
REMARK    1  A    between atoms: C_2  and  O_5
REMARK    2  A    between atoms: O_5  and  C_6
REMARK    3  A    between atoms: C_10  and  C_11
REMARK    4  A    between atoms: C_11  and  N_12
REMARK    5  A    between atoms: N_12  and  C_13
REMARK    6  A    between atoms: N_12  and  C_21
REMARK    7  A    between atoms: C_13  and  C_14
REMARK    8  A    between atoms: C_14  and  C_15
REMARK                            x       y       z     vdW  Elec       q    Type
REMARK                         _______ _______ _______ _____ _____    ______ ____
ROOT
ATOM      1  N   UNL     1       5.286   4.811  16.662  0.00  0.00    +0.000 NA
ENDROOT
BRANCH   1   2
ATOM      2  C   UNL     1       5.477   5.819  17.760  0.00  0.00    +0.000 C 
ATOM      3  C   UNL     1       6.099   7.167  17.312  0.00  0.00    +0.000 C 
ATOM      4  C   UNL     1       7.621   7.266  17.440  0.00  0.00    +0.000 C 
ATOM      5  N   UNL     1       8.097   6.867  18.760  0.00  0.00    +0.000 NA
ATOM      6  C   UNL     1       7.686   5.502  19.077  0.00  0.00    +0.000 C 
ATOM      7  C   UNL     1       6.167   5.339  19.061  0.00  0.00    +0.000 C 
ATOM      8  H   UNL     1       7.719   7.505  19.460  0.00  0.00    +0.000 HD
ENDBRANCH   1   2
BRANCH   1   9
ATOM      9  C   UNL     1       6.550   4.526  15.964  0.00  0.00    +0.000 C 
BRANCH   9  14
ATOM     10  C   UNL     1       6.193   3.371  12.366  0.00  0.00    +0.000 A 
ATOM     11  C   UNL     1       7.151   4.172  11.741  0.00  0.00    +0.000 A 
ATOM     12  C   UNL     1       7.803   5.187  12.436  0.00  0.00    +0.000 A 
ATOM     13  C   UNL     1       7.535   5.392  13.789  0.00  0.00    +0.000 A 
ATOM     14  C   UNL     1       6.615   4.569  14.450  0.00  0.00    +0.000 A 
ATOM     15  C   UNL     1       5.934   3.567  13.722  0.00  0.00    +0.000 A 
BRANCH  10  16
ATOM     16  O   UNL     1       5.659   2.413  11.561  0.00  0.00    +0.000 OA
BRANCH  16  18
ATOM     17  F   UNL     1       6.749   1.474   9.755  0.00  0.00    +0.000 F 
ATOM     18  C   UNL     1       6.474   1.362  11.071  0.00  0.00    +0.000 C 
ATOM     19  F   UNL     1       5.889   0.167  11.303  0.00  0.00    +0.000 F 
ATOM     20  F   UNL     1       7.648   1.392  11.741  0.00  0.00    +0.000 F 
ENDBRANCH  16  18
ENDBRANCH  10  16
ENDBRANCH   9  14
ENDBRANCH   1   9
BRANCH   1  21
ATOM     21  C   UNL     1       4.642   3.550  17.130  0.00  0.00    +0.000 C 
BRANCH  21  22
ATOM     22  C   UNL     1       3.106   3.612  17.342  0.00  0.00    +0.000 C 
BRANCH  22  23
ATOM     23  C   UNL     1       2.572   3.490  18.760  0.00  0.00    +0.000 A 
ATOM     24  C   UNL     1       1.302   3.923  19.156  0.00  0.00    +0.000 A 
ATOM     25  C   UNL     1       0.866   3.749  20.475  0.00  0.00    +0.000 A 
ATOM     26  C   UNL     1       1.687   3.132  21.416  0.00  0.00    +0.000 A 
ATOM     27  C   UNL     1       2.955   2.699  21.035  0.00  0.00    +0.000 A 
ATOM     28  C   UNL     1       3.396   2.881  19.726  0.00  0.00    +0.000 A 
ENDBRANCH  22  23
ENDBRANCH  21  22
ENDBRANCH   1  21
TORSDOF 8
ENDMDL
MODEL 9
REMARK VINA RESULT:      -8.1      1.678      2.284
REMARK  Name = 
REMARK  8 active torsions:
REMARK  status: ('A' for Active; 'I' for Inactive)
REMARK    1  A    between atoms: C_2  and  O_5
REMARK    2  A    between atoms: O_5  and  C_6
REMARK    3  A    between atoms: C_10  and  C_11
REMARK    4  A    between atoms: C_11  and  N_12
REMARK    5  A    between atoms: N_12  and  C_13
REMARK    6  A    between atoms: N_12  and  C_21
REMARK    7  A    between atoms: C_13  and  C_14
REMARK    8  A    between atoms: C_14  and  C_15
REMARK                            x       y       z     vdW  Elec       q    Type
REMARK                         _______ _______ _______ _____ _____    ______ ____
ROOT
ATOM      1  N   UNL     1       3.926   5.372  17.583  0.00  0.00    +0.000 NA
ENDROOT
BRANCH   1   2
ATOM      2  C   UNL     1       4.748   6.322  16.758  0.00  0.00    +0.000 C 
ATOM      3  C   UNL     1       5.207   5.771  15.384  0.00  0.00    +0.000 C 
ATOM      4  C   UNL     1       6.591   5.116  15.365  0.00  0.00    +0.000 C 
ATOM      5  N   UNL     1       7.614   5.959  15.975  0.00  0.00    +0.000 NA
ATOM      6  C   UNL     1       7.269   6.289  17.355  0.00  0.00    +0.000 C 
ATOM      7  C   UNL     1       5.937   7.030  17.454  0.00  0.00    +0.000 C 
ATOM      8  H   UNL     1       7.708   6.818  15.435  0.00  0.00    +0.000 HD
ENDBRANCH   1   2
BRANCH   1   9
ATOM      9  C   UNL     1       2.565   5.885  17.805  0.00  0.00    +0.000 C 
BRANCH   9  14
ATOM     10  C   UNL     1       1.611   8.530  20.355  0.00  0.00    +0.000 A 
ATOM     11  C   UNL     1       1.353   9.617  19.517  0.00  0.00    +0.000 A 
ATOM     12  C   UNL     1       1.629   9.554  18.155  0.00  0.00    +0.000 A 
ATOM     13  C   UNL     1       2.134   8.380  17.596  0.00  0.00    +0.000 A 
ATOM     14  C   UNL     1       2.355   7.260  18.407  0.00  0.00    +0.000 A 
ATOM     15  C   UNL     1       2.104   7.351  19.796  0.00  0.00    +0.000 A 
BRANCH  10  16
ATOM     16  O   UNL     1       1.272   8.738  21.657  0.00  0.00    +0.000 OA
BRANCH  16  18
ATOM     17  F   UNL     1      -0.276   9.000  23.350  0.00  0.00    +0.000 F 
ATOM     18  C   UNL     1      -0.089   8.905  22.018  0.00  0.00    +0.000 C 
ATOM     19  F   UNL     1      -0.831   7.886  21.535  0.00  0.00    +0.000 F 
ATOM     20  F   UNL     1      -0.535  10.052  21.456  0.00  0.00    +0.000 F 
ENDBRANCH  16  18
ENDBRANCH  10  16
ENDBRANCH   9  14
ENDBRANCH   1   9
BRANCH   1  21
ATOM     21  C   UNL     1       3.888   3.991  17.022  0.00  0.00    +0.000 C 
BRANCH  21  22
ATOM     22  C   UNL     1       3.932   2.837  18.057  0.00  0.00    +0.000 C 
BRANCH  22  23
ATOM     23  C   UNL     1       2.936   2.864  19.205  0.00  0.00    +0.000 A 
ATOM     24  C   UNL     1       1.552   2.963  19.036  0.00  0.00    +0.000 A 
ATOM     25  C   UNL     1       0.693   2.951  20.142  0.00  0.00    +0.000 A 
ATOM     26  C   UNL     1       1.202   2.831  21.432  0.00  0.00    +0.000 A 
ATOM     27  C   UNL     1       2.580   2.734  21.615  0.00  0.00    +0.000 A 
ATOM     28  C   UNL     1       3.438   2.758  20.517  0.00  0.00    +0.000 A 
ENDBRANCH  22  23
ENDBRANCH  21  22
ENDBRANCH   1  21
TORSDOF 8
ENDMDL
