MODEL 1
REMARK VINA RESULT:      -8.3      0.000      0.000
REMARK  Name = 
REMARK  3 active torsions:
REMARK  status: ('A' for Active; 'I' for Inactive)
REMARK    1  A    between atoms: C_2  and  C_3
REMARK    2  A    between atoms: C_2  and  C_19
REMARK    3  A    between atoms: N_9  and  C_10
REMARK                            x       y       z     vdW  Elec       q    Type
REMARK                         _______ _______ _______ _____ _____    ______ ____
ROOT
ATOM      1  C   UNL     1       6.368   5.652  17.688  0.00  0.00    +0.000 C 
ATOM      2  N   UNL     1       7.062   6.763  17.721  0.00  0.00    +0.000 NA
ATOM      3  N   UNL     1       7.740   6.787  16.494  0.00  0.00    +0.000 N 
ATOM      4  C   UNL     1       6.932   6.010  15.573  0.00  0.00    +0.000 C 
ATOM      5  C   UNL     1       7.355   5.235  14.373  0.00  0.00    +0.000 C 
ATOM      6  O   UNL     1       8.241   5.522  13.591  0.00  0.00    +0.000 OA
ATOM      7  N   UNL     1       6.353   4.240  14.325  0.00  0.00    +0.000 N 
ATOM      8  C   UNL     1       5.754   4.114  15.590  0.00  0.00    +0.000 C 
ATOM      9  O   UNL     1       4.747   3.535  15.951  0.00  0.00    +0.000 OA
ATOM     10  C   UNL     1       6.651   4.850  16.489  0.00  0.00    +0.000 C 
ATOM     11  H   UNL     1       7.903   7.743  16.169  0.00  0.00    +0.000 HD
ENDROOT
BRANCH   7  12
ATOM     12  C   UNL     1       5.864   3.645  13.128  0.00  0.00    +0.000 A 
ATOM     13  C   UNL     1       4.600   3.953  12.600  0.00  0.00    +0.000 A 
ATOM     14  C   UNL     1       4.112   3.292  11.465  0.00  0.00    +0.000 A 
ATOM     15  C   UNL     1       4.871   2.302  10.846  0.00  0.00    +0.000 A 
ATOM     16  C   UNL     1       6.124   1.983  11.350  0.00  0.00    +0.000 A 
ATOM     17  C   UNL     1       6.618   2.658  12.468  0.00  0.00    +0.000 A 
ENDBRANCH   7  12
BRANCH   1  19
ATOM     18  O   UNL     1       6.277   4.777  19.792  0.00  0.00    +0.000 OA
ATOM     19  C   UNL     1       5.593   5.044  18.806  0.00  0.00    +0.000 C 
BRANCH  19  20
ATOM     20  C   UNL     1       4.132   4.774  18.727  0.00  0.00    +0.000 A 
ATOM     21  N   UNL     1       3.737   3.554  19.184  0.00  0.00    +0.000 NA
ATOM     22  C   UNL     1       2.427   3.261  19.071  0.00  0.00    +0.000 A 
ATOM     23 CL   UNL     1       1.989   1.690  19.605  0.00  0.00    +0.000 Cl
ATOM     24  C   UNL     1       1.465   4.115  18.558  0.00  0.00    +0.000 A 
ATOM     25  C   UNL     1       1.879   5.371  18.131  0.00  0.00    +0.000 A 
ATOM     26  C   UNL     1       3.231   5.718  18.210  0.00  0.00    +0.000 A 
ATOM     27 CL   UNL     1       3.638   7.296  17.646  0.00  0.00    +0.000 Cl
ENDBRANCH  19  20
ENDBRANCH   1  19
TORSDOF 3
ENDMDL
MODEL 2
REMARK VINA RESULT:      -8.1      5.582      7.601
REMARK  Name = 
REMARK  3 active torsions:
REMARK  status: ('A' for Active; 'I' for Inactive)
REMARK    1  A    between atoms: C_2  and  C_3
REMARK    2  A    between atoms: C_2  and  C_19
REMARK    3  A    between atoms: N_9  and  C_10
REMARK                            x       y       z     vdW  Elec       q    Type
REMARK                         _______ _______ _______ _____ _____    ______ ____
ROOT
ATOM      1  C   UNL     1       0.738   9.748  19.903  0.00  0.00    +0.000 C 
ATOM      2  N   UNL     1       0.619   9.653  21.205  0.00  0.00    +0.000 NA
ATOM      3  N   UNL     1       1.033   8.346  21.498  0.00  0.00    +0.000 N 
ATOM      4  C   UNL     1       1.945   7.965  20.435  0.00  0.00    +0.000 C 
ATOM      5  C   UNL     1       2.251   6.609  19.898  0.00  0.00    +0.000 C 
ATOM      6  O   UNL     1       2.306   5.568  20.525  0.00  0.00    +0.000 OA
ATOM      7  N   UNL     1       2.616   6.920  18.569  0.00  0.00    +0.000 N 
ATOM      8  C   UNL     1       2.092   8.176  18.218  0.00  0.00    +0.000 C 
ATOM      9  O   UNL     1       2.312   8.904  17.270  0.00  0.00    +0.000 OA
ATOM     10  C   UNL     1       1.125   8.472  19.281  0.00  0.00    +0.000 C 
ATOM     11  H   UNL     1       1.458   8.281  22.427  0.00  0.00    +0.000 HD
ENDROOT
BRANCH   7  12
ATOM     12  C   UNL     1       3.569   6.191  17.804  0.00  0.00    +0.000 A 
ATOM     13  C   UNL     1       4.688   6.805  17.218  0.00  0.00    +0.000 A 
ATOM     14  C   UNL     1       5.566   6.077  16.403  0.00  0.00    +0.000 A 
ATOM     15  C   UNL     1       5.334   4.729  16.146  0.00  0.00    +0.000 A 
ATOM     16  C   UNL     1       4.235   4.101  16.717  0.00  0.00    +0.000 A 
ATOM     17  C   UNL     1       3.374   4.822  17.546  0.00  0.00    +0.000 A 
ENDBRANCH   7  12
BRANCH   1  19
ATOM     18  O   UNL     1       1.154  11.693  18.788  0.00  0.00    +0.000 OA
ATOM     19  C   UNL     1       0.276  10.870  19.039  0.00  0.00    +0.000 C 
BRANCH  19  20
ATOM     20  C   UNL     1      -1.120  10.988  18.540  0.00  0.00    +0.000 A 
ATOM     21  N   UNL     1      -1.381  10.339  17.372  0.00  0.00    +0.000 NA
ATOM     22  C   UNL     1      -2.622  10.476  16.867  0.00  0.00    +0.000 A 
ATOM     23 CL   UNL     1      -2.883   9.689  15.365  0.00  0.00    +0.000 Cl
ATOM     24  C   UNL     1      -3.645  11.196  17.463  0.00  0.00    +0.000 A 
ATOM     25  C   UNL     1      -3.373  11.822  18.673  0.00  0.00    +0.000 A 
ATOM     26  C   UNL     1      -2.095  11.725  19.231  0.00  0.00    +0.000 A 
ATOM     27 CL   UNL     1      -1.863  12.544  20.731  0.00  0.00    +0.000 Cl
ENDBRANCH  19  20
ENDBRANCH   1  19
TORSDOF 3
ENDMDL
MODEL 3
REMARK VINA RESULT:      -8.0      4.278      7.980
REMARK  Name = 
REMARK  3 active torsions:
REMARK  status: ('A' for Active; 'I' for Inactive)
REMARK    1  A    between atoms: C_2  and  C_3
REMARK    2  A    between atoms: C_2  and  C_19
REMARK    3  A    between atoms: N_9  and  C_10
REMARK                            x       y       z     vdW  Elec       q    Type
REMARK                         _______ _______ _______ _____ _____    ______ ____
ROOT
ATOM      1  C   UNL     1       3.004   5.682  19.382  0.00  0.00    +0.000 C 
ATOM      2  N   UNL     1       2.631   4.924  20.384  0.00  0.00    +0.000 NA
ATOM      3  N   UNL     1       1.975   5.801  21.260  0.00  0.00    +0.000 N 
ATOM      4  C   UNL     1       1.469   6.885  20.440  0.00  0.00    +0.000 C 
ATOM      5  C   UNL     1       1.207   8.303  20.811  0.00  0.00    +0.000 C 
ATOM      6  O   UNL     1       0.797   8.718  21.879  0.00  0.00    +0.000 OA
ATOM      7  N   UNL     1       1.390   8.948  19.567  0.00  0.00    +0.000 N 
ATOM      8  C   UNL     1       2.161   8.131  18.723  0.00  0.00    +0.000 C 
ATOM      9  O   UNL     1       2.394   8.197  17.531  0.00  0.00    +0.000 OA
ATOM     10  C   UNL     1       2.708   7.104  19.616  0.00  0.00    +0.000 C 
ATOM     11  H   UNL     1       1.239   5.328  21.791  0.00  0.00    +0.000 HD
ENDROOT
BRANCH   7  12
ATOM     12  C   UNL     1       0.693  10.119  19.156  0.00  0.00    +0.000 A 
ATOM     13  C   UNL     1       1.149  11.410  19.466  0.00  0.00    +0.000 A 
ATOM     14  C   UNL     1       0.400  12.543  19.117  0.00  0.00    +0.000 A 
ATOM     15  C   UNL     1      -0.822  12.405  18.466  0.00  0.00    +0.000 A 
ATOM     16  C   UNL     1      -1.291  11.137  18.147  0.00  0.00    +0.000 A 
ATOM     17  C   UNL     1      -0.533  10.012  18.476  0.00  0.00    +0.000 A 
ENDBRANCH   7  12
BRANCH   1  19
ATOM     18  O   UNL     1       3.329   4.597  17.404  0.00  0.00    +0.000 OA
ATOM     19  C   UNL     1       3.886   5.298  18.245  0.00  0.00    +0.000 C 
BRANCH  19  20
ATOM     20  C   UNL     1       5.311   5.714  18.148  0.00  0.00    +0.000 A 
ATOM     21  N   UNL     1       6.094   5.370  19.206  0.00  0.00    +0.000 NA
ATOM     22  C   UNL     1       7.376   5.785  19.170  0.00  0.00    +0.000 A 
ATOM     23 CL   UNL     1       8.307   5.378  20.553  0.00  0.00    +0.000 Cl
ATOM     24  C   UNL     1       7.949   6.501  18.132  0.00  0.00    +0.000 A 
ATOM     25  C   UNL     1       7.144   6.813  17.043  0.00  0.00    +0.000 A 
ATOM     26  C   UNL     1       5.803   6.420  17.038  0.00  0.00    +0.000 A 
ATOM     27 CL   UNL     1       4.892   6.864  15.642  0.00  0.00    +0.000 Cl
ENDBRANCH  19  20
ENDBRANCH   1  19
TORSDOF 3
ENDMDL
MODEL 4
REMARK VINA RESULT:      -8.0      5.222      7.197
REMARK  Name = 
REMARK  3 active torsions:
REMARK  status: ('A' for Active; 'I' for Inactive)
REMARK    1  A    between atoms: C_2  and  C_3
REMARK    2  A    between atoms: C_2  and  C_19
REMARK    3  A    between atoms: N_9  and  C_10
REMARK                            x       y       z     vdW  Elec       q    Type
REMARK                         _______ _______ _______ _____ _____    ______ ____
ROOT
ATOM      1  C   UNL     1       1.094   9.315  19.728  0.00  0.00    +0.000 C 
ATOM      2  N   UNL     1       0.922   9.135  21.015  0.00  0.00    +0.000 NA
ATOM      3  N   UNL     1       1.342   7.817  21.243  0.00  0.00    +0.000 N 
ATOM      4  C   UNL     1       2.302   7.515  20.197  0.00  0.00    +0.000 C 
ATOM      5  C   UNL     1       2.649   6.200  19.589  0.00  0.00    +0.000 C 
ATOM      6  O   UNL     1       2.693   5.122  20.151  0.00  0.00    +0.000 OA
ATOM      7  N   UNL     1       3.065   6.599  18.299  0.00  0.00    +0.000 N 
ATOM      8  C   UNL     1       2.538   7.869  18.006  0.00  0.00    +0.000 C 
ATOM      9  O   UNL     1       2.787   8.659  17.116  0.00  0.00    +0.000 OA
ATOM     10  C   UNL     1       1.524   8.086  19.044  0.00  0.00    +0.000 C 
ATOM     11  H   UNL     1       1.729   7.698  22.182  0.00  0.00    +0.000 HD
ENDROOT
BRANCH   7  12
ATOM     12  C   UNL     1       4.059   5.931  17.530  0.00  0.00    +0.000 A 
ATOM     13  C   UNL     1       3.871   4.635  17.025  0.00  0.00    +0.000 A 
ATOM     14  C   UNL     1       4.899   3.971  16.340  0.00  0.00    +0.000 A 
ATOM     15  C   UNL     1       6.135   4.585  16.160  0.00  0.00    +0.000 A 
ATOM     16  C   UNL     1       6.341   5.868  16.648  0.00  0.00    +0.000 A 
ATOM     17  C   UNL     1       5.310   6.535  17.311  0.00  0.00    +0.000 A 
ENDBRANCH   7  12
BRANCH   1  19
ATOM     18  O   UNL     1       1.569  11.239  18.602  0.00  0.00    +0.000 OA
ATOM     19  C   UNL     1       0.652  10.484  18.918  0.00  0.00    +0.000 C 
BRANCH  19  20
ATOM     20  C   UNL     1      -0.767  10.720  18.540  0.00  0.00    +0.000 A 
ATOM     21  N   UNL     1      -1.181  10.097  17.403  0.00  0.00    +0.000 NA
ATOM     22  C   UNL     1      -2.446  10.340  17.006  0.00  0.00    +0.000 A 
ATOM     23 CL   UNL     1      -2.901   9.580  15.537  0.00  0.00    +0.000 Cl
ATOM     24  C   UNL     1      -3.349  11.142  17.684  0.00  0.00    +0.000 A 
ATOM     25  C   UNL     1      -2.921  11.741  18.863  0.00  0.00    +0.000 A 
ATOM     26  C   UNL     1      -1.613  11.536  19.309  0.00  0.00    +0.000 A 
ATOM     27 CL   UNL     1      -1.184  12.330  20.778  0.00  0.00    +0.000 Cl
ENDBRANCH  19  20
ENDBRANCH   1  19
TORSDOF 3
ENDMDL
MODEL 5
REMARK VINA RESULT:      -8.0      1.060      1.918
REMARK  Name = 
REMARK  3 active torsions:
REMARK  status: ('A' for Active; 'I' for Inactive)
REMARK    1  A    between atoms: C_2  and  C_3
REMARK    2  A    between atoms: C_2  and  C_19
REMARK    3  A    between atoms: N_9  and  C_10
REMARK                            x       y       z     vdW  Elec       q    Type
REMARK                         _______ _______ _______ _____ _____    ______ ____
ROOT
ATOM      1  C   UNL     1       6.258   5.357  17.826  0.00  0.00    +0.000 C 
ATOM      2  N   UNL     1       6.848   6.525  17.913  0.00  0.00    +0.000 NA
ATOM      3  N   UNL     1       7.487   6.687  16.676  0.00  0.00    +0.000 N 
ATOM      4  C   UNL     1       6.730   5.893  15.726  0.00  0.00    +0.000 C 
ATOM      5  C   UNL     1       7.191   5.236  14.471  0.00  0.00    +0.000 C 
ATOM      6  O   UNL     1       8.026   5.651  13.690  0.00  0.00    +0.000 OA
ATOM      7  N   UNL     1       6.285   4.155  14.382  0.00  0.00    +0.000 N 
ATOM      8  C   UNL     1       5.734   3.898  15.649  0.00  0.00    +0.000 C 
ATOM      9  O   UNL     1       4.795   3.206  15.994  0.00  0.00    +0.000 OA
ATOM     10  C   UNL     1       6.583   4.659  16.573  0.00  0.00    +0.000 C 
ATOM     11  H   UNL     1       7.552   7.672  16.408  0.00  0.00    +0.000 HD
ENDROOT
BRANCH   7  12
ATOM     12  C   UNL     1       5.821   3.590  13.161  0.00  0.00    +0.000 A 
ATOM     13  C   UNL     1       4.589   3.946  12.590  0.00  0.00    +0.000 A 
ATOM     14  C   UNL     1       4.122   3.313  11.430  0.00  0.00    +0.000 A 
ATOM     15  C   UNL     1       4.870   2.305  10.828  0.00  0.00    +0.000 A 
ATOM     16  C   UNL     1       6.093   1.939  11.374  0.00  0.00    +0.000 A 
ATOM     17  C   UNL     1       6.566   2.585  12.518  0.00  0.00    +0.000 A 
ENDBRANCH   7  12
BRANCH   1  19
ATOM     18  O   UNL     1       6.321   3.875  19.557  0.00  0.00    +0.000 OA
ATOM     19  C   UNL     1       5.573   4.613  18.919  0.00  0.00    +0.000 C 
BRANCH  19  20
ATOM     20  C   UNL     1       4.119   4.743  19.201  0.00  0.00    +0.000 A 
ATOM     21  N   UNL     1       3.684   6.006  19.461  0.00  0.00    +0.000 NA
ATOM     22  C   UNL     1       2.381   6.144  19.776  0.00  0.00    +0.000 A 
ATOM     23 CL   UNL     1       1.895   7.746  20.153  0.00  0.00    +0.000 Cl
ATOM     24  C   UNL     1       1.462   5.109  19.823  0.00  0.00    +0.000 A 
ATOM     25  C   UNL     1       1.915   3.831  19.519  0.00  0.00    +0.000 A 
ATOM     26  C   UNL     1       3.261   3.630  19.202  0.00  0.00    +0.000 A 
ATOM     27 CL   UNL     1       3.719   2.006  18.848  0.00  0.00    +0.000 Cl
ENDBRANCH  19  20
ENDBRANCH   1  19
TORSDOF 3
ENDMDL
MODEL 6
REMARK VINA RESULT:      -7.9      4.813      6.813
REMARK  Name = 
REMARK  3 active torsions:
REMARK  status: ('A' for Active; 'I' for Inactive)
REMARK    1  A    between atoms: C_2  and  C_3
REMARK    2  A    between atoms: C_2  and  C_19
REMARK    3  A    between atoms: N_9  and  C_10
REMARK                            x       y       z     vdW  Elec       q    Type
REMARK                         _______ _______ _______ _____ _____    ______ ____
ROOT
ATOM      1  C   UNL     1       1.440   8.757  19.447  0.00  0.00    +0.000 C 
ATOM      2  N   UNL     1       1.127   8.556  20.704  0.00  0.00    +0.000 NA
ATOM      3  N   UNL     1       1.565   7.251  20.969  0.00  0.00    +0.000 N 
ATOM      4  C   UNL     1       2.650   6.995  20.040  0.00  0.00    +0.000 C 
ATOM      5  C   UNL     1       3.113   5.700  19.467  0.00  0.00    +0.000 C 
ATOM      6  O   UNL     1       3.130   4.617  20.021  0.00  0.00    +0.000 OA
ATOM      7  N   UNL     1       3.661   6.128  18.237  0.00  0.00    +0.000 N 
ATOM      8  C   UNL     1       3.127   7.383  17.895  0.00  0.00    +0.000 C 
ATOM      9  O   UNL     1       3.449   8.191  17.046  0.00  0.00    +0.000 OA
ATOM     10  C   UNL     1       1.991   7.552  18.809  0.00  0.00    +0.000 C 
ATOM     11  H   UNL     1       1.844   7.134  21.946  0.00  0.00    +0.000 HD
ENDROOT
BRANCH   7  12
ATOM     12  C   UNL     1       4.762   5.505  17.584  0.00  0.00    +0.000 A 
ATOM     13  C   UNL     1       6.094   5.791  17.921  0.00  0.00    +0.000 A 
ATOM     14  C   UNL     1       7.157   5.223  17.207  0.00  0.00    +0.000 A 
ATOM     15  C   UNL     1       6.909   4.371  16.135  0.00  0.00    +0.000 A 
ATOM     16  C   UNL     1       5.599   4.072  15.785  0.00  0.00    +0.000 A 
ATOM     17  C   UNL     1       4.542   4.622  16.512  0.00  0.00    +0.000 A 
ENDBRANCH   7  12
BRANCH   1  19
ATOM     18  O   UNL     1       2.011  10.491  18.081  0.00  0.00    +0.000 OA
ATOM     19  C   UNL     1       1.054   9.920  18.600  0.00  0.00    +0.000 C 
BRANCH  19  20
ATOM     20  C   UNL     1      -0.356  10.354  18.413  0.00  0.00    +0.000 A 
ATOM     21  N   UNL     1      -0.987   9.838  17.324  0.00  0.00    +0.000 NA
ATOM     22  C   UNL     1      -2.247  10.260  17.098  0.00  0.00    +0.000 A 
ATOM     23 CL   UNL     1      -2.979   9.627  15.681  0.00  0.00    +0.000 Cl
ATOM     24  C   UNL     1      -2.943  11.145  17.905  0.00  0.00    +0.000 A 
ATOM     25  C   UNL     1      -2.296  11.634  19.033  0.00  0.00    +0.000 A 
ATOM     26  C   UNL     1      -0.983  11.241  19.304  0.00  0.00    +0.000 A 
ATOM     27 CL   UNL     1      -0.272  11.911  20.725  0.00  0.00    +0.000 Cl
ENDBRANCH  19  20
ENDBRANCH   1  19
TORSDOF 3
ENDMDL
MODEL 7
REMARK VINA RESULT:      -7.6      2.682      6.490
REMARK  Name = 
REMARK  3 active torsions:
REMARK  status: ('A' for Active; 'I' for Inactive)
REMARK    1  A    between atoms: C_2  and  C_3
REMARK    2  A    between atoms: C_2  and  C_19
REMARK    3  A    between atoms: N_9  and  C_10
REMARK                            x       y       z     vdW  Elec       q    Type
REMARK                         _______ _______ _______ _____ _____    ______ ____
ROOT
ATOM      1  C   UNL     1       6.361   5.789  16.284  0.00  0.00    +0.000 C 
ATOM      2  N   UNL     1       6.729   7.033  16.471  0.00  0.00    +0.000 NA
ATOM      3  N   UNL     1       5.634   7.628  17.114  0.00  0.00    +0.000 N 
ATOM      4  C   UNL     1       4.946   6.556  17.810  0.00  0.00    +0.000 C 
ATOM      5  C   UNL     1       3.505   6.441  18.170  0.00  0.00    +0.000 C 
ATOM      6  O   UNL     1       2.759   7.342  18.504  0.00  0.00    +0.000 OA
ATOM      7  N   UNL     1       3.340   5.038  18.185  0.00  0.00    +0.000 N 
ATOM      8  C   UNL     1       4.362   4.436  17.431  0.00  0.00    +0.000 C 
ATOM      9  O   UNL     1       4.716   3.276  17.334  0.00  0.00    +0.000 OA
ATOM     10  C   UNL     1       4.969   5.550  16.693  0.00  0.00    +0.000 C 
ATOM     11  H   UNL     1       5.924   8.384  17.739  0.00  0.00    +0.000 HD
ENDROOT
BRANCH   7  12
ATOM     12  C   UNL     1       2.435   4.341  19.035  0.00  0.00    +0.000 A 
ATOM     13  C   UNL     1       2.536   4.385  20.434  0.00  0.00    +0.000 A 
ATOM     14  C   UNL     1       1.680   3.624  21.243  0.00  0.00    +0.000 A 
ATOM     15  C   UNL     1       0.720   2.796  20.668  0.00  0.00    +0.000 A 
ATOM     16  C   UNL     1       0.601   2.740  19.286  0.00  0.00    +0.000 A 
ATOM     17  C   UNL     1       1.440   3.515  18.483  0.00  0.00    +0.000 A 
ENDBRANCH   7  12
BRANCH   1  19
ATOM     18  O   UNL     1       7.829   4.048  16.168  0.00  0.00    +0.000 OA
ATOM     19  C   UNL     1       7.079   4.750  15.494  0.00  0.00    +0.000 C 
BRANCH  19  20
ATOM     20  C   UNL     1       6.911   4.589  14.025  0.00  0.00    +0.000 A 
ATOM     21  N   UNL     1       5.799   3.907  13.634  0.00  0.00    +0.000 NA
ATOM     22  C   UNL     1       5.652   3.697  12.312  0.00  0.00    +0.000 A 
ATOM     23 CL   UNL     1       4.267   2.783  11.875  0.00  0.00    +0.000 Cl
ATOM     24  C   UNL     1       6.526   4.146  11.335  0.00  0.00    +0.000 A 
ATOM     25  C   UNL     1       7.636   4.872  11.748  0.00  0.00    +0.000 A 
ATOM     26  C   UNL     1       7.845   5.104  13.111  0.00  0.00    +0.000 A 
ATOM     27 CL   UNL     1       9.256   6.008  13.515  0.00  0.00    +0.000 Cl
ENDBRANCH  19  20
ENDBRANCH   1  19
TORSDOF 3
ENDMDL
MODEL 8
REMARK VINA RESULT:      -7.5      6.617      8.815
REMARK  Name = 
REMARK  3 active torsions:
REMARK  status: ('A' for Active; 'I' for Inactive)
REMARK    1  A    between atoms: C_2  and  C_3
REMARK    2  A    between atoms: C_2  and  C_19
REMARK    3  A    between atoms: N_9  and  C_10
REMARK                            x       y       z     vdW  Elec       q    Type
REMARK                         _______ _______ _______ _____ _____    ______ ____
ROOT
ATOM      1  C   UNL     1      -0.204  11.208  19.787  0.00  0.00    +0.000 C 
ATOM      2  N   UNL     1      -0.197  11.486  21.068  0.00  0.00    +0.000 NA
ATOM      3  N   UNL     1       0.302  10.325  21.674  0.00  0.00    +0.000 N 
ATOM      4  C   UNL     1       1.128   9.674  20.674  0.00  0.00    +0.000 C 
ATOM      5  C   UNL     1       1.446   8.227  20.513  0.00  0.00    +0.000 C 
ATOM      6  O   UNL     1       1.608   7.409  21.399  0.00  0.00    +0.000 OA
ATOM      7  N   UNL     1       1.672   8.152  19.121  0.00  0.00    +0.000 N 
ATOM      8  C   UNL     1       1.060   9.246  18.485  0.00  0.00    +0.000 C 
ATOM      9  O   UNL     1       1.157   9.678  17.352  0.00  0.00    +0.000 OA
ATOM     10  C   UNL     1       0.183   9.816  19.514  0.00  0.00    +0.000 C 
ATOM     11  H   UNL     1       0.814  10.536  22.535  0.00  0.00    +0.000 HD
ENDROOT
BRANCH   7  12
ATOM     12  C   UNL     1       2.583   7.253  18.499  0.00  0.00    +0.000 A 
ATOM     13  C   UNL     1       3.704   7.699  17.781  0.00  0.00    +0.000 A 
ATOM     14  C   UNL     1       4.539   6.793  17.111  0.00  0.00    +0.000 A 
ATOM     15  C   UNL     1       4.260   5.430  17.135  0.00  0.00    +0.000 A 
ATOM     16  C   UNL     1       3.159   4.967  17.841  0.00  0.00    +0.000 A 
ATOM     17  C   UNL     1       2.341   5.868  18.525  0.00  0.00    +0.000 A 
ENDBRANCH   7  12
BRANCH   1  19
ATOM     18  O   UNL     1      -0.120  13.010  18.392  0.00  0.00    +0.000 OA
ATOM     19  C   UNL     1      -0.796  12.029  18.693  0.00  0.00    +0.000 C 
BRANCH  19  20
ATOM     20  C   UNL     1      -2.090  11.696  18.039  0.00  0.00    +0.000 A 
ATOM     21  N   UNL     1      -1.993  11.132  16.804  0.00  0.00    +0.000 NA
ATOM     22  C   UNL     1      -3.150  10.873  16.165  0.00  0.00    +0.000 A 
ATOM     23 CL   UNL     1      -2.975  10.217  14.589  0.00  0.00    +0.000 Cl
ATOM     24  C   UNL     1      -4.413  11.111  16.683  0.00  0.00    +0.000 A 
ATOM     25  C   UNL     1      -4.494  11.654  17.960  0.00  0.00    +0.000 A 
ATOM     26  C   UNL     1      -3.323  11.957  18.659  0.00  0.00    +0.000 A 
ATOM     27 CL   UNL     1      -3.536  12.633  20.231  0.00  0.00    +0.000 Cl
ENDBRANCH  19  20
ENDBRANCH   1  19
TORSDOF 3
ENDMDL
MODEL 9
REMARK VINA RESULT:      -7.5      5.877      7.905
REMARK  Name = 
REMARK  3 active torsions:
REMARK  status: ('A' for Active; 'I' for Inactive)
REMARK    1  A    between atoms: C_2  and  C_3
REMARK    2  A    between atoms: C_2  and  C_19
REMARK    3  A    between atoms: N_9  and  C_10
REMARK                            x       y       z     vdW  Elec       q    Type
REMARK                         _______ _______ _______ _____ _____    ______ ____
ROOT
ATOM      1  C   UNL     1       0.738   9.835  20.107  0.00  0.00    +0.000 C 
ATOM      2  N   UNL     1       0.659   9.716  21.410  0.00  0.00    +0.000 NA
ATOM      3  N   UNL     1       1.054   8.395  21.664  0.00  0.00    +0.000 N 
ATOM      4  C   UNL     1       1.924   8.017  20.565  0.00  0.00    +0.000 C 
ATOM      5  C   UNL     1       2.184   6.667  19.993  0.00  0.00    +0.000 C 
ATOM      6  O   UNL     1       2.237   5.612  20.596  0.00  0.00    +0.000 OA
ATOM      7  N   UNL     1       2.513   6.997  18.659  0.00  0.00    +0.000 N 
ATOM      8  C   UNL     1       2.005   8.270  18.350  0.00  0.00    +0.000 C 
ATOM      9  O   UNL     1       2.210   9.013  17.409  0.00  0.00    +0.000 OA
ATOM     10  C   UNL     1       1.078   8.565  19.449  0.00  0.00    +0.000 C 
ATOM     11  H   UNL     1       1.507   8.302  22.577  0.00  0.00    +0.000 HD
ENDROOT
BRANCH   7  12
ATOM     12  C   UNL     1       3.426   6.264  17.848  0.00  0.00    +0.000 A 
ATOM     13  C   UNL     1       4.480   6.884  17.159  0.00  0.00    +0.000 A 
ATOM     14  C   UNL     1       5.314   6.149  16.305  0.00  0.00    +0.000 A 
ATOM     15  C   UNL     1       5.101   4.787  16.114  0.00  0.00    +0.000 A 
ATOM     16  C   UNL     1       4.066   4.154  16.787  0.00  0.00    +0.000 A 
ATOM     17  C   UNL     1       3.250   4.883  17.654  0.00  0.00    +0.000 A 
ENDBRANCH   7  12
BRANCH   1  19
ATOM     18  O   UNL     1       1.182  11.582  18.711  0.00  0.00    +0.000 OA
ATOM     19  C   UNL     1       0.272  10.984  19.281  0.00  0.00    +0.000 C 
BRANCH  19  20
ATOM     20  C   UNL     1      -1.158  11.375  19.169  0.00  0.00    +0.000 A 
ATOM     21  N   UNL     1      -1.591  12.279  20.089  0.00  0.00    +0.000 NA
ATOM     22  C   UNL     1      -2.897  12.608  20.047  0.00  0.00    +0.000 A 
ATOM     23 CL   UNL     1      -3.406  13.705  21.264  0.00  0.00    +0.000 Cl
ATOM     24  C   UNL     1      -3.808  12.118  19.126  0.00  0.00    +0.000 A 
ATOM     25  C   UNL     1      -3.342  11.224  18.170  0.00  0.00    +0.000 A 
ATOM     26  C   UNL     1      -1.999  10.837  18.180  0.00  0.00    +0.000 A 
ATOM     27 CL   UNL     1      -1.527   9.718  16.956  0.00  0.00    +0.000 Cl
ENDBRANCH  19  20
ENDBRANCH   1  19
TORSDOF 3
ENDMDL
