MODEL 1
REMARK VINA RESULT:      -7.9      0.000      0.000
REMARK  Name = 
REMARK  4 active torsions:
REMARK  status: ('A' for Active; 'I' for Inactive)
REMARK    1  A    between atoms: C_1  and  N_2
REMARK    2  A    between atoms: C_6  and  C_8
REMARK    3  A    between atoms: C_12  and  C_13
REMARK    4  A    between atoms: C_20  and  C_21
REMARK                            x       y       z     vdW  Elec       q    Type
REMARK                         _______ _______ _______ _____ _____    ______ ____
ROOT
ATOM      1  C   UNL     1       1.819  13.595  20.730  0.00  0.00    +0.000 A 
ATOM      2  C   UNL     1       0.523  14.136  20.560  0.00  0.00    +0.000 A 
ATOM      3  C   UNL     1      -0.239  13.122  20.032  0.00  0.00    +0.000 A 
ATOM      4  N   UNL     1      -1.540  13.091  19.629  0.00  0.00    +0.000 NA
ATOM      5  C   UNL     1      -1.980  11.967  19.139  0.00  0.00    +0.000 A 
ATOM      6  C   UNL     1      -1.142  10.737  18.952  0.00  0.00    +0.000 A 
ATOM      7  C   UNL     1       0.135  10.817  19.370  0.00  0.00    +0.000 A 
ATOM      8  N   UNL     1       0.600  12.012  19.937  0.00  0.00    +0.000 N 
ATOM      9  N   UNL     1       1.835  12.285  20.424  0.00  0.00    +0.000 NA
ENDROOT
BRANCH   1  15
ATOM     10  C   UNL     1       7.291  14.933  17.681  0.00  0.00    +0.000 C 
ATOM     11  N   UNL     1       6.136  15.315  18.487  0.00  0.00    +0.000 NA
ATOM     12  C   UNL     1       6.387  15.075  19.926  0.00  0.00    +0.000 C 
ATOM     13  C   UNL     1       5.167  15.426  20.808  0.00  0.00    +0.000 C 
ATOM     14  N   UNL     1       3.948  14.784  20.318  0.00  0.00    +0.000 N 
ATOM     15  C   UNL     1       2.998  14.326  21.236  0.00  0.00    +0.000 C 
ATOM     16  O   UNL     1       3.129  14.523  22.444  0.00  0.00    +0.000 OA
ATOM     17  C   UNL     1       3.714  14.998  18.885  0.00  0.00    +0.000 C 
ATOM     18  C   UNL     1       4.935  14.562  18.065  0.00  0.00    +0.000 C 
ENDBRANCH   1  15
BRANCH   5  19
ATOM     19  C   UNL     1      -3.404  11.882  18.713  0.00  0.00    +0.000 A 
ATOM     20  C   UNL     1      -3.685  11.446  17.411  0.00  0.00    +0.000 A 
ATOM     21  C   UNL     1      -5.001  11.414  16.949  0.00  0.00    +0.000 A 
ATOM     22  C   UNL     1      -6.041  11.820  17.783  0.00  0.00    +0.000 A 
ATOM     23  C   UNL     1      -5.768  12.253  19.082  0.00  0.00    +0.000 A 
ATOM     24  C   UNL     1      -4.452  12.286  19.548  0.00  0.00    +0.000 A 
ENDBRANCH   5  19
BRANCH   7  25
ATOM     25  C   UNL     1       1.011   9.650  19.184  0.00  0.00    +0.000 A 
ATOM     26  C   UNL     1       1.628   9.420  17.947  0.00  0.00    +0.000 A 
ATOM     27  C   UNL     1       2.415   8.282  17.752  0.00  0.00    +0.000 A 
ATOM     28  C   UNL     1       2.592   7.370  18.791  0.00  0.00    +0.000 A 
ATOM     29  C   UNL     1       1.990   7.599  20.027  0.00  0.00    +0.000 A 
ATOM     30  C   UNL     1       1.200   8.733  20.225  0.00  0.00    +0.000 A 
ENDBRANCH   7  25
TORSDOF 3
ENDMDL
MODEL 2
REMARK VINA RESULT:      -7.4      4.036      8.713
REMARK  Name = 
REMARK  4 active torsions:
REMARK  status: ('A' for Active; 'I' for Inactive)
REMARK    1  A    between atoms: C_1  and  N_2
REMARK    2  A    between atoms: C_6  and  C_8
REMARK    3  A    between atoms: C_12  and  C_13
REMARK    4  A    between atoms: C_20  and  C_21
REMARK                            x       y       z     vdW  Elec       q    Type
REMARK                         _______ _______ _______ _____ _____    ______ ____
ROOT
ATOM      1  C   UNL     1       1.630   8.840  19.056  0.00  0.00    +0.000 A 
ATOM      2  C   UNL     1       2.547   9.007  17.992  0.00  0.00    +0.000 A 
ATOM      3  C   UNL     1       3.077   7.762  17.755  0.00  0.00    +0.000 A 
ATOM      4  N   UNL     1       4.032   7.344  16.878  0.00  0.00    +0.000 NA
ATOM      5  C   UNL     1       4.344   6.078  16.905  0.00  0.00    +0.000 A 
ATOM      6  C   UNL     1       3.756   5.079  17.856  0.00  0.00    +0.000 A 
ATOM      7  C   UNL     1       2.812   5.541  18.697  0.00  0.00    +0.000 A 
ATOM      8  N   UNL     1       2.444   6.893  18.644  0.00  0.00    +0.000 N 
ATOM      9  N   UNL     1       1.517   7.541  19.389  0.00  0.00    +0.000 NA
ENDROOT
BRANCH   1  15
ATOM     10  C   UNL     1      -3.726  11.636  16.930  0.00  0.00    +0.000 C 
ATOM     11  N   UNL     1      -2.939  10.975  17.966  0.00  0.00    +0.000 NA
ATOM     12  C   UNL     1      -2.100  11.949  18.701  0.00  0.00    +0.000 C 
ATOM     13  C   UNL     1      -1.217  11.278  19.777  0.00  0.00    +0.000 C 
ATOM     14  N   UNL     1      -0.455  10.158  19.225  0.00  0.00    +0.000 N 
ATOM     15  C   UNL     1       0.840   9.914  19.690  0.00  0.00    +0.000 C 
ATOM     16  O   UNL     1       1.325  10.574  20.609  0.00  0.00    +0.000 OA
ATOM     17  C   UNL     1      -1.283   9.206  18.473  0.00  0.00    +0.000 C 
ATOM     18  C   UNL     1      -2.076   9.928  17.376  0.00  0.00    +0.000 C 
ENDBRANCH   1  15
BRANCH   5  19
ATOM     19  C   UNL     1       5.363   5.574  15.944  0.00  0.00    +0.000 A 
ATOM     20  C   UNL     1       4.932   4.785  14.869  0.00  0.00    +0.000 A 
ATOM     21  C   UNL     1       5.860   4.237  13.982  0.00  0.00    +0.000 A 
ATOM     22  C   UNL     1       7.221   4.471  14.167  0.00  0.00    +0.000 A 
ATOM     23  C   UNL     1       7.657   5.257  15.235  0.00  0.00    +0.000 A 
ATOM     24  C   UNL     1       6.731   5.807  16.125  0.00  0.00    +0.000 A 
ENDBRANCH   5  19
BRANCH   7  25
ATOM     25  C   UNL     1       2.222   4.611  19.673  0.00  0.00    +0.000 A 
ATOM     26  C   UNL     1       2.748   4.519  20.968  0.00  0.00    +0.000 A 
ATOM     27  C   UNL     1       2.224   3.597  21.878  0.00  0.00    +0.000 A 
ATOM     28  C   UNL     1       1.173   2.763  21.500  0.00  0.00    +0.000 A 
ATOM     29  C   UNL     1       0.639   2.858  20.216  0.00  0.00    +0.000 A 
ATOM     30  C   UNL     1       1.161   3.776  19.303  0.00  0.00    +0.000 A 
ENDBRANCH   7  25
TORSDOF 3
ENDMDL
MODEL 3
REMARK VINA RESULT:      -7.4      4.104      8.023
REMARK  Name = 
REMARK  4 active torsions:
REMARK  status: ('A' for Active; 'I' for Inactive)
REMARK    1  A    between atoms: C_1  and  N_2
REMARK    2  A    between atoms: C_6  and  C_8
REMARK    3  A    between atoms: C_12  and  C_13
REMARK    4  A    between atoms: C_20  and  C_21
REMARK                            x       y       z     vdW  Elec       q    Type
REMARK                         _______ _______ _______ _____ _____    ______ ____
ROOT
ATOM      1  C   UNL     1       1.705   8.655  19.254  0.00  0.00    +0.000 A 
ATOM      2  C   UNL     1       2.602   8.853  18.179  0.00  0.00    +0.000 A 
ATOM      3  C   UNL     1       3.115   7.613  17.886  0.00  0.00    +0.000 A 
ATOM      4  N   UNL     1       4.050   7.218  16.976  0.00  0.00    +0.000 NA
ATOM      5  C   UNL     1       4.349   5.950  16.951  0.00  0.00    +0.000 A 
ATOM      6  C   UNL     1       3.771   4.921  17.878  0.00  0.00    +0.000 A 
ATOM      7  C   UNL     1       2.848   5.361  18.754  0.00  0.00    +0.000 A 
ATOM      8  N   UNL     1       2.492   6.717  18.756  0.00  0.00    +0.000 N 
ATOM      9  N   UNL     1       1.586   7.346  19.543  0.00  0.00    +0.000 NA
ENDROOT
BRANCH   1  15
ATOM     10  C   UNL     1       2.669  14.987  19.155  0.00  0.00    +0.000 C 
ATOM     11  N   UNL     1       1.817  13.809  19.032  0.00  0.00    +0.000 NA
ATOM     12  C   UNL     1       1.305  13.381  20.354  0.00  0.00    +0.000 C 
ATOM     13  C   UNL     1       0.433  12.107  20.270  0.00  0.00    +0.000 C 
ATOM     14  N   UNL     1       1.113  11.039  19.538  0.00  0.00    +0.000 N 
ATOM     15  C   UNL     1       0.937   9.713  19.942  0.00  0.00    +0.000 C 
ATOM     16  O   UNL     1       0.162   9.417  20.851  0.00  0.00    +0.000 OA
ATOM     17  C   UNL     1       1.644  11.471  18.239  0.00  0.00    +0.000 C 
ATOM     18  C   UNL     1       2.557  12.692  18.406  0.00  0.00    +0.000 C 
ENDBRANCH   1  15
BRANCH   5  19
ATOM     19  C   UNL     1       5.345   5.471  15.953  0.00  0.00    +0.000 A 
ATOM     20  C   UNL     1       4.890   4.696  14.878  0.00  0.00    +0.000 A 
ATOM     21  C   UNL     1       5.797   4.173  13.955  0.00  0.00    +0.000 A 
ATOM     22  C   UNL     1       7.160   4.417  14.104  0.00  0.00    +0.000 A 
ATOM     23  C   UNL     1       7.620   5.189  15.172  0.00  0.00    +0.000 A 
ATOM     24  C   UNL     1       6.716   5.715  16.098  0.00  0.00    +0.000 A 
ENDBRANCH   5  19
BRANCH   7  25
ATOM     25  C   UNL     1       2.269   4.402  19.707  0.00  0.00    +0.000 A 
ATOM     26  C   UNL     1       2.740   4.344  21.025  0.00  0.00    +0.000 A 
ATOM     27  C   UNL     1       2.229   3.396  21.916  0.00  0.00    +0.000 A 
ATOM     28  C   UNL     1       1.247   2.502  21.495  0.00  0.00    +0.000 A 
ATOM     29  C   UNL     1       0.767   2.562  20.187  0.00  0.00    +0.000 A 
ATOM     30  C   UNL     1       1.276   3.506  19.294  0.00  0.00    +0.000 A 
ENDBRANCH   7  25
TORSDOF 3
ENDMDL
MODEL 4
REMARK VINA RESULT:      -7.2      3.506      7.567
REMARK  Name = 
REMARK  4 active torsions:
REMARK  status: ('A' for Active; 'I' for Inactive)
REMARK    1  A    between atoms: C_1  and  N_2
REMARK    2  A    between atoms: C_6  and  C_8
REMARK    3  A    between atoms: C_12  and  C_13
REMARK    4  A    between atoms: C_20  and  C_21
REMARK                            x       y       z     vdW  Elec       q    Type
REMARK                         _______ _______ _______ _____ _____    ______ ____
ROOT
ATOM      1  C   UNL     1      -0.857  12.876  21.461  0.00  0.00    +0.000 A 
ATOM      2  C   UNL     1       0.292  12.078  21.675  0.00  0.00    +0.000 A 
ATOM      3  C   UNL     1       0.325  11.182  20.635  0.00  0.00    +0.000 A 
ATOM      4  N   UNL     1       1.179  10.157  20.357  0.00  0.00    +0.000 NA
ATOM      5  C   UNL     1       0.932   9.457  19.286  0.00  0.00    +0.000 A 
ATOM      6  C   UNL     1      -0.242   9.678  18.379  0.00  0.00    +0.000 A 
ATOM      7  C   UNL     1      -1.052  10.706  18.693  0.00  0.00    +0.000 A 
ATOM      8  N   UNL     1      -0.766  11.488  19.821  0.00  0.00    +0.000 N 
ATOM      9  N   UNL     1      -1.446  12.562  20.292  0.00  0.00    +0.000 NA
ENDROOT
BRANCH   1  15
ATOM     10  C   UNL     1      -6.805  13.983  23.563  0.00  0.00    +0.000 C 
ATOM     11  N   UNL     1      -5.372  13.814  23.776  0.00  0.00    +0.000 NA
ATOM     12  C   UNL     1      -4.648  15.089  23.566  0.00  0.00    +0.000 C 
ATOM     13  C   UNL     1      -3.119  14.939  23.740  0.00  0.00    +0.000 C 
ATOM     14  N   UNL     1      -2.594  13.836  22.936  0.00  0.00    +0.000 N 
ATOM     15  C   UNL     1      -1.332  13.957  22.347  0.00  0.00    +0.000 C 
ATOM     16  O   UNL     1      -0.621  14.940  22.553  0.00  0.00    +0.000 OA
ATOM     17  C   UNL     1      -3.329  12.578  23.123  0.00  0.00    +0.000 C 
ATOM     18  C   UNL     1      -4.827  12.783  22.865  0.00  0.00    +0.000 C 
ENDBRANCH   1  15
BRANCH   5  19
ATOM     19  C   UNL     1       1.857   8.345  18.931  0.00  0.00    +0.000 A 
ATOM     20  C   UNL     1       2.010   7.291  19.841  0.00  0.00    +0.000 A 
ATOM     21  C   UNL     1       2.915   6.261  19.578  0.00  0.00    +0.000 A 
ATOM     22  C   UNL     1       3.673   6.283  18.409  0.00  0.00    +0.000 A 
ATOM     23  C   UNL     1       3.524   7.330  17.498  0.00  0.00    +0.000 A 
ATOM     24  C   UNL     1       2.619   8.362  17.757  0.00  0.00    +0.000 A 
ENDBRANCH   5  19
BRANCH   7  25
ATOM     25  C   UNL     1      -2.236  10.951  17.855  0.00  0.00    +0.000 A 
ATOM     26  C   UNL     1      -3.394  11.509  18.412  0.00  0.00    +0.000 A 
ATOM     27  C   UNL     1      -4.537  11.690  17.630  0.00  0.00    +0.000 A 
ATOM     28  C   UNL     1      -4.529  11.317  16.287  0.00  0.00    +0.000 A 
ATOM     29  C   UNL     1      -3.377  10.771  15.724  0.00  0.00    +0.000 A 
ATOM     30  C   UNL     1      -2.234  10.586  16.503  0.00  0.00    +0.000 A 
ENDBRANCH   7  25
TORSDOF 3
ENDMDL
MODEL 5
REMARK VINA RESULT:      -7.2      3.425      7.447
REMARK  Name = 
REMARK  4 active torsions:
REMARK  status: ('A' for Active; 'I' for Inactive)
REMARK    1  A    between atoms: C_1  and  N_2
REMARK    2  A    between atoms: C_6  and  C_8
REMARK    3  A    between atoms: C_12  and  C_13
REMARK    4  A    between atoms: C_20  and  C_21
REMARK                            x       y       z     vdW  Elec       q    Type
REMARK                         _______ _______ _______ _____ _____    ______ ____
ROOT
ATOM      1  C   UNL     1      -1.037  13.316  21.051  0.00  0.00    +0.000 A 
ATOM      2  C   UNL     1       0.126  12.569  21.350  0.00  0.00    +0.000 A 
ATOM      3  C   UNL     1       0.173  11.560  20.418  0.00  0.00    +0.000 A 
ATOM      4  N   UNL     1       1.045  10.526  20.256  0.00  0.00    +0.000 NA
ATOM      5  C   UNL     1       0.809   9.703  19.273  0.00  0.00    +0.000 A 
ATOM      6  C   UNL     1      -0.370   9.799  18.351  0.00  0.00    +0.000 A 
ATOM      7  C   UNL     1      -1.198  10.842  18.549  0.00  0.00    +0.000 A 
ATOM      8  N   UNL     1      -0.924  11.752  19.579  0.00  0.00    +0.000 N 
ATOM      9  N   UNL     1      -1.622  12.860  19.928  0.00  0.00    +0.000 NA
ENDROOT
BRANCH   1  15
ATOM     10  C   UNL     1      -6.789  14.191  23.729  0.00  0.00    +0.000 C 
ATOM     11  N   UNL     1      -5.330  14.200  23.772  0.00  0.00    +0.000 NA
ATOM     12  C   UNL     1      -4.790  15.483  23.267  0.00  0.00    +0.000 C 
ATOM     13  C   UNL     1      -3.245  15.514  23.255  0.00  0.00    +0.000 C 
ATOM     14  N   UNL     1      -2.691  14.344  22.574  0.00  0.00    +0.000 N 
ATOM     15  C   UNL     1      -1.530  14.484  21.809  0.00  0.00    +0.000 C 
ATOM     16  O   UNL     1      -0.920  15.551  21.759  0.00  0.00    +0.000 OA
ATOM     17  C   UNL     1      -3.246  13.073  23.056  0.00  0.00    +0.000 C 
ATOM     18  C   UNL     1      -4.778  13.085  22.972  0.00  0.00    +0.000 C 
ENDBRANCH   1  15
BRANCH   5  19
ATOM     19  C   UNL     1       1.753   8.575  19.044  0.00  0.00    +0.000 A 
ATOM     20  C   UNL     1       2.429   8.512  17.818  0.00  0.00    +0.000 A 
ATOM     21  C   UNL     1       3.273   7.437  17.535  0.00  0.00    +0.000 A 
ATOM     22  C   UNL     1       3.442   6.420  18.472  0.00  0.00    +0.000 A 
ATOM     23  C   UNL     1       2.772   6.477  19.695  0.00  0.00    +0.000 A 
ATOM     24  C   UNL     1       1.927   7.552  19.983  0.00  0.00    +0.000 A 
ENDBRANCH   5  19
BRANCH   7  25
ATOM     25  C   UNL     1      -2.388  10.968  17.693  0.00  0.00    +0.000 A 
ATOM     26  C   UNL     1      -2.319  10.635  16.334  0.00  0.00    +0.000 A 
ATOM     27  C   UNL     1      -3.432  10.807  15.508  0.00  0.00    +0.000 A 
ATOM     28  C   UNL     1      -4.620  11.311  16.034  0.00  0.00    +0.000 A 
ATOM     29  C   UNL     1      -4.698  11.634  17.388  0.00  0.00    +0.000 A 
ATOM     30  C   UNL     1      -3.587  11.466  18.216  0.00  0.00    +0.000 A 
ENDBRANCH   7  25
TORSDOF 3
ENDMDL
MODEL 6
REMARK VINA RESULT:      -7.1      2.696      6.545
REMARK  Name = 
REMARK  4 active torsions:
REMARK  status: ('A' for Active; 'I' for Inactive)
REMARK    1  A    between atoms: C_1  and  N_2
REMARK    2  A    between atoms: C_6  and  C_8
REMARK    3  A    between atoms: C_12  and  C_13
REMARK    4  A    between atoms: C_20  and  C_21
REMARK                            x       y       z     vdW  Elec       q    Type
REMARK                         _______ _______ _______ _____ _____    ______ ____
ROOT
ATOM      1  C   UNL     1       0.536  14.531  18.920  0.00  0.00    +0.000 A 
ATOM      2  C   UNL     1       1.638  13.673  19.144  0.00  0.00    +0.000 A 
ATOM      3  C   UNL     1       1.173  12.400  18.921  0.00  0.00    +0.000 A 
ATOM      4  N   UNL     1       1.784  11.187  19.032  0.00  0.00    +0.000 NA
ATOM      5  C   UNL     1       1.060  10.136  18.770  0.00  0.00    +0.000 A 
ATOM      6  C   UNL     1      -0.394  10.176  18.402  0.00  0.00    +0.000 A 
ATOM      7  C   UNL     1      -0.949  11.398  18.300  0.00  0.00    +0.000 A 
ATOM      8  N   UNL     1      -0.162  12.534  18.541  0.00  0.00    +0.000 N 
ATOM      9  N   UNL     1      -0.528  13.837  18.478  0.00  0.00    +0.000 NA
ENDROOT
BRANCH   1  15
ATOM     10  C   UNL     1      -3.062  18.138  22.802  0.00  0.00    +0.000 C 
ATOM     11  N   UNL     1      -1.779  17.734  22.238  0.00  0.00    +0.000 NA
ATOM     12  C   UNL     1      -1.505  18.447  20.969  0.00  0.00    +0.000 C 
ATOM     13  C   UNL     1      -0.174  18.011  20.318  0.00  0.00    +0.000 C 
ATOM     14  N   UNL     1      -0.087  16.557  20.195  0.00  0.00    +0.000 N 
ATOM     15  C   UNL     1       0.541  16.000  19.077  0.00  0.00    +0.000 C 
ATOM     16  O   UNL     1       1.093  16.707  18.234  0.00  0.00    +0.000 OA
ATOM     17  C   UNL     1      -0.385  15.848  21.446  0.00  0.00    +0.000 C 
ATOM     18  C   UNL     1      -1.751  16.274  21.998  0.00  0.00    +0.000 C 
ENDBRANCH   1  15
BRANCH   5  19
ATOM     19  C   UNL     1       1.696   8.792  18.852  0.00  0.00    +0.000 A 
ATOM     20  C   UNL     1       1.569   8.067  20.045  0.00  0.00    +0.000 A 
ATOM     21  C   UNL     1       2.204   6.833  20.188  0.00  0.00    +0.000 A 
ATOM     22  C   UNL     1       2.971   6.319  19.144  0.00  0.00    +0.000 A 
ATOM     23  C   UNL     1       3.100   7.036  17.953  0.00  0.00    +0.000 A 
ATOM     24  C   UNL     1       2.465   8.272  17.805  0.00  0.00    +0.000 A 
ENDBRANCH   5  19
BRANCH   7  25
ATOM     25  C   UNL     1      -2.379  11.496  17.971  0.00  0.00    +0.000 A 
ATOM     26  C   UNL     1      -3.309  11.848  18.959  0.00  0.00    +0.000 A 
ATOM     27  C   UNL     1      -4.673  11.887  18.661  0.00  0.00    +0.000 A 
ATOM     28  C   UNL     1      -5.116  11.577  17.376  0.00  0.00    +0.000 A 
ATOM     29  C   UNL     1      -4.195  11.238  16.387  0.00  0.00    +0.000 A 
ATOM     30  C   UNL     1      -2.831  11.195  16.681  0.00  0.00    +0.000 A 
ENDBRANCH   7  25
TORSDOF 3
ENDMDL
MODEL 7
REMARK VINA RESULT:      -7.0      1.440      2.497
REMARK  Name = 
REMARK  4 active torsions:
REMARK  status: ('A' for Active; 'I' for Inactive)
REMARK    1  A    between atoms: C_1  and  N_2
REMARK    2  A    between atoms: C_6  and  C_8
REMARK    3  A    between atoms: C_12  and  C_13
REMARK    4  A    between atoms: C_20  and  C_21
REMARK                            x       y       z     vdW  Elec       q    Type
REMARK                         _______ _______ _______ _____ _____    ______ ____
ROOT
ATOM      1  C   UNL     1       2.282  13.668  18.978  0.00  0.00    +0.000 A 
ATOM      2  C   UNL     1       0.995  14.255  18.954  0.00  0.00    +0.000 A 
ATOM      3  C   UNL     1       0.105  13.209  18.964  0.00  0.00    +0.000 A 
ATOM      4  N   UNL     1      -1.256  13.186  18.907  0.00  0.00    +0.000 NA
ATOM      5  C   UNL     1      -1.827  12.014  18.912  0.00  0.00    +0.000 A 
ATOM      6  C   UNL     1      -1.087  10.709  18.933  0.00  0.00    +0.000 A 
ATOM      7  C   UNL     1       0.256  10.787  18.995  0.00  0.00    +0.000 A 
ATOM      8  N   UNL     1       0.871  12.045  19.031  0.00  0.00    +0.000 N 
ATOM      9  N   UNL     1       2.194  12.331  19.106  0.00  0.00    +0.000 NA
ENDROOT
BRANCH   1  15
ATOM     10  C   UNL     1       5.011  17.185  23.584  0.00  0.00    +0.000 C 
ATOM     11  N   UNL     1       5.046  16.142  22.564  0.00  0.00    +0.000 NA
ATOM     12  C   UNL     1       5.343  16.711  21.230  0.00  0.00    +0.000 C 
ATOM     13  C   UNL     1       5.345  15.641  20.115  0.00  0.00    +0.000 C 
ATOM     14  N   UNL     1       4.125  14.835  20.143  0.00  0.00    +0.000 N 
ATOM     15  C   UNL     1       3.564  14.399  18.939  0.00  0.00    +0.000 C 
ATOM     16  O   UNL     1       4.118  14.611  17.860  0.00  0.00    +0.000 OA
ATOM     17  C   UNL     1       3.816  14.293  21.472  0.00  0.00    +0.000 C 
ATOM     18  C   UNL     1       3.758  15.417  22.515  0.00  0.00    +0.000 C 
ENDBRANCH   1  15
BRANCH   5  19
ATOM     19  C   UNL     1      -3.314  11.944  18.879  0.00  0.00    +0.000 A 
ATOM     20  C   UNL     1      -4.031  12.534  19.929  0.00  0.00    +0.000 A 
ATOM     21  C   UNL     1      -5.422  12.435  19.972  0.00  0.00    +0.000 A 
ATOM     22  C   UNL     1      -6.102  11.745  18.971  0.00  0.00    +0.000 A 
ATOM     23  C   UNL     1      -5.394  11.157  17.922  0.00  0.00    +0.000 A 
ATOM     24  C   UNL     1      -4.001  11.254  17.874  0.00  0.00    +0.000 A 
ENDBRANCH   5  19
BRANCH   7  25
ATOM     25  C   UNL     1       1.033   9.538  18.987  0.00  0.00    +0.000 A 
ATOM     26  C   UNL     1       1.160   8.777  20.156  0.00  0.00    +0.000 A 
ATOM     27  C   UNL     1       1.944   7.620  20.164  0.00  0.00    +0.000 A 
ATOM     28  C   UNL     1       2.603   7.217  19.004  0.00  0.00    +0.000 A 
ATOM     29  C   UNL     1       2.472   7.964  17.835  0.00  0.00    +0.000 A 
ATOM     30  C   UNL     1       1.692   9.122  17.824  0.00  0.00    +0.000 A 
ENDBRANCH   7  25
TORSDOF 3
ENDMDL
MODEL 8
REMARK VINA RESULT:      -7.0      3.074      7.128
REMARK  Name = 
REMARK  4 active torsions:
REMARK  status: ('A' for Active; 'I' for Inactive)
REMARK    1  A    between atoms: C_1  and  N_2
REMARK    2  A    between atoms: C_6  and  C_8
REMARK    3  A    between atoms: C_12  and  C_13
REMARK    4  A    between atoms: C_20  and  C_21
REMARK                            x       y       z     vdW  Elec       q    Type
REMARK                         _______ _______ _______ _____ _____    ______ ____
ROOT
ATOM      1  C   UNL     1      -0.516  13.997  20.830  0.00  0.00    +0.000 A 
ATOM      2  C   UNL     1       0.613  13.184  21.086  0.00  0.00    +0.000 A 
ATOM      3  C   UNL     1       0.451  12.062  20.309  0.00  0.00    +0.000 A 
ATOM      4  N   UNL     1       1.206  10.934  20.189  0.00  0.00    +0.000 NA
ATOM      5  C   UNL     1       0.772  10.018  19.371  0.00  0.00    +0.000 A 
ATOM      6  C   UNL     1      -0.511  10.107  18.598  0.00  0.00    +0.000 A 
ATOM      7  C   UNL     1      -1.217  11.244  18.747  0.00  0.00    +0.000 A 
ATOM      8  N   UNL     1      -0.733  12.250  19.595  0.00  0.00    +0.000 N 
ATOM      9  N   UNL     1      -1.284  13.458  19.866  0.00  0.00    +0.000 NA
ENDROOT
BRANCH   1  15
ATOM     10  C   UNL     1      -5.811  15.821  23.939  0.00  0.00    +0.000 C 
ATOM     11  N   UNL     1      -4.363  15.676  23.831  0.00  0.00    +0.000 NA
ATOM     12  C   UNL     1      -3.766  16.819  23.104  0.00  0.00    +0.000 C 
ATOM     13  C   UNL     1      -2.237  16.679  22.930  0.00  0.00    +0.000 C 
ATOM     14  N   UNL     1      -1.878  15.381  22.361  0.00  0.00    +0.000 N 
ATOM     15  C   UNL     1      -0.805  15.296  21.469  0.00  0.00    +0.000 C 
ATOM     16  O   UNL     1      -0.107  16.276  21.213  0.00  0.00    +0.000 OA
ATOM     17  C   UNL     1      -2.492  14.248  23.065  0.00  0.00    +0.000 C 
ATOM     18  C   UNL     1      -4.015  14.416  23.137  0.00  0.00    +0.000 C 
ENDBRANCH   1  15
BRANCH   5  19
ATOM     19  C   UNL     1       1.582   8.781  19.189  0.00  0.00    +0.000 A 
ATOM     20  C   UNL     1       2.141   8.532  17.928  0.00  0.00    +0.000 A 
ATOM     21  C   UNL     1       2.852   7.354  17.696  0.00  0.00    +0.000 A 
ATOM     22  C   UNL     1       3.004   6.419  18.718  0.00  0.00    +0.000 A 
ATOM     23  C   UNL     1       2.450   6.663  19.976  0.00  0.00    +0.000 A 
ATOM     24  C   UNL     1       1.738   7.841  20.214  0.00  0.00    +0.000 A 
ENDBRANCH   5  19
BRANCH   7  25
ATOM     25  C   UNL     1      -2.499  11.374  18.037  0.00  0.00    +0.000 A 
ATOM     26  C   UNL     1      -3.652  11.772  18.726  0.00  0.00    +0.000 A 
ATOM     27  C   UNL     1      -4.880  11.842  18.064  0.00  0.00    +0.000 A 
ATOM     28  C   UNL     1      -4.964  11.517  16.712  0.00  0.00    +0.000 A 
ATOM     29  C   UNL     1      -3.818  11.131  16.018  0.00  0.00    +0.000 A 
ATOM     30  C   UNL     1      -2.589  11.057  16.676  0.00  0.00    +0.000 A 
ENDBRANCH   7  25
TORSDOF 3
ENDMDL
MODEL 9
REMARK VINA RESULT:      -7.0      1.553      2.254
REMARK  Name = 
REMARK  4 active torsions:
REMARK  status: ('A' for Active; 'I' for Inactive)
REMARK    1  A    between atoms: C_1  and  N_2
REMARK    2  A    between atoms: C_6  and  C_8
REMARK    3  A    between atoms: C_12  and  C_13
REMARK    4  A    between atoms: C_20  and  C_21
REMARK                            x       y       z     vdW  Elec       q    Type
REMARK                         _______ _______ _______ _____ _____    ______ ____
ROOT
ATOM      1  C   UNL     1       2.395  13.631  18.843  0.00  0.00    +0.000 A 
ATOM      2  C   UNL     1       1.106  14.190  18.678  0.00  0.00    +0.000 A 
ATOM      3  C   UNL     1       0.238  13.126  18.643  0.00  0.00    +0.000 A 
ATOM      4  N   UNL     1      -1.111  13.071  18.461  0.00  0.00    +0.000 NA
ATOM      5  C   UNL     1      -1.658  11.889  18.455  0.00  0.00    +0.000 A 
ATOM      6  C   UNL     1      -0.901  10.601  18.591  0.00  0.00    +0.000 A 
ATOM      7  C   UNL     1       0.429  10.709  18.775  0.00  0.00    +0.000 A 
ATOM      8  N   UNL     1       1.016  11.982  18.823  0.00  0.00    +0.000 N 
ATOM      9  N   UNL     1       2.320  12.298  19.010  0.00  0.00    +0.000 NA
ENDROOT
BRANCH   1  15
ATOM     10  C   UNL     1       4.083  18.302  22.888  0.00  0.00    +0.000 C 
ATOM     11  N   UNL     1       4.332  17.041  22.197  0.00  0.00    +0.000 NA
ATOM     12  C   UNL     1       4.919  17.274  20.857  0.00  0.00    +0.000 C 
ATOM     13  C   UNL     1       5.154  15.963  20.075  0.00  0.00    +0.000 C 
ATOM     14  N   UNL     1       3.950  15.133  20.043  0.00  0.00    +0.000 N 
ATOM     15  C   UNL     1       3.662  14.387  18.896  0.00  0.00    +0.000 C 
ATOM     16  O   UNL     1       4.440  14.352  17.944  0.00  0.00    +0.000 OA
ATOM     17  C   UNL     1       3.352  14.924  21.368  0.00  0.00    +0.000 C 
ATOM     18  C   UNL     1       3.079  16.267  22.056  0.00  0.00    +0.000 C 
ENDBRANCH   1  15
BRANCH   5  19
ATOM     19  C   UNL     1      -3.135  11.786  18.287  0.00  0.00    +0.000 A 
ATOM     20  C   UNL     1      -3.635  11.375  17.044  0.00  0.00    +0.000 A 
ATOM     21  C   UNL     1      -5.013  11.328  16.823  0.00  0.00    +0.000 A 
ATOM     22  C   UNL     1      -5.894  11.694  17.838  0.00  0.00    +0.000 A 
ATOM     23  C   UNL     1      -5.401  12.103  19.078  0.00  0.00    +0.000 A 
ATOM     24  C   UNL     1      -4.023  12.151  19.305  0.00  0.00    +0.000 A 
ENDBRANCH   5  19
BRANCH   7  25
ATOM     25  C   UNL     1       1.226   9.478  18.883  0.00  0.00    +0.000 A 
ATOM     26  C   UNL     1       1.921   8.986  17.771  0.00  0.00    +0.000 A 
ATOM     27  C   UNL     1       2.634   7.787  17.858  0.00  0.00    +0.000 A 
ATOM     28  C   UNL     1       2.657   7.075  19.055  0.00  0.00    +0.000 A 
ATOM     29  C   UNL     1       1.977   7.566  20.169  0.00  0.00    +0.000 A 
ATOM     30  C   UNL     1       1.262   8.762  20.085  0.00  0.00    +0.000 A 
ENDBRANCH   7  25
TORSDOF 3
ENDMDL
