MODEL 1
REMARK VINA RESULT:     -10.0      0.000      0.000
REMARK  Name = 
REMARK  6 active torsions:
REMARK  status: ('A' for Active; 'I' for Inactive)
REMARK    1  A    between atoms: C_5  and  C_6
REMARK    2  A    between atoms: N_11  and  C_12
REMARK    3  A    between atoms: N_21  and  C_22
REMARK    4  A    between atoms: C_22  and  C_23
REMARK    5  A    between atoms: C_22  and  C_25
REMARK    6  A    between atoms: C_23  and  O_24
REMARK                            x       y       z     vdW  Elec       q    Type
REMARK                         _______ _______ _______ _____ _____    ______ ____
ROOT
ATOM      1  O   UNL     1       0.810   8.059  21.199  0.00  0.00    +0.000 OA
ATOM      2  C   UNL     1       1.371   8.274  20.129  0.00  0.00    +0.000 A 
ATOM      3  C   UNL     1       2.287   7.247  19.540  0.00  0.00    +0.000 A 
ATOM      4  F   UNL     1       2.495   6.165  20.321  0.00  0.00    +0.000 F 
ATOM      5  C   UNL     1       2.855   7.393  18.332  0.00  0.00    +0.000 A 
ATOM      6  C   UNL     1       2.586   8.633  17.616  0.00  0.00    +0.000 A 
ATOM      7  C   UNL     1       1.813   9.587  18.139  0.00  0.00    +0.000 A 
ATOM      8  N   UNL     1       1.208   9.444  19.381  0.00  0.00    +0.000 N 
ENDROOT
BRANCH   5   9
ATOM      9  C   UNL     1       3.753   6.352  17.775  0.00  0.00    +0.000 A 
ATOM     10  C   UNL     1       4.637   6.598  16.744  0.00  0.00    +0.000 A 
ATOM     11  C   UNL     1       5.437   5.546  16.378  0.00  0.00    +0.000 A 
ATOM     12  N   UNL     1       5.401   4.342  16.976  0.00  0.00    +0.000 NA
ATOM     13  C   UNL     1       4.526   4.187  17.976  0.00  0.00    +0.000 A 
ATOM     14  N   UNL     1       4.546   2.962  18.610  0.00  0.00    +0.000 N 
ATOM     15  N   UNL     1       3.697   5.152  18.394  0.00  0.00    +0.000 NA
ATOM     16  H   UNL     1       5.100   2.326  18.046  0.00  0.00    +0.000 HD
BRANCH  14  17
ATOM     17  C   UNL     1       3.292   2.443  19.141  0.00  0.00    +0.000 C 
ATOM     18  C   UNL     1       2.166   2.802  18.165  0.00  0.00    +0.000 C 
ATOM     19  C   UNL     1       0.814   2.421  18.745  0.00  0.00    +0.000 C 
ATOM     20  O   UNL     1       0.621   3.035  20.018  0.00  0.00    +0.000 OA
ATOM     21  C   UNL     1       1.592   2.608  20.972  0.00  0.00    +0.000 C 
ATOM     22  C   UNL     1       2.992   3.014  20.532  0.00  0.00    +0.000 C 
ENDBRANCH  14  17
ENDBRANCH   5   9
BRANCH   8  23
ATOM     23  C   UNL     1       0.347  10.520  19.935  0.00  0.00    +0.000 C 
BRANCH  23  24
ATOM     24  C   UNL     1      -0.856  10.768  19.027  0.00  0.00    +0.000 A 
ATOM     25  C   UNL     1      -1.847  11.687  19.423  0.00  0.00    +0.000 A 
ATOM     26  C   UNL     1      -3.029  11.834  18.687  0.00  0.00    +0.000 A 
ATOM     27  C   UNL     1      -3.239  11.057  17.550  0.00  0.00    +0.000 A 
ATOM     28 CL   UNL     1      -4.733  11.171  16.704  0.00  0.00    +0.000 Cl
ATOM     29  C   UNL     1      -2.249  10.177  17.126  0.00  0.00    +0.000 A 
ATOM     30  F   UNL     1      -2.424   9.418  16.034  0.00  0.00    +0.000 F 
ATOM     31  C   UNL     1      -1.063  10.038  17.846  0.00  0.00    +0.000 A 
ENDBRANCH  23  24
BRANCH  23  32
ATOM     32  C   UNL     1       1.140  11.796  20.309  0.00  0.00    +0.000 C 
BRANCH  32  33
ATOM     33  O   UNL     1       0.943  12.177  21.672  0.00  0.00    +0.000 OA
ATOM     34  H   UNL     1       0.127  11.751  21.990  0.00  0.00    +0.000 HD
ENDBRANCH  32  33
ENDBRANCH  23  32
ENDBRANCH   8  23
TORSDOF 6
ENDMDL
MODEL 2
REMARK VINA RESULT:      -9.9      2.197      3.502
REMARK  Name = 
REMARK  6 active torsions:
REMARK  status: ('A' for Active; 'I' for Inactive)
REMARK    1  A    between atoms: C_5  and  C_6
REMARK    2  A    between atoms: N_11  and  C_12
REMARK    3  A    between atoms: N_21  and  C_22
REMARK    4  A    between atoms: C_22  and  C_23
REMARK    5  A    between atoms: C_22  and  C_25
REMARK    6  A    between atoms: C_23  and  O_24
REMARK                            x       y       z     vdW  Elec       q    Type
REMARK                         _______ _______ _______ _____ _____    ______ ____
ROOT
ATOM      1  O   UNL     1       1.992   9.891  17.634  0.00  0.00    +0.000 OA
ATOM      2  C   UNL     1       1.727   9.238  18.639  0.00  0.00    +0.000 A 
ATOM      3  C   UNL     1       2.146   7.803  18.735  0.00  0.00    +0.000 A 
ATOM      4  F   UNL     1       2.721   7.309  17.617  0.00  0.00    +0.000 F 
ATOM      5  C   UNL     1       1.960   7.069  19.844  0.00  0.00    +0.000 A 
ATOM      6  C   UNL     1       1.281   7.712  20.961  0.00  0.00    +0.000 A 
ATOM      7  C   UNL     1       0.854   8.974  20.886  0.00  0.00    +0.000 A 
ATOM      8  N   UNL     1       1.050   9.749  19.749  0.00  0.00    +0.000 N 
ENDROOT
BRANCH   5   9
ATOM      9  C   UNL     1       2.393   5.651  19.907  0.00  0.00    +0.000 A 
ATOM     10  C   UNL     1       2.009   4.795  20.919  0.00  0.00    +0.000 A 
ATOM     11  C   UNL     1       2.448   3.501  20.806  0.00  0.00    +0.000 A 
ATOM     12  N   UNL     1       3.192   3.056  19.779  0.00  0.00    +0.000 NA
ATOM     13  C   UNL     1       3.513   3.945  18.832  0.00  0.00    +0.000 A 
ATOM     14  N   UNL     1       4.230   3.452  17.761  0.00  0.00    +0.000 N 
ATOM     15  N   UNL     1       3.140   5.231  18.863  0.00  0.00    +0.000 NA
ATOM     16  H   UNL     1       4.559   2.524  18.004  0.00  0.00    +0.000 HD
BRANCH  14  17
ATOM     17  C   UNL     1       5.188   4.337  17.111  0.00  0.00    +0.000 C 
ATOM     18  C   UNL     1       5.608   3.705  15.780  0.00  0.00    +0.000 C 
ATOM     19  C   UNL     1       6.723   4.510  15.134  0.00  0.00    +0.000 C 
ATOM     20  O   UNL     1       7.829   4.644  16.024  0.00  0.00    +0.000 OA
ATOM     21  C   UNL     1       7.477   5.346  17.215  0.00  0.00    +0.000 C 
ATOM     22  C   UNL     1       6.416   4.582  17.995  0.00  0.00    +0.000 C 
ENDBRANCH  14  17
ENDBRANCH   5   9
BRANCH   8  23
ATOM     23  C   UNL     1       0.570  11.153  19.697  0.00  0.00    +0.000 C 
BRANCH  23  24
ATOM     24  C   UNL     1      -0.830  11.222  19.090  0.00  0.00    +0.000 A 
ATOM     25  C   UNL     1      -1.761  12.151  19.596  0.00  0.00    +0.000 A 
ATOM     26  C   UNL     1      -3.092  12.145  19.162  0.00  0.00    +0.000 A 
ATOM     27  C   UNL     1      -3.512  11.204  18.224  0.00  0.00    +0.000 A 
ATOM     28 CL   UNL     1      -5.169  11.138  17.768  0.00  0.00    +0.000 Cl
ATOM     29  C   UNL     1      -2.592  10.310  17.688  0.00  0.00    +0.000 A 
ATOM     30  F   UNL     1      -2.969   9.395  16.782  0.00  0.00    +0.000 F 
ATOM     31  C   UNL     1      -1.261  10.322  18.103  0.00  0.00    +0.000 A 
ENDBRANCH  23  24
BRANCH  23  32
ATOM     32  C   UNL     1       1.595  12.118  19.050  0.00  0.00    +0.000 C 
BRANCH  32  33
ATOM     33  O   UNL     1       1.126  12.659  17.814  0.00  0.00    +0.000 OA
ATOM     34  H   UNL     1       0.572  13.435  18.014  0.00  0.00    +0.000 HD
ENDBRANCH  32  33
ENDBRANCH  23  32
ENDBRANCH   8  23
TORSDOF 6
ENDMDL
MODEL 3
REMARK VINA RESULT:      -9.9      0.838      1.194
REMARK  Name = 
REMARK  6 active torsions:
REMARK  status: ('A' for Active; 'I' for Inactive)
REMARK    1  A    between atoms: C_5  and  C_6
REMARK    2  A    between atoms: N_11  and  C_12
REMARK    3  A    between atoms: N_21  and  C_22
REMARK    4  A    between atoms: C_22  and  C_23
REMARK    5  A    between atoms: C_22  and  C_25
REMARK    6  A    between atoms: C_23  and  O_24
REMARK                            x       y       z     vdW  Elec       q    Type
REMARK                         _______ _______ _______ _____ _____    ______ ____
ROOT
ATOM      1  O   UNL     1       0.887   8.148  21.188  0.00  0.00    +0.000 OA
ATOM      2  C   UNL     1       1.428   8.319  20.099  0.00  0.00    +0.000 A 
ATOM      3  C   UNL     1       2.334   7.267  19.538  0.00  0.00    +0.000 A 
ATOM      4  F   UNL     1       2.557   6.219  20.360  0.00  0.00    +0.000 F 
ATOM      5  C   UNL     1       2.880   7.363  18.314  0.00  0.00    +0.000 A 
ATOM      6  C   UNL     1       2.597   8.572  17.552  0.00  0.00    +0.000 A 
ATOM      7  C   UNL     1       1.832   9.547  18.048  0.00  0.00    +0.000 A 
ATOM      8  N   UNL     1       1.250   9.456  19.306  0.00  0.00    +0.000 N 
ENDROOT
BRANCH   5   9
ATOM      9  C   UNL     1       3.769   6.299  17.786  0.00  0.00    +0.000 A 
ATOM     10  C   UNL     1       4.667   6.514  16.761  0.00  0.00    +0.000 A 
ATOM     11  C   UNL     1       5.456   5.445  16.422  0.00  0.00    +0.000 A 
ATOM     12  N   UNL     1       5.395   4.252  17.040  0.00  0.00    +0.000 NA
ATOM     13  C   UNL     1       4.507   4.127  18.033  0.00  0.00    +0.000 A 
ATOM     14  N   UNL     1       4.502   2.913  18.688  0.00  0.00    +0.000 N 
ATOM     15  N   UNL     1       3.688   5.111  18.424  0.00  0.00    +0.000 NA
ATOM     16  H   UNL     1       5.053   2.259  18.141  0.00  0.00    +0.000 HD
BRANCH  14  17
ATOM     17  C   UNL     1       3.235   2.422  19.213  0.00  0.00    +0.000 C 
ATOM     18  C   UNL     1       2.115   2.853  18.260  0.00  0.00    +0.000 C 
ATOM     19  C   UNL     1       0.755   2.501  18.839  0.00  0.00    +0.000 C 
ATOM     20  O   UNL     1       0.594   3.079  20.133  0.00  0.00    +0.000 OA
ATOM     21  C   UNL     1       1.557   2.586  21.064  0.00  0.00    +0.000 C 
ATOM     22  C   UNL     1       2.966   2.956  20.624  0.00  0.00    +0.000 C 
ENDBRANCH  14  17
ENDBRANCH   5   9
BRANCH   8  23
ATOM     23  C   UNL     1       0.398  10.554  19.829  0.00  0.00    +0.000 C 
BRANCH  23  24
ATOM     24  C   UNL     1      -0.917  10.632  19.055  0.00  0.00    +0.000 A 
ATOM     25  C   UNL     1      -1.052   9.927  17.844  0.00  0.00    +0.000 A 
ATOM     26  C   UNL     1      -2.186  10.088  17.040  0.00  0.00    +0.000 A 
ATOM     27  C   UNL     1      -3.196  10.964  17.432  0.00  0.00    +0.000 A 
ATOM     28 CL   UNL     1      -4.542  11.232  16.395  0.00  0.00    +0.000 Cl
ATOM     29  C   UNL     1      -3.092  11.634  18.646  0.00  0.00    +0.000 A 
ATOM     30  F   UNL     1      -4.050  12.481  19.050  0.00  0.00    +0.000 F 
ATOM     31  C   UNL     1      -1.972  11.464  19.460  0.00  0.00    +0.000 A 
ENDBRANCH  23  24
BRANCH  23  32
ATOM     32  C   UNL     1       1.153  11.901  19.945  0.00  0.00    +0.000 C 
BRANCH  32  33
ATOM     33  O   UNL     1       1.640  12.138  21.268  0.00  0.00    +0.000 OA
ATOM     34  H   UNL     1       1.386  11.380  21.824  0.00  0.00    +0.000 HD
ENDBRANCH  32  33
ENDBRANCH  23  32
ENDBRANCH   8  23
TORSDOF 6
ENDMDL
MODEL 4
REMARK VINA RESULT:      -9.7      2.019      3.368
REMARK  Name = 
REMARK  6 active torsions:
REMARK  status: ('A' for Active; 'I' for Inactive)
REMARK    1  A    between atoms: C_5  and  C_6
REMARK    2  A    between atoms: N_11  and  C_12
REMARK    3  A    between atoms: N_21  and  C_22
REMARK    4  A    between atoms: C_22  and  C_23
REMARK    5  A    between atoms: C_22  and  C_25
REMARK    6  A    between atoms: C_23  and  O_24
REMARK                            x       y       z     vdW  Elec       q    Type
REMARK                         _______ _______ _______ _____ _____    ______ ____
ROOT
ATOM      1  O   UNL     1       0.353   9.379  21.460  0.00  0.00    +0.000 OA
ATOM      2  C   UNL     1       0.981   8.981  20.482  0.00  0.00    +0.000 A 
ATOM      3  C   UNL     1       1.544   7.593  20.465  0.00  0.00    +0.000 A 
ATOM      4  F   UNL     1       1.383   6.907  21.617  0.00  0.00    +0.000 F 
ATOM      5  C   UNL     1       2.161   7.078  19.389  0.00  0.00    +0.000 A 
ATOM      6  C   UNL     1       2.312   7.946  18.229  0.00  0.00    +0.000 A 
ATOM      7  C   UNL     1       1.863   9.203  18.235  0.00  0.00    +0.000 A 
ATOM      8  N   UNL     1       1.212   9.746  19.335  0.00  0.00    +0.000 N 
ENDROOT
BRANCH   5   9
ATOM      9  C   UNL     1       2.702   5.696  19.404  0.00  0.00    +0.000 A 
ATOM     10  C   UNL     1       2.510   4.828  20.459  0.00  0.00    +0.000 A 
ATOM     11  C   UNL     1       3.027   3.568  20.297  0.00  0.00    +0.000 A 
ATOM     12  N   UNL     1       3.670   3.165  19.188  0.00  0.00    +0.000 NA
ATOM     13  C   UNL     1       3.804   4.062  18.205  0.00  0.00    +0.000 A 
ATOM     14  N   UNL     1       4.418   3.609  17.055  0.00  0.00    +0.000 N 
ATOM     15  N   UNL     1       3.344   5.318  18.277  0.00  0.00    +0.000 NA
ATOM     16  H   UNL     1       4.843   2.711  17.260  0.00  0.00    +0.000 HD
BRANCH  14  17
ATOM     17  C   UNL     1       5.221   4.554  16.288  0.00  0.00    +0.000 C 
ATOM     18  C   UNL     1       5.691   3.861  15.005  0.00  0.00    +0.000 C 
ATOM     19  C   UNL     1       6.659   4.749  14.242  0.00  0.00    +0.000 C 
ATOM     20  O   UNL     1       7.759   5.122  15.070  0.00  0.00    +0.000 OA
ATOM     21  C   UNL     1       7.343   5.879  16.205  0.00  0.00    +0.000 C 
ATOM     22  C   UNL     1       6.425   5.053  17.094  0.00  0.00    +0.000 C 
ENDBRANCH  14  17
ENDBRANCH   5   9
BRANCH   8  23
ATOM     23  C   UNL     1       0.717  11.145  19.310  0.00  0.00    +0.000 C 
BRANCH  23  24
ATOM     24  C   UNL     1      -0.724  11.199  18.805  0.00  0.00    +0.000 A 
ATOM     25  C   UNL     1      -1.638  12.086  19.405  0.00  0.00    +0.000 A 
ATOM     26  C   UNL     1      -2.995  12.061  19.065  0.00  0.00    +0.000 A 
ATOM     27  C   UNL     1      -3.459  11.141  18.126  0.00  0.00    +0.000 A 
ATOM     28 CL   UNL     1      -5.141  11.049  17.783  0.00  0.00    +0.000 Cl
ATOM     29  C   UNL     1      -2.558  10.289  17.496  0.00  0.00    +0.000 A 
ATOM     30  F   UNL     1      -2.975   9.396  16.587  0.00  0.00    +0.000 F 
ATOM     31  C   UNL     1      -1.201  10.321  17.819  0.00  0.00    +0.000 A 
ENDBRANCH  23  24
BRANCH  23  32
ATOM     32  C   UNL     1       1.685  12.115  18.588  0.00  0.00    +0.000 C 
BRANCH  32  33
ATOM     33  O   UNL     1       2.311  13.029  19.491  0.00  0.00    +0.000 OA
ATOM     34  H   UNL     1       2.509  12.550  20.316  0.00  0.00    +0.000 HD
ENDBRANCH  32  33
ENDBRANCH  23  32
ENDBRANCH   8  23
TORSDOF 6
ENDMDL
MODEL 5
REMARK VINA RESULT:      -9.7      2.246      3.625
REMARK  Name = 
REMARK  6 active torsions:
REMARK  status: ('A' for Active; 'I' for Inactive)
REMARK    1  A    between atoms: C_5  and  C_6
REMARK    2  A    between atoms: N_11  and  C_12
REMARK    3  A    between atoms: N_21  and  C_22
REMARK    4  A    between atoms: C_22  and  C_23
REMARK    5  A    between atoms: C_22  and  C_25
REMARK    6  A    between atoms: C_23  and  O_24
REMARK                            x       y       z     vdW  Elec       q    Type
REMARK                         _______ _______ _______ _____ _____    ______ ____
ROOT
ATOM      1  O   UNL     1       0.409   9.157  21.489  0.00  0.00    +0.000 OA
ATOM      2  C   UNL     1       1.030   8.779  20.499  0.00  0.00    +0.000 A 
ATOM      3  C   UNL     1       1.632   7.408  20.467  0.00  0.00    +0.000 A 
ATOM      4  F   UNL     1       1.510   6.713  21.619  0.00  0.00    +0.000 F 
ATOM      5  C   UNL     1       2.244   6.913  19.379  0.00  0.00    +0.000 A 
ATOM      6  C   UNL     1       2.350   7.789  18.219  0.00  0.00    +0.000 A 
ATOM      7  C   UNL     1       1.866   9.033  18.237  0.00  0.00    +0.000 A 
ATOM      8  N   UNL     1       1.219   9.554  19.351  0.00  0.00    +0.000 N 
ENDROOT
BRANCH   5   9
ATOM      9  C   UNL     1       2.823   5.547  19.379  0.00  0.00    +0.000 A 
ATOM     10  C   UNL     1       2.671   4.669  20.432  0.00  0.00    +0.000 A 
ATOM     11  C   UNL     1       3.220   3.425  20.257  0.00  0.00    +0.000 A 
ATOM     12  N   UNL     1       3.859   3.046  19.136  0.00  0.00    +0.000 NA
ATOM     13  C   UNL     1       3.954   3.951  18.156  0.00  0.00    +0.000 A 
ATOM     14  N   UNL     1       4.564   3.521  16.995  0.00  0.00    +0.000 N 
ATOM     15  N   UNL     1       3.459   5.192  18.241  0.00  0.00    +0.000 NA
ATOM     16  H   UNL     1       5.017   2.633  17.190  0.00  0.00    +0.000 HD
BRANCH  14  17
ATOM     17  C   UNL     1       5.328   4.491  16.222  0.00  0.00    +0.000 C 
ATOM     18  C   UNL     1       5.759   3.832  14.907  0.00  0.00    +0.000 C 
ATOM     19  C   UNL     1       6.691   4.748  14.130  0.00  0.00    +0.000 C 
ATOM     20  O   UNL     1       7.816   5.115  14.927  0.00  0.00    +0.000 OA
ATOM     21  C   UNL     1       7.433   5.842  16.093  0.00  0.00    +0.000 C 
ATOM     22  C   UNL     1       6.555   4.985  16.996  0.00  0.00    +0.000 C 
ENDBRANCH  14  17
ENDBRANCH   5   9
BRANCH   8  23
ATOM     23  C   UNL     1       0.685  10.939  19.340  0.00  0.00    +0.000 C 
BRANCH  23  24
ATOM     24  C   UNL     1      -0.765  10.953  18.858  0.00  0.00    +0.000 A 
ATOM     25  C   UNL     1      -1.119  10.239  17.698  0.00  0.00    +0.000 A 
ATOM     26  C   UNL     1      -2.403  10.345  17.150  0.00  0.00    +0.000 A 
ATOM     27  C   UNL     1      -3.347  11.175  17.751  0.00  0.00    +0.000 A 
ATOM     28 CL   UNL     1      -4.891  11.377  17.020  0.00  0.00    +0.000 Cl
ATOM     29  C   UNL     1      -3.021  11.853  18.920  0.00  0.00    +0.000 A 
ATOM     30  F   UNL     1      -3.911  12.657  19.521  0.00  0.00    +0.000 F 
ATOM     31  C   UNL     1      -1.749  11.737  19.481  0.00  0.00    +0.000 A 
ENDBRANCH  23  24
BRANCH  23  32
ATOM     32  C   UNL     1       1.613  11.938  18.605  0.00  0.00    +0.000 C 
BRANCH  32  33
ATOM     33  O   UNL     1       0.878  12.933  17.888  0.00  0.00    +0.000 OA
ATOM     34  H   UNL     1       1.184  12.927  16.963  0.00  0.00    +0.000 HD
ENDBRANCH  32  33
ENDBRANCH  23  32
ENDBRANCH   8  23
TORSDOF 6
ENDMDL
MODEL 6
REMARK VINA RESULT:      -9.5      1.954      3.375
REMARK  Name = 
REMARK  6 active torsions:
REMARK  status: ('A' for Active; 'I' for Inactive)
REMARK    1  A    between atoms: C_5  and  C_6
REMARK    2  A    between atoms: N_11  and  C_12
REMARK    3  A    between atoms: N_21  and  C_22
REMARK    4  A    between atoms: C_22  and  C_23
REMARK    5  A    between atoms: C_22  and  C_25
REMARK    6  A    between atoms: C_23  and  O_24
REMARK                            x       y       z     vdW  Elec       q    Type
REMARK                         _______ _______ _______ _____ _____    ______ ____
ROOT
ATOM      1  O   UNL     1       1.012   8.700  21.220  0.00  0.00    +0.000 OA
ATOM      2  C   UNL     1       1.456   8.446  20.103  0.00  0.00    +0.000 A 
ATOM      3  C   UNL     1       1.930   7.064  19.780  0.00  0.00    +0.000 A 
ATOM      4  F   UNL     1       1.913   6.205  20.822  0.00  0.00    +0.000 F 
ATOM      5  C   UNL     1       2.341   6.710  18.551  0.00  0.00    +0.000 A 
ATOM      6  C   UNL     1       2.356   7.750  17.530  0.00  0.00    +0.000 A 
ATOM      7  C   UNL     1       1.985   9.002  17.803  0.00  0.00    +0.000 A 
ATOM      8  N   UNL     1       1.546   9.379  19.067  0.00  0.00    +0.000 N 
ENDROOT
BRANCH   5   9
ATOM      9  C   UNL     1       2.799   5.329  18.262  0.00  0.00    +0.000 A 
ATOM     10  C   UNL     1       2.015   4.217  18.490  0.00  0.00    +0.000 A 
ATOM     11  C   UNL     1       2.561   3.014  18.120  0.00  0.00    +0.000 A 
ATOM     12  N   UNL     1       3.774   2.892  17.555  0.00  0.00    +0.000 NA
ATOM     13  C   UNL     1       4.467   4.018  17.355  0.00  0.00    +0.000 A 
ATOM     14  N   UNL     1       5.685   3.873  16.723  0.00  0.00    +0.000 N 
ATOM     15  N   UNL     1       4.021   5.235  17.694  0.00  0.00    +0.000 NA
ATOM     16  H   UNL     1       5.916   2.885  16.712  0.00  0.00    +0.000 HD
BRANCH  14  17
ATOM     17  C   UNL     1       6.757   4.793  17.080  0.00  0.00    +0.000 C 
ATOM     18  C   UNL     1       6.892   4.812  18.606  0.00  0.00    +0.000 C 
ATOM     19  C   UNL     1       7.891   5.871  19.042  0.00  0.00    +0.000 C 
ATOM     20  O   UNL     1       7.523   7.151  18.530  0.00  0.00    +0.000 OA
ATOM     21  C   UNL     1       7.519   7.178  17.104  0.00  0.00    +0.000 C 
ATOM     22  C   UNL     1       6.486   6.205  16.552  0.00  0.00    +0.000 C 
ENDBRANCH  14  17
ENDBRANCH   5   9
BRANCH   8  23
ATOM     23  C   UNL     1       1.133  10.779  19.340  0.00  0.00    +0.000 C 
BRANCH  23  24
ATOM     24  C   UNL     1      -0.323  11.000  18.933  0.00  0.00    +0.000 A 
ATOM     25  C   UNL     1      -1.094  11.965  19.610  0.00  0.00    +0.000 A 
ATOM     26  C   UNL     1      -2.465  12.095  19.361  0.00  0.00    +0.000 A 
ATOM     27  C   UNL     1      -3.086  11.255  18.439  0.00  0.00    +0.000 A 
ATOM     28 CL   UNL     1      -4.788  11.353  18.208  0.00  0.00    +0.000 Cl
ATOM     29  C   UNL     1      -2.327  10.327  17.735  0.00  0.00    +0.000 A 
ATOM     30  F   UNL     1      -2.897   9.507  16.840  0.00  0.00    +0.000 F 
ATOM     31  C   UNL     1      -0.957  10.205  17.966  0.00  0.00    +0.000 A 
ENDBRANCH  23  24
BRANCH  23  32
ATOM     32  C   UNL     1       2.122  11.824  18.767  0.00  0.00    +0.000 C 
BRANCH  32  33
ATOM     33  O   UNL     1       1.556  12.574  17.690  0.00  0.00    +0.000 OA
ATOM     34  H   UNL     1       1.697  12.074  16.867  0.00  0.00    +0.000 HD
ENDBRANCH  32  33
ENDBRANCH  23  32
ENDBRANCH   8  23
TORSDOF 6
ENDMDL
MODEL 7
REMARK VINA RESULT:      -9.5      2.315      3.682
REMARK  Name = 
REMARK  6 active torsions:
REMARK  status: ('A' for Active; 'I' for Inactive)
REMARK    1  A    between atoms: C_5  and  C_6
REMARK    2  A    between atoms: N_11  and  C_12
REMARK    3  A    between atoms: N_21  and  C_22
REMARK    4  A    between atoms: C_22  and  C_23
REMARK    5  A    between atoms: C_22  and  C_25
REMARK    6  A    between atoms: C_23  and  O_24
REMARK                            x       y       z     vdW  Elec       q    Type
REMARK                         _______ _______ _______ _____ _____    ______ ____
ROOT
ATOM      1  O   UNL     1       2.054   9.821  17.479  0.00  0.00    +0.000 OA
ATOM      2  C   UNL     1       1.796   9.170  18.488  0.00  0.00    +0.000 A 
ATOM      3  C   UNL     1       2.266   7.754  18.609  0.00  0.00    +0.000 A 
ATOM      4  F   UNL     1       2.878   7.268  17.507  0.00  0.00    +0.000 F 
ATOM      5  C   UNL     1       2.089   7.027  19.725  0.00  0.00    +0.000 A 
ATOM      6  C   UNL     1       1.367   7.658  20.822  0.00  0.00    +0.000 A 
ATOM      7  C   UNL     1       0.895   8.902  20.723  0.00  0.00    +0.000 A 
ATOM      8  N   UNL     1       1.081   9.670  19.580  0.00  0.00    +0.000 N 
ENDROOT
BRANCH   5   9
ATOM      9  C   UNL     1       2.573   5.627  19.813  0.00  0.00    +0.000 A 
ATOM     10  C   UNL     1       2.289   4.803  20.883  0.00  0.00    +0.000 A 
ATOM     11  C   UNL     1       2.763   3.519  20.790  0.00  0.00    +0.000 A 
ATOM     12  N   UNL     1       3.450   3.055  19.732  0.00  0.00    +0.000 NA
ATOM     13  C   UNL     1       3.673   3.913  18.730  0.00  0.00    +0.000 A 
ATOM     14  N   UNL     1       4.331   3.398  17.632  0.00  0.00    +0.000 N 
ATOM     15  N   UNL     1       3.260   5.187  18.737  0.00  0.00    +0.000 NA
ATOM     16  H   UNL     1       4.708   2.492  17.888  0.00  0.00    +0.000 HD
BRANCH  14  17
ATOM     17  C   UNL     1       5.211   4.285  16.882  0.00  0.00    +0.000 C 
ATOM     18  C   UNL     1       5.647   3.566  15.600  0.00  0.00    +0.000 C 
ATOM     19  C   UNL     1       6.689   4.384  14.856  0.00  0.00    +0.000 C 
ATOM     20  O   UNL     1       7.802   4.672  15.702  0.00  0.00    +0.000 OA
ATOM     21  C   UNL     1       7.426   5.452  16.836  0.00  0.00    +0.000 C 
ATOM     22  C   UNL     1       6.437   4.691  17.707  0.00  0.00    +0.000 C 
ENDBRANCH  14  17
ENDBRANCH   5   9
BRANCH   8  23
ATOM     23  C   UNL     1       0.551  11.054  19.501  0.00  0.00    +0.000 C 
BRANCH  23  24
ATOM     24  C   UNL     1      -0.890  11.052  18.992  0.00  0.00    +0.000 A 
ATOM     25  C   UNL     1      -1.219  10.304  17.845  0.00  0.00    +0.000 A 
ATOM     26  C   UNL     1      -2.493  10.392  17.270  0.00  0.00    +0.000 A 
ATOM     27  C   UNL     1      -3.451  11.235  17.829  0.00  0.00    +0.000 A 
ATOM     28 CL   UNL     1      -4.980  11.413  17.063  0.00  0.00    +0.000 Cl
ATOM     29  C   UNL     1      -3.149  11.946  18.986  0.00  0.00    +0.000 A 
ATOM     30  F   UNL     1      -4.052  12.763  19.547  0.00  0.00    +0.000 F 
ATOM     31  C   UNL     1      -1.888  11.849  19.573  0.00  0.00    +0.000 A 
ENDBRANCH  23  24
BRANCH  23  32
ATOM     32  C   UNL     1       1.495  12.021  18.744  0.00  0.00    +0.000 C 
BRANCH  32  33
ATOM     33  O   UNL     1       2.125  12.959  19.618  0.00  0.00    +0.000 OA
ATOM     34  H   UNL     1       1.517  13.140  20.357  0.00  0.00    +0.000 HD
ENDBRANCH  32  33
ENDBRANCH  23  32
ENDBRANCH   8  23
TORSDOF 6
ENDMDL
MODEL 8
REMARK VINA RESULT:      -9.4      3.563      5.010
REMARK  Name = 
REMARK  6 active torsions:
REMARK  status: ('A' for Active; 'I' for Inactive)
REMARK    1  A    between atoms: C_5  and  C_6
REMARK    2  A    between atoms: N_11  and  C_12
REMARK    3  A    between atoms: N_21  and  C_22
REMARK    4  A    between atoms: C_22  and  C_23
REMARK    5  A    between atoms: C_22  and  C_25
REMARK    6  A    between atoms: C_23  and  O_24
REMARK                            x       y       z     vdW  Elec       q    Type
REMARK                         _______ _______ _______ _____ _____    ______ ____
ROOT
ATOM      1  O   UNL     1       2.087  10.113  17.190  0.00  0.00    +0.000 OA
ATOM      2  C   UNL     1       1.762   9.592  18.254  0.00  0.00    +0.000 A 
ATOM      3  C   UNL     1       2.123   8.166  18.533  0.00  0.00    +0.000 A 
ATOM      4  F   UNL     1       2.720   7.525  17.504  0.00  0.00    +0.000 F 
ATOM      5  C   UNL     1       1.871   7.575  19.712  0.00  0.00    +0.000 A 
ATOM      6  C   UNL     1       1.176   8.367  20.718  0.00  0.00    +0.000 A 
ATOM      7  C   UNL     1       0.798   9.625  20.478  0.00  0.00    +0.000 A 
ATOM      8  N   UNL     1       1.064  10.253  19.268  0.00  0.00    +0.000 N 
ENDROOT
BRANCH   5   9
ATOM      9  C   UNL     1       2.248   6.161  19.958  0.00  0.00    +0.000 A 
ATOM     10  C   UNL     1       1.758   5.429  21.020  0.00  0.00    +0.000 A 
ATOM     11  C   UNL     1       2.159   4.119  21.078  0.00  0.00    +0.000 A 
ATOM     12  N   UNL     1       2.966   3.548  20.167  0.00  0.00    +0.000 NA
ATOM     13  C   UNL     1       3.388   4.321  19.161  0.00  0.00    +0.000 A 
ATOM     14  N   UNL     1       4.169   3.698  18.209  0.00  0.00    +0.000 N 
ATOM     15  N   UNL     1       3.059   5.612  19.028  0.00  0.00    +0.000 NA
ATOM     16  H   UNL     1       4.447   2.793  18.574  0.00  0.00    +0.000 HD
BRANCH  14  17
ATOM     17  C   UNL     1       5.205   4.484  17.550  0.00  0.00    +0.000 C 
ATOM     18  C   UNL     1       5.596   3.775  16.248  0.00  0.00    +0.000 C 
ATOM     19  C   UNL     1       6.781   4.469  15.597  0.00  0.00    +0.000 C 
ATOM     20  O   UNL     1       7.880   4.546  16.504  0.00  0.00    +0.000 OA
ATOM     21  C   UNL     1       7.564   5.313  17.665  0.00  0.00    +0.000 C 
ATOM     22  C   UNL     1       6.433   4.661  18.448  0.00  0.00    +0.000 C 
ENDBRANCH  14  17
ENDBRANCH   5   9
BRANCH   8  23
ATOM     23  C   UNL     1       0.639  11.656  19.032  0.00  0.00    +0.000 C 
BRANCH  23  24
ATOM     24  C   UNL     1       1.779  12.625  19.341  0.00  0.00    +0.000 A 
ATOM     25  C   UNL     1       2.016  13.016  20.672  0.00  0.00    +0.000 A 
ATOM     26  C   UNL     1       2.956  14.008  20.975  0.00  0.00    +0.000 A 
ATOM     27  C   UNL     1       3.666  14.628  19.948  0.00  0.00    +0.000 A 
ATOM     28 CL   UNL     1       4.749  15.912  20.316  0.00  0.00    +0.000 Cl
ATOM     29  C   UNL     1       3.470  14.220  18.633  0.00  0.00    +0.000 A 
ATOM     30  F   UNL     1       4.141  14.797  17.626  0.00  0.00    +0.000 F 
ATOM     31  C   UNL     1       2.547  13.220  18.328  0.00  0.00    +0.000 A 
ENDBRANCH  23  24
BRANCH  23  32
ATOM     32  C   UNL     1      -0.702  12.005  19.724  0.00  0.00    +0.000 C 
BRANCH  32  33
ATOM     33  O   UNL     1      -1.420  13.028  19.031  0.00  0.00    +0.000 OA
ATOM     34  H   UNL     1      -0.933  13.865  19.138  0.00  0.00    +0.000 HD
ENDBRANCH  32  33
ENDBRANCH  23  32
ENDBRANCH   8  23
TORSDOF 6
ENDMDL
MODEL 9
REMARK VINA RESULT:      -9.3      1.873      3.307
REMARK  Name = 
REMARK  6 active torsions:
REMARK  status: ('A' for Active; 'I' for Inactive)
REMARK    1  A    between atoms: C_5  and  C_6
REMARK    2  A    between atoms: N_11  and  C_12
REMARK    3  A    between atoms: N_21  and  C_22
REMARK    4  A    between atoms: C_22  and  C_23
REMARK    5  A    between atoms: C_22  and  C_25
REMARK    6  A    between atoms: C_23  and  O_24
REMARK                            x       y       z     vdW  Elec       q    Type
REMARK                         _______ _______ _______ _____ _____    ______ ____
ROOT
ATOM      1  O   UNL     1       0.550   9.412  21.299  0.00  0.00    +0.000 OA
ATOM      2  C   UNL     1       1.162   8.883  20.376  0.00  0.00    +0.000 A 
ATOM      3  C   UNL     1       1.638   7.468  20.503  0.00  0.00    +0.000 A 
ATOM      4  F   UNL     1       1.421   6.909  21.713  0.00  0.00    +0.000 F 
ATOM      5  C   UNL     1       2.233   6.813  19.493  0.00  0.00    +0.000 A 
ATOM      6  C   UNL     1       2.451   7.553  18.257  0.00  0.00    +0.000 A 
ATOM      7  C   UNL     1       2.081   8.829  18.132  0.00  0.00    +0.000 A 
ATOM      8  N   UNL     1       1.453   9.516  19.164  0.00  0.00    +0.000 N 
ENDROOT
BRANCH   5   9
ATOM      9  C   UNL     1       2.687   5.409  19.651  0.00  0.00    +0.000 A 
ATOM     10  C   UNL     1       2.291   4.608  20.702  0.00  0.00    +0.000 A 
ATOM     11  C   UNL     1       2.753   3.317  20.676  0.00  0.00    +0.000 A 
ATOM     12  N   UNL     1       3.531   2.826  19.697  0.00  0.00    +0.000 NA
ATOM     13  C   UNL     1       3.861   3.662  18.706  0.00  0.00    +0.000 A 
ATOM     14  N   UNL     1       4.613   3.120  17.684  0.00  0.00    +0.000 N 
ATOM     15  N   UNL     1       3.467   4.941  18.652  0.00  0.00    +0.000 NA
ATOM     16  H   UNL     1       4.951   2.214  17.991  0.00  0.00    +0.000 HD
BRANCH  14  17
ATOM     17  C   UNL     1       5.573   3.982  17.007  0.00  0.00    +0.000 C 
ATOM     18  C   UNL     1       6.238   4.883  18.053  0.00  0.00    +0.000 C 
ATOM     19  C   UNL     1       7.136   5.909  17.381  0.00  0.00    +0.000 C 
ATOM     20  O   UNL     1       6.402   6.670  16.424  0.00  0.00    +0.000 OA
ATOM     21  C   UNL     1       5.883   5.855  15.374  0.00  0.00    +0.000 C 
ATOM     22  C   UNL     1       4.899   4.833  15.925  0.00  0.00    +0.000 C 
ENDBRANCH  14  17
ENDBRANCH   5   9
BRANCH   8  23
ATOM     23  C   UNL     1       1.046  10.934  18.995  0.00  0.00    +0.000 C 
BRANCH  23  24
ATOM     24  C   UNL     1      -0.423  11.029  18.587  0.00  0.00    +0.000 A 
ATOM     25  C   UNL     1      -1.284  11.893  19.290  0.00  0.00    +0.000 A 
ATOM     26  C   UNL     1      -2.661  11.900  19.038  0.00  0.00    +0.000 A 
ATOM     27  C   UNL     1      -3.196  11.035  18.085  0.00  0.00    +0.000 A 
ATOM     28 CL   UNL     1      -4.899  10.979  17.847  0.00  0.00    +0.000 Cl
ATOM     29  C   UNL     1      -2.350  10.207  17.356  0.00  0.00    +0.000 A 
ATOM     30  F   UNL     1      -2.837   9.366  16.432  0.00  0.00    +0.000 F 
ATOM     31  C   UNL     1      -0.975  10.208  17.591  0.00  0.00    +0.000 A 
ENDBRANCH  23  24
BRANCH  23  32
ATOM     32  C   UNL     1       2.014  11.736  18.089  0.00  0.00    +0.000 C 
BRANCH  32  33
ATOM     33  O   UNL     1       1.563  13.073  17.864  0.00  0.00    +0.000 OA
ATOM     34  H   UNL     1       0.678  13.164  18.261  0.00  0.00    +0.000 HD
ENDBRANCH  32  33
ENDBRANCH  23  32
ENDBRANCH   8  23
TORSDOF 6
ENDMDL
