MODEL 1
REMARK VINA RESULT:      -7.6      0.000      0.000
REMARK  Name = 
REMARK  3 active torsions:
REMARK  status: ('A' for Active; 'I' for Inactive)
REMARK    1  A    between atoms: C_6  and  N_7
REMARK    2  A    between atoms: N_12  and  C_13
REMARK    3  A    between atoms: C_13  and  C_14
REMARK                            x       y       z     vdW  Elec       q    Type
REMARK                         _______ _______ _______ _____ _____    ______ ____
ROOT
ATOM      1  N   UNL     1       5.653   4.679  18.668  0.00  0.00    +0.000 N 
ATOM      2  N   UNL     1       6.236   4.985  19.864  0.00  0.00    +0.000 NA
ATOM      3  C   UNL     1       7.363   5.580  19.479  0.00  0.00    +0.000 A 
ATOM      4  N   UNL     1       7.516   5.750  18.140  0.00  0.00    +0.000 NA
ATOM      5  C   UNL     1       6.403   5.263  17.632  0.00  0.00    +0.000 A 
ATOM      6  N   UNL     1       5.980   5.409  16.341  0.00  0.00    +0.000 N 
ATOM      7  H   UNL     1       5.188   4.867  16.016  0.00  0.00    +0.000 HD
ENDROOT
BRANCH   1  13
ATOM      8 CL   UNL     1       0.721   4.045  20.263  0.00  0.00    +0.000 Cl
ATOM      9  C   UNL     1       2.143   3.604  19.381  0.00  0.00    +0.000 A 
ATOM     10  C   UNL     1       2.156   2.337  18.786  0.00  0.00    +0.000 A 
ATOM     11  C   UNL     1       3.258   1.927  18.043  0.00  0.00    +0.000 A 
ATOM     12  C   UNL     1       4.382   2.748  17.958  0.00  0.00    +0.000 A 
ATOM     13  C   UNL     1       4.413   3.987  18.633  0.00  0.00    +0.000 A 
ATOM     14  C   UNL     1       3.253   4.455  19.269  0.00  0.00    +0.000 A 
ATOM     15 CL   UNL     1       3.077   6.122  19.736  0.00  0.00    +0.000 Cl
ENDBRANCH   1  13
BRANCH   6  16
ATOM     16  C   UNL     1       7.011   5.515  15.311  0.00  0.00    +0.000 C 
BRANCH  16  17
ATOM     17  C   UNL     1       6.633   4.797  14.031  0.00  0.00    +0.000 A 
ATOM     18  C   UNL     1       7.493   4.713  12.930  0.00  0.00    +0.000 A 
ATOM     19  C   UNL     1       7.147   3.947  11.810  0.00  0.00    +0.000 A 
ATOM     20  C   UNL     1       5.945   3.245  11.783  0.00  0.00    +0.000 A 
ATOM     21  C   UNL     1       5.084   3.305  12.876  0.00  0.00    +0.000 A 
ATOM     22  C   UNL     1       5.427   4.074  13.991  0.00  0.00    +0.000 A 
ENDBRANCH  16  17
ENDBRANCH   6  16
TORSDOF 3
ENDMDL
MODEL 2
REMARK VINA RESULT:      -7.6      0.133      1.058
REMARK  Name = 
REMARK  3 active torsions:
REMARK  status: ('A' for Active; 'I' for Inactive)
REMARK    1  A    between atoms: C_6  and  N_7
REMARK    2  A    between atoms: N_12  and  C_13
REMARK    3  A    between atoms: C_13  and  C_14
REMARK                            x       y       z     vdW  Elec       q    Type
REMARK                         _______ _______ _______ _____ _____    ______ ____
ROOT
ATOM      1  N   UNL     1       5.605   4.686  18.631  0.00  0.00    +0.000 N 
ATOM      2  N   UNL     1       6.215   5.024  19.804  0.00  0.00    +0.000 NA
ATOM      3  C   UNL     1       7.330   5.613  19.379  0.00  0.00    +0.000 A 
ATOM      4  N   UNL     1       7.451   5.749  18.033  0.00  0.00    +0.000 NA
ATOM      5  C   UNL     1       6.328   5.247  17.563  0.00  0.00    +0.000 A 
ATOM      6  N   UNL     1       5.874   5.359  16.280  0.00  0.00    +0.000 N 
ATOM      7  H   UNL     1       5.077   4.806  15.987  0.00  0.00    +0.000 HD
ENDROOT
BRANCH   1  13
ATOM      8 CL   UNL     1       0.704   4.094  20.334  0.00  0.00    +0.000 Cl
ATOM      9  C   UNL     1       2.112   3.626  19.443  0.00  0.00    +0.000 A 
ATOM     10  C   UNL     1       2.120   2.338  18.893  0.00  0.00    +0.000 A 
ATOM     11  C   UNL     1       3.211   1.905  18.148  0.00  0.00    +0.000 A 
ATOM     12  C   UNL     1       4.329   2.727  18.013  0.00  0.00    +0.000 A 
ATOM     13  C   UNL     1       4.368   3.990  18.642  0.00  0.00    +0.000 A 
ATOM     14  C   UNL     1       3.217   4.476  19.281  0.00  0.00    +0.000 A 
ATOM     15 CL   UNL     1       3.043   6.159  19.691  0.00  0.00    +0.000 Cl
ENDBRANCH   1  13
BRANCH   6  16
ATOM     16  C   UNL     1       6.881   5.443  15.223  0.00  0.00    +0.000 C 
BRANCH  16  17
ATOM     17  C   UNL     1       6.530   4.597  14.015  0.00  0.00    +0.000 A 
ATOM     18  C   UNL     1       5.283   3.977  13.864  0.00  0.00    +0.000 A 
ATOM     19  C   UNL     1       4.962   3.297  12.683  0.00  0.00    +0.000 A 
ATOM     20  C   UNL     1       5.877   3.240  11.635  0.00  0.00    +0.000 A 
ATOM     21  C   UNL     1       7.115   3.863  11.762  0.00  0.00    +0.000 A 
ATOM     22  C   UNL     1       7.438   4.537  12.942  0.00  0.00    +0.000 A 
ENDBRANCH  16  17
ENDBRANCH   6  16
TORSDOF 3
ENDMDL
MODEL 3
REMARK VINA RESULT:      -7.5      1.343      1.702
REMARK  Name = 
REMARK  3 active torsions:
REMARK  status: ('A' for Active; 'I' for Inactive)
REMARK    1  A    between atoms: C_6  and  N_7
REMARK    2  A    between atoms: N_12  and  C_13
REMARK    3  A    between atoms: C_13  and  C_14
REMARK                            x       y       z     vdW  Elec       q    Type
REMARK                         _______ _______ _______ _____ _____    ______ ____
ROOT
ATOM      1  N   UNL     1       5.760   5.163  18.589  0.00  0.00    +0.000 N 
ATOM      2  N   UNL     1       6.415   5.354  19.771  0.00  0.00    +0.000 NA
ATOM      3  C   UNL     1       7.680   5.475  19.371  0.00  0.00    +0.000 A 
ATOM      4  N   UNL     1       7.880   5.455  18.028  0.00  0.00    +0.000 NA
ATOM      5  C   UNL     1       6.666   5.347  17.529  0.00  0.00    +0.000 A 
ATOM      6  N   UNL     1       6.320   5.511  16.219  0.00  0.00    +0.000 N 
ATOM      7  H   UNL     1       5.387   5.255  15.917  0.00  0.00    +0.000 HD
ENDROOT
BRANCH   1  13
ATOM      8 CL   UNL     1       1.603   2.014  18.855  0.00  0.00    +0.000 Cl
ATOM      9  C   UNL     1       2.393   3.536  18.628  0.00  0.00    +0.000 A 
ATOM     10  C   UNL     1       1.612   4.594  18.146  0.00  0.00    +0.000 A 
ATOM     11  C   UNL     1       2.178   5.851  17.961  0.00  0.00    +0.000 A 
ATOM     12  C   UNL     1       3.542   6.036  18.181  0.00  0.00    +0.000 A 
ATOM     13  C   UNL     1       4.356   4.952  18.576  0.00  0.00    +0.000 A 
ATOM     14  C   UNL     1       3.759   3.722  18.889  0.00  0.00    +0.000 A 
ATOM     15 CL   UNL     1       4.611   2.494  19.782  0.00  0.00    +0.000 Cl
ENDBRANCH   1  13
BRANCH   6  16
ATOM     16  C   UNL     1       7.320   5.151  15.216  0.00  0.00    +0.000 C 
BRANCH  16  17
ATOM     17  C   UNL     1       6.705   4.545  13.970  0.00  0.00    +0.000 A 
ATOM     18  C   UNL     1       7.439   4.314  12.800  0.00  0.00    +0.000 A 
ATOM     19  C   UNL     1       6.859   3.653  11.711  0.00  0.00    +0.000 A 
ATOM     20  C   UNL     1       5.543   3.203  11.782  0.00  0.00    +0.000 A 
ATOM     21  C   UNL     1       4.802   3.412  12.943  0.00  0.00    +0.000 A 
ATOM     22  C   UNL     1       5.379   4.076  14.028  0.00  0.00    +0.000 A 
ENDBRANCH  16  17
ENDBRANCH   6  16
TORSDOF 3
ENDMDL
MODEL 4
REMARK VINA RESULT:      -7.5      3.856      6.826
REMARK  Name = 
REMARK  3 active torsions:
REMARK  status: ('A' for Active; 'I' for Inactive)
REMARK    1  A    between atoms: C_6  and  N_7
REMARK    2  A    between atoms: N_12  and  C_13
REMARK    3  A    between atoms: C_13  and  C_14
REMARK                            x       y       z     vdW  Elec       q    Type
REMARK                         _______ _______ _______ _____ _____    ______ ____
ROOT
ATOM      1  N   UNL     1       4.064   4.144  19.619  0.00  0.00    +0.000 N 
ATOM      2  N   UNL     1       3.951   2.862  20.074  0.00  0.00    +0.000 NA
ATOM      3  C   UNL     1       2.914   2.952  20.904  0.00  0.00    +0.000 A 
ATOM      4  N   UNL     1       2.306   4.165  20.961  0.00  0.00    +0.000 NA
ATOM      5  C   UNL     1       2.971   4.894  20.089  0.00  0.00    +0.000 A 
ATOM      6  N   UNL     1       2.599   6.121  19.619  0.00  0.00    +0.000 N 
ATOM      7  H   UNL     1       3.257   6.661  19.069  0.00  0.00    +0.000 HD
ENDROOT
BRANCH   1  13
ATOM      8 CL   UNL     1       6.328   3.829  14.924  0.00  0.00    +0.000 Cl
ATOM      9  C   UNL     1       6.229   4.335  16.576  0.00  0.00    +0.000 A 
ATOM     10  C   UNL     1       7.373   4.920  17.133  0.00  0.00    +0.000 A 
ATOM     11  C   UNL     1       7.356   5.368  18.449  0.00  0.00    +0.000 A 
ATOM     12  C   UNL     1       6.223   5.165  19.237  0.00  0.00    +0.000 A 
ATOM     13  C   UNL     1       5.099   4.492  18.711  0.00  0.00    +0.000 A 
ATOM     14  C   UNL     1       5.070   4.160  17.348  0.00  0.00    +0.000 A 
ATOM     15 CL   UNL     1       3.587   3.737  16.542  0.00  0.00    +0.000 Cl
ENDBRANCH   1  13
BRANCH   6  16
ATOM     16  C   UNL     1       1.833   6.976  20.524  0.00  0.00    +0.000 C 
BRANCH  16  17
ATOM     17  C   UNL     1       1.494   8.319  19.908  0.00  0.00    +0.000 A 
ATOM     18  C   UNL     1       0.884   9.350  20.634  0.00  0.00    +0.000 A 
ATOM     19  C   UNL     1       0.688  10.611  20.058  0.00  0.00    +0.000 A 
ATOM     20  C   UNL     1       1.111  10.860  18.755  0.00  0.00    +0.000 A 
ATOM     21  C   UNL     1       1.731   9.851  18.023  0.00  0.00    +0.000 A 
ATOM     22  C   UNL     1       1.922   8.591  18.596  0.00  0.00    +0.000 A 
ENDBRANCH  16  17
ENDBRANCH   6  16
TORSDOF 3
ENDMDL
MODEL 5
REMARK VINA RESULT:      -7.5      1.346      1.993
REMARK  Name = 
REMARK  3 active torsions:
REMARK  status: ('A' for Active; 'I' for Inactive)
REMARK    1  A    between atoms: C_6  and  N_7
REMARK    2  A    between atoms: N_12  and  C_13
REMARK    3  A    between atoms: C_13  and  C_14
REMARK                            x       y       z     vdW  Elec       q    Type
REMARK                         _______ _______ _______ _____ _____    ______ ____
ROOT
ATOM      1  N   UNL     1       5.754   5.170  18.565  0.00  0.00    +0.000 N 
ATOM      2  N   UNL     1       6.421   5.394  19.735  0.00  0.00    +0.000 NA
ATOM      3  C   UNL     1       7.674   5.554  19.315  0.00  0.00    +0.000 A 
ATOM      4  N   UNL     1       7.855   5.529  17.969  0.00  0.00    +0.000 NA
ATOM      5  C   UNL     1       6.637   5.376  17.490  0.00  0.00    +0.000 A 
ATOM      6  N   UNL     1       6.265   5.517  16.183  0.00  0.00    +0.000 N 
ATOM      7  H   UNL     1       5.337   5.228  15.899  0.00  0.00    +0.000 HD
ENDROOT
BRANCH   1  13
ATOM      8 CL   UNL     1       1.711   1.881  18.887  0.00  0.00    +0.000 Cl
ATOM      9  C   UNL     1       2.445   3.431  18.654  0.00  0.00    +0.000 A 
ATOM     10  C   UNL     1       1.620   4.464  18.192  0.00  0.00    +0.000 A 
ATOM     11  C   UNL     1       2.140   5.740  18.004  0.00  0.00    +0.000 A 
ATOM     12  C   UNL     1       3.501   5.970  18.201  0.00  0.00    +0.000 A 
ATOM     13  C   UNL     1       4.358   4.913  18.576  0.00  0.00    +0.000 A 
ATOM     14  C   UNL     1       3.809   3.661  18.892  0.00  0.00    +0.000 A 
ATOM     15 CL   UNL     1       4.718   2.459  19.763  0.00  0.00    +0.000 Cl
ENDBRANCH   1  13
BRANCH   6  16
ATOM     16  C   UNL     1       7.262   5.183  15.168  0.00  0.00    +0.000 C 
BRANCH  16  17
ATOM     17  C   UNL     1       6.668   4.431  13.993  0.00  0.00    +0.000 A 
ATOM     18  C   UNL     1       5.347   3.965  13.986  0.00  0.00    +0.000 A 
ATOM     19  C   UNL     1       4.806   3.373  12.838  0.00  0.00    +0.000 A 
ATOM     20  C   UNL     1       5.571   3.253  11.682  0.00  0.00    +0.000 A 
ATOM     21  C   UNL     1       6.881   3.724  11.667  0.00  0.00    +0.000 A 
ATOM     22  C   UNL     1       7.424   4.310  12.813  0.00  0.00    +0.000 A 
ENDBRANCH  16  17
ENDBRANCH   6  16
TORSDOF 3
ENDMDL
MODEL 6
REMARK VINA RESULT:      -7.5      1.814      2.318
REMARK  Name = 
REMARK  3 active torsions:
REMARK  status: ('A' for Active; 'I' for Inactive)
REMARK    1  A    between atoms: C_6  and  N_7
REMARK    2  A    between atoms: N_12  and  C_13
REMARK    3  A    between atoms: C_13  and  C_14
REMARK                            x       y       z     vdW  Elec       q    Type
REMARK                         _______ _______ _______ _____ _____    ______ ____
ROOT
ATOM      1  N   UNL     1       3.288   5.504  17.880  0.00  0.00    +0.000 N 
ATOM      2  N   UNL     1       2.727   6.735  18.061  0.00  0.00    +0.000 NA
ATOM      3  C   UNL     1       3.626   7.537  17.494  0.00  0.00    +0.000 A 
ATOM      4  N   UNL     1       4.677   6.918  16.896  0.00  0.00    +0.000 NA
ATOM      5  C   UNL     1       4.424   5.636  17.060  0.00  0.00    +0.000 A 
ATOM      6  N   UNL     1       5.070   4.605  16.441  0.00  0.00    +0.000 N 
ATOM      7  H   UNL     1       4.901   3.656  16.753  0.00  0.00    +0.000 HD
ENDROOT
BRANCH   1  13
ATOM      8 CL   UNL     1       1.461   2.641  21.847  0.00  0.00    +0.000 Cl
ATOM      9  C   UNL     1       1.836   2.942  20.184  0.00  0.00    +0.000 A 
ATOM     10  C   UNL     1       1.727   1.861  19.301  0.00  0.00    +0.000 A 
ATOM     11  C   UNL     1       1.992   2.037  17.947  0.00  0.00    +0.000 A 
ATOM     12  C   UNL     1       2.442   3.273  17.484  0.00  0.00    +0.000 A 
ATOM     13  C   UNL     1       2.644   4.343  18.383  0.00  0.00    +0.000 A 
ATOM     14  C   UNL     1       2.250   4.200  19.722  0.00  0.00    +0.000 A 
ATOM     15 CL   UNL     1       2.061   5.578  20.770  0.00  0.00    +0.000 Cl
ENDBRANCH   1  13
BRANCH   6  16
ATOM     16  C   UNL     1       6.477   4.811  16.100  0.00  0.00    +0.000 C 
BRANCH  16  17
ATOM     17  C   UNL     1       6.760   4.575  14.630  0.00  0.00    +0.000 A 
ATOM     18  C   UNL     1       6.054   3.639  13.865  0.00  0.00    +0.000 A 
ATOM     19  C   UNL     1       6.274   3.532  12.486  0.00  0.00    +0.000 A 
ATOM     20  C   UNL     1       7.190   4.367  11.854  0.00  0.00    +0.000 A 
ATOM     21  C   UNL     1       7.891   5.314  12.597  0.00  0.00    +0.000 A 
ATOM     22  C   UNL     1       7.676   5.417  13.973  0.00  0.00    +0.000 A 
ENDBRANCH  16  17
ENDBRANCH   6  16
TORSDOF 3
ENDMDL
MODEL 7
REMARK VINA RESULT:      -7.5      3.865      6.810
REMARK  Name = 
REMARK  3 active torsions:
REMARK  status: ('A' for Active; 'I' for Inactive)
REMARK    1  A    between atoms: C_6  and  N_7
REMARK    2  A    between atoms: N_12  and  C_13
REMARK    3  A    between atoms: C_13  and  C_14
REMARK                            x       y       z     vdW  Elec       q    Type
REMARK                         _______ _______ _______ _____ _____    ______ ____
ROOT
ATOM      1  N   UNL     1       4.079   4.127  19.619  0.00  0.00    +0.000 N 
ATOM      2  N   UNL     1       3.966   2.844  20.071  0.00  0.00    +0.000 NA
ATOM      3  C   UNL     1       2.933   2.933  20.907  0.00  0.00    +0.000 A 
ATOM      4  N   UNL     1       2.327   4.146  20.970  0.00  0.00    +0.000 NA
ATOM      5  C   UNL     1       2.988   4.876  20.096  0.00  0.00    +0.000 A 
ATOM      6  N   UNL     1       2.615   6.105  19.631  0.00  0.00    +0.000 N 
ATOM      7  H   UNL     1       3.271   6.645  19.080  0.00  0.00    +0.000 HD
ENDROOT
BRANCH   1  13
ATOM      8 CL   UNL     1       6.315   3.827  14.909  0.00  0.00    +0.000 Cl
ATOM      9  C   UNL     1       6.227   4.325  16.564  0.00  0.00    +0.000 A 
ATOM     10  C   UNL     1       7.375   4.904  17.118  0.00  0.00    +0.000 A 
ATOM     11  C   UNL     1       7.367   5.347  18.436  0.00  0.00    +0.000 A 
ATOM     12  C   UNL     1       6.238   5.143  19.229  0.00  0.00    +0.000 A 
ATOM     13  C   UNL     1       5.109   4.476  18.707  0.00  0.00    +0.000 A 
ATOM     14  C   UNL     1       5.072   4.150  17.342  0.00  0.00    +0.000 A 
ATOM     15 CL   UNL     1       3.583   3.735  16.543  0.00  0.00    +0.000 Cl
ENDBRANCH   1  13
BRANCH   6  16
ATOM     16  C   UNL     1       1.855   6.958  20.542  0.00  0.00    +0.000 C 
BRANCH  16  17
ATOM     17  C   UNL     1       1.532   8.311  19.940  0.00  0.00    +0.000 A 
ATOM     18  C   UNL     1       1.857   8.647  18.620  0.00  0.00    +0.000 A 
ATOM     19  C   UNL     1       1.444   9.867  18.071  0.00  0.00    +0.000 A 
ATOM     20  C   UNL     1       0.690  10.759  18.828  0.00  0.00    +0.000 A 
ATOM     21  C   UNL     1       0.345  10.435  20.138  0.00  0.00    +0.000 A 
ATOM     22  C   UNL     1       0.762   9.220  20.688  0.00  0.00    +0.000 A 
ENDBRANCH  16  17
ENDBRANCH   6  16
TORSDOF 3
ENDMDL
MODEL 8
REMARK VINA RESULT:      -7.5      1.835      2.110
REMARK  Name = 
REMARK  3 active torsions:
REMARK  status: ('A' for Active; 'I' for Inactive)
REMARK    1  A    between atoms: C_6  and  N_7
REMARK    2  A    between atoms: N_12  and  C_13
REMARK    3  A    between atoms: C_13  and  C_14
REMARK                            x       y       z     vdW  Elec       q    Type
REMARK                         _______ _______ _______ _____ _____    ______ ____
ROOT
ATOM      1  N   UNL     1       3.285   5.494  17.890  0.00  0.00    +0.000 N 
ATOM      2  N   UNL     1       2.765   6.740  18.088  0.00  0.00    +0.000 NA
ATOM      3  C   UNL     1       3.677   7.518  17.508  0.00  0.00    +0.000 A 
ATOM      4  N   UNL     1       4.698   6.871  16.888  0.00  0.00    +0.000 NA
ATOM      5  C   UNL     1       4.409   5.596  17.049  0.00  0.00    +0.000 A 
ATOM      6  N   UNL     1       5.011   4.550  16.412  0.00  0.00    +0.000 N 
ATOM      7  H   UNL     1       4.819   3.604  16.722  0.00  0.00    +0.000 HD
ENDROOT
BRANCH   1  13
ATOM      8 CL   UNL     1       1.355   2.714  21.867  0.00  0.00    +0.000 Cl
ATOM      9  C   UNL     1       1.759   2.987  20.206  0.00  0.00    +0.000 A 
ATOM     10  C   UNL     1       1.645   1.896  19.336  0.00  0.00    +0.000 A 
ATOM     11  C   UNL     1       1.933   2.049  17.984  0.00  0.00    +0.000 A 
ATOM     12  C   UNL     1       2.409   3.272  17.511  0.00  0.00    +0.000 A 
ATOM     13  C   UNL     1       2.615   4.350  18.399  0.00  0.00    +0.000 A 
ATOM     14  C   UNL     1       2.200   4.232  19.734  0.00  0.00    +0.000 A 
ATOM     15 CL   UNL     1       2.018   5.626  20.760  0.00  0.00    +0.000 Cl
ENDBRANCH   1  13
BRANCH   6  16
ATOM     16  C   UNL     1       6.417   4.714  16.046  0.00  0.00    +0.000 C 
BRANCH  16  17
ATOM     17  C   UNL     1       6.642   4.634  14.549  0.00  0.00    +0.000 A 
ATOM     18  C   UNL     1       7.625   5.385  13.892  0.00  0.00    +0.000 A 
ATOM     19  C   UNL     1       7.872   5.199  12.527  0.00  0.00    +0.000 A 
ATOM     20  C   UNL     1       7.151   4.252  11.805  0.00  0.00    +0.000 A 
ATOM     21  C   UNL     1       6.180   3.486  12.446  0.00  0.00    +0.000 A 
ATOM     22  C   UNL     1       5.929   3.675  13.807  0.00  0.00    +0.000 A 
ENDBRANCH  16  17
ENDBRANCH   6  16
TORSDOF 3
ENDMDL
MODEL 9
REMARK VINA RESULT:      -7.3      1.713      2.308
REMARK  Name = 
REMARK  3 active torsions:
REMARK  status: ('A' for Active; 'I' for Inactive)
REMARK    1  A    between atoms: C_6  and  N_7
REMARK    2  A    between atoms: N_12  and  C_13
REMARK    3  A    between atoms: C_13  and  C_14
REMARK                            x       y       z     vdW  Elec       q    Type
REMARK                         _______ _______ _______ _____ _____    ______ ____
ROOT
ATOM      1  N   UNL     1       5.837   4.632  17.272  0.00  0.00    +0.000 N 
ATOM      2  N   UNL     1       6.628   4.553  18.381  0.00  0.00    +0.000 NA
ATOM      3  C   UNL     1       7.839   4.401  17.849  0.00  0.00    +0.000 A 
ATOM      4  N   UNL     1       7.900   4.455  16.493  0.00  0.00    +0.000 NA
ATOM      5  C   UNL     1       6.656   4.688  16.130  0.00  0.00    +0.000 A 
ATOM      6  N   UNL     1       6.239   5.049  14.881  0.00  0.00    +0.000 N 
ATOM      7  H   UNL     1       5.247   5.054  14.672  0.00  0.00    +0.000 HD
ENDROOT
BRANCH   1  13
ATOM      8 CL   UNL     1       1.605   7.454  18.456  0.00  0.00    +0.000 Cl
ATOM      9  C   UNL     1       2.436   6.006  18.002  0.00  0.00    +0.000 A 
ATOM     10  C   UNL     1       1.696   4.817  18.011  0.00  0.00    +0.000 A 
ATOM     11  C   UNL     1       2.295   3.620  17.636  0.00  0.00    +0.000 A 
ATOM     12  C   UNL     1       3.655   3.592  17.327  0.00  0.00    +0.000 A 
ATOM     13  C   UNL     1       4.430   4.769  17.406  0.00  0.00    +0.000 A 
ATOM     14  C   UNL     1       3.796   5.995  17.655  0.00  0.00    +0.000 A 
ATOM     15 CL   UNL     1       4.588   7.513  17.343  0.00  0.00    +0.000 Cl
ENDBRANCH   1  13
BRANCH   6  16
ATOM     16  C   UNL     1       7.018   4.550  13.749  0.00  0.00    +0.000 C 
BRANCH  16  17
ATOM     17  C   UNL     1       6.200   3.681  12.816  0.00  0.00    +0.000 A 
ATOM     18  C   UNL     1       4.865   3.960  12.500  0.00  0.00    +0.000 A 
ATOM     19  C   UNL     1       4.180   3.193  11.550  0.00  0.00    +0.000 A 
ATOM     20  C   UNL     1       4.825   2.149  10.893  0.00  0.00    +0.000 A 
ATOM     21  C   UNL     1       6.157   1.867  11.183  0.00  0.00    +0.000 A 
ATOM     22  C   UNL     1       6.839   2.628  12.136  0.00  0.00    +0.000 A 
ENDBRANCH  16  17
ENDBRANCH   6  16
TORSDOF 3
ENDMDL
