MODEL 1
REMARK VINA RESULT:      -7.3      0.000      0.000
REMARK  Name = 
REMARK  4 active torsions:
REMARK  status: ('A' for Active; 'I' for Inactive)
REMARK    1  A    between atoms: C_2  and  C_3
REMARK    2  A    between atoms: C_6  and  C_7
REMARK    3  A    between atoms: C_10  and  C_11
REMARK    4  A    between atoms: C_16  and  C_17
REMARK                            x       y       z     vdW  Elec       q    Type
REMARK                         _______ _______ _______ _____ _____    ______ ____
ROOT
ATOM      1  C   UNL     1       1.796   8.657  18.901  0.00  0.00    +0.000 A 
ATOM      2  N   UNL     1       2.239   9.250  17.775  0.00  0.00    +0.000 NA
ATOM      3  O   UNL     1       2.960   8.244  17.133  0.00  0.00    +0.000 OA
ATOM      4  C   UNL     1       2.881   7.138  17.928  0.00  0.00    +0.000 A 
ATOM      5  N   UNL     1       2.169   7.333  19.011  0.00  0.00    +0.000 NA
ENDROOT
BRANCH   4   6
ATOM      6  C   UNL     1       3.640   5.962  17.532  0.00  0.00    +0.000 A 
ATOM      7  C   UNL     1       3.223   4.662  17.839  0.00  0.00    +0.000 A 
ATOM      8  C   UNL     1       3.940   3.572  17.355  0.00  0.00    +0.000 A 
ATOM      9  F   UNL     1       3.515   2.334  17.635  0.00  0.00    +0.000 F 
ATOM     10  C   UNL     1       5.072   3.740  16.566  0.00  0.00    +0.000 A 
ATOM     11  C   UNL     1       5.511   5.031  16.269  0.00  0.00    +0.000 A 
ATOM     12  C   UNL     1       4.805   6.134  16.761  0.00  0.00    +0.000 A 
BRANCH  11  13
ATOM     13  C   UNL     1       6.656   5.229  15.432  0.00  0.00    +0.000 C 
ATOM     14  N   UNL     1       7.579   5.381  14.744  0.00  0.00    +0.000 NA
ENDBRANCH  11  13
ENDBRANCH   4   6
BRANCH   1  18
ATOM     15  C   UNL     1      -0.521  10.647  21.813  0.00  0.00    +0.000 A 
ATOM     16  C   UNL     1       0.251   9.557  22.207  0.00  0.00    +0.000 A 
ATOM     17  C   UNL     1       1.037   8.895  21.262  0.00  0.00    +0.000 A 
ATOM     18  C   UNL     1       1.028   9.344  19.942  0.00  0.00    +0.000 A 
ATOM     19  N   UNL     1       0.286  10.415  19.549  0.00  0.00    +0.000 NA
ATOM     20  C   UNL     1      -0.466  11.039  20.485  0.00  0.00    +0.000 A 
BRANCH  15  22
ATOM     21  N   UNL     1      -2.032  11.902  23.498  0.00  0.00    +0.000 NA
ATOM     22  C   UNL     1      -1.355  11.342  22.740  0.00  0.00    +0.000 C 
ENDBRANCH  15  22
ENDBRANCH   1  18
TORSDOF 4
ENDMDL
MODEL 2
REMARK VINA RESULT:      -7.1      1.886      2.317
REMARK  Name = 
REMARK  4 active torsions:
REMARK  status: ('A' for Active; 'I' for Inactive)
REMARK    1  A    between atoms: C_2  and  C_3
REMARK    2  A    between atoms: C_6  and  C_7
REMARK    3  A    between atoms: C_10  and  C_11
REMARK    4  A    between atoms: C_16  and  C_17
REMARK                            x       y       z     vdW  Elec       q    Type
REMARK                         _______ _______ _______ _____ _____    ______ ____
ROOT
ATOM      1  C   UNL     1       1.591   9.003  18.950  0.00  0.00    +0.000 A 
ATOM      2  N   UNL     1       1.842   9.544  17.742  0.00  0.00    +0.000 NA
ATOM      3  O   UNL     1       2.669   8.607  17.124  0.00  0.00    +0.000 OA
ATOM      4  C   UNL     1       2.836   7.587  18.015  0.00  0.00    +0.000 A 
ATOM      5  N   UNL     1       2.187   7.773  19.138  0.00  0.00    +0.000 NA
ENDROOT
BRANCH   4   6
ATOM      6  C   UNL     1       3.749   6.512  17.652  0.00  0.00    +0.000 A 
ATOM      7  C   UNL     1       5.046   6.756  17.190  0.00  0.00    +0.000 A 
ATOM      8  C   UNL     1       5.907   5.689  16.946  0.00  0.00    +0.000 A 
ATOM      9  F   UNL     1       7.154   5.937  16.528  0.00  0.00    +0.000 F 
ATOM     10  C   UNL     1       5.507   4.374  17.151  0.00  0.00    +0.000 A 
ATOM     11  C   UNL     1       4.209   4.115  17.592  0.00  0.00    +0.000 A 
ATOM     12  C   UNL     1       3.332   5.180  17.828  0.00  0.00    +0.000 A 
BRANCH  11  13
ATOM     13  C   UNL     1       3.785   2.770  17.840  0.00  0.00    +0.000 C 
ATOM     14  N   UNL     1       3.427   1.684  18.046  0.00  0.00    +0.000 NA
ENDBRANCH  11  13
ENDBRANCH   4   6
BRANCH   1  18
ATOM     15  C   UNL     1      -0.781  10.919  21.867  0.00  0.00    +0.000 A 
ATOM     16  C   UNL     1      -0.108   9.751  22.218  0.00  0.00    +0.000 A 
ATOM     17  C   UNL     1       0.695   9.111  21.272  0.00  0.00    +0.000 A 
ATOM     18  C   UNL     1       0.802   9.659  19.995  0.00  0.00    +0.000 A 
ATOM     19  N   UNL     1       0.157  10.806  19.645  0.00  0.00    +0.000 NA
ATOM     20  C   UNL     1      -0.614  11.407  20.581  0.00  0.00    +0.000 A 
BRANCH  15  22
ATOM     21  N   UNL     1      -2.312  12.152  23.549  0.00  0.00    +0.000 NA
ATOM     22  C   UNL     1      -1.628  11.597  22.795  0.00  0.00    +0.000 C 
ENDBRANCH  15  22
ENDBRANCH   1  18
TORSDOF 4
ENDMDL
MODEL 3
REMARK VINA RESULT:      -7.1      1.249      1.539
REMARK  Name = 
REMARK  4 active torsions:
REMARK  status: ('A' for Active; 'I' for Inactive)
REMARK    1  A    between atoms: C_2  and  C_3
REMARK    2  A    between atoms: C_6  and  C_7
REMARK    3  A    between atoms: C_10  and  C_11
REMARK    4  A    between atoms: C_16  and  C_17
REMARK                            x       y       z     vdW  Elec       q    Type
REMARK                         _______ _______ _______ _____ _____    ______ ____
ROOT
ATOM      1  C   UNL     1       1.607   9.157  18.843  0.00  0.00    +0.000 A 
ATOM      2  N   UNL     1       2.078   9.487  17.625  0.00  0.00    +0.000 NA
ATOM      3  O   UNL     1       2.660   8.307  17.164  0.00  0.00    +0.000 OA
ATOM      4  C   UNL     1       2.483   7.375  18.145  0.00  0.00    +0.000 A 
ATOM      5  N   UNL     1       1.833   7.839  19.184  0.00  0.00    +0.000 NA
ENDROOT
BRANCH   4   6
ATOM      6  C   UNL     1       3.092   6.067  17.955  0.00  0.00    +0.000 A 
ATOM      7  C   UNL     1       2.333   4.900  17.821  0.00  0.00    +0.000 A 
ATOM      8  C   UNL     1       2.965   3.690  17.549  0.00  0.00    +0.000 A 
ATOM      9  F   UNL     1       2.225   2.585  17.396  0.00  0.00    +0.000 F 
ATOM     10  C   UNL     1       4.346   3.609  17.407  0.00  0.00    +0.000 A 
ATOM     11  C   UNL     1       5.117   4.761  17.560  0.00  0.00    +0.000 A 
ATOM     12  C   UNL     1       4.492   5.980  17.845  0.00  0.00    +0.000 A 
BRANCH  11  13
ATOM     13  C   UNL     1       6.537   4.708  17.388  0.00  0.00    +0.000 C 
ATOM     14  N   UNL     1       7.689   4.650  17.252  0.00  0.00    +0.000 NA
ENDBRANCH  11  13
ENDBRANCH   4   6
BRANCH   1  18
ATOM     15  C   UNL     1      -0.223  11.802  21.575  0.00  0.00    +0.000 A 
ATOM     16  C   UNL     1       0.411  12.335  20.455  0.00  0.00    +0.000 A 
ATOM     17  C   UNL     1       1.008  11.476  19.531  0.00  0.00    +0.000 A 
ATOM     18  C   UNL     1       0.955  10.101  19.755  0.00  0.00    +0.000 A 
ATOM     19  N   UNL     1       0.330   9.569  20.840  0.00  0.00    +0.000 NA
ATOM     20  C   UNL     1      -0.241  10.424  21.720  0.00  0.00    +0.000 A 
BRANCH  15  22
ATOM     21  N   UNL     1      -1.326  13.321  23.356  0.00  0.00    +0.000 NA
ATOM     22  C   UNL     1      -0.829  12.643  22.557  0.00  0.00    +0.000 C 
ENDBRANCH  15  22
ENDBRANCH   1  18
TORSDOF 4
ENDMDL
MODEL 4
REMARK VINA RESULT:      -7.0      1.390      1.421
REMARK  Name = 
REMARK  4 active torsions:
REMARK  status: ('A' for Active; 'I' for Inactive)
REMARK    1  A    between atoms: C_2  and  C_3
REMARK    2  A    between atoms: C_6  and  C_7
REMARK    3  A    between atoms: C_10  and  C_11
REMARK    4  A    between atoms: C_16  and  C_17
REMARK                            x       y       z     vdW  Elec       q    Type
REMARK                         _______ _______ _______ _____ _____    ______ ____
ROOT
ATOM      1  C   UNL     1       1.535   9.032  19.258  0.00  0.00    +0.000 A 
ATOM      2  N   UNL     1       1.950   9.412  18.035  0.00  0.00    +0.000 NA
ATOM      3  O   UNL     1       2.543   8.262  17.515  0.00  0.00    +0.000 OA
ATOM      4  C   UNL     1       2.428   7.296  18.472  0.00  0.00    +0.000 A 
ATOM      5  N   UNL     1       1.807   7.711  19.548  0.00  0.00    +0.000 NA
ENDROOT
BRANCH   4   6
ATOM      6  C   UNL     1       3.062   6.011  18.218  0.00  0.00    +0.000 A 
ATOM      7  C   UNL     1       2.337   4.885  17.815  0.00  0.00    +0.000 A 
ATOM      8  C   UNL     1       3.007   3.707  17.497  0.00  0.00    +0.000 A 
ATOM      9  F   UNL     1       2.304   2.644  17.088  0.00  0.00    +0.000 F 
ATOM     10  C   UNL     1       4.392   3.618  17.571  0.00  0.00    +0.000 A 
ATOM     11  C   UNL     1       5.127   4.727  17.992  0.00  0.00    +0.000 A 
ATOM     12  C   UNL     1       4.461   5.912  18.325  0.00  0.00    +0.000 A 
BRANCH  11  13
ATOM     13  C   UNL     1       6.556   4.669  18.046  0.00  0.00    +0.000 C 
ATOM     14  N   UNL     1       7.715   4.608  18.095  0.00  0.00    +0.000 NA
ENDBRANCH  11  13
ENDBRANCH   4   6
BRANCH   1  18
ATOM     15  C   UNL     1      -0.349  11.699  21.933  0.00  0.00    +0.000 A 
ATOM     16  C   UNL     1      -0.468  10.331  22.162  0.00  0.00    +0.000 A 
ATOM     17  C   UNL     1       0.160   9.432  21.298  0.00  0.00    +0.000 A 
ATOM     18  C   UNL     1       0.895   9.930  20.223  0.00  0.00    +0.000 A 
ATOM     19  N   UNL     1       1.028  11.265  19.996  0.00  0.00    +0.000 NA
ATOM     20  C   UNL     1       0.408  12.115  20.849  0.00  0.00    +0.000 A 
BRANCH  15  22
ATOM     21  N   UNL     1      -1.509  13.435  23.460  0.00  0.00    +0.000 NA
ATOM     22  C   UNL     1      -0.991  12.654  22.777  0.00  0.00    +0.000 C 
ENDBRANCH  15  22
ENDBRANCH   1  18
TORSDOF 4
ENDMDL
MODEL 5
REMARK VINA RESULT:      -7.0      5.452      6.637
REMARK  Name = 
REMARK  4 active torsions:
REMARK  status: ('A' for Active; 'I' for Inactive)
REMARK    1  A    between atoms: C_2  and  C_3
REMARK    2  A    between atoms: C_6  and  C_7
REMARK    3  A    between atoms: C_10  and  C_11
REMARK    4  A    between atoms: C_16  and  C_17
REMARK                            x       y       z     vdW  Elec       q    Type
REMARK                         _______ _______ _______ _____ _____    ______ ____
ROOT
ATOM      1  C   UNL     1       5.247   4.225  17.725  0.00  0.00    +0.000 A 
ATOM      2  N   UNL     1       6.492   4.646  18.018  0.00  0.00    +0.000 NA
ATOM      3  O   UNL     1       7.087   4.817  16.768  0.00  0.00    +0.000 OA
ATOM      4  C   UNL     1       6.144   4.486  15.839  0.00  0.00    +0.000 A 
ATOM      5  N   UNL     1       5.000   4.133  16.371  0.00  0.00    +0.000 NA
ENDROOT
BRANCH   4   6
ATOM      6  C   UNL     1       6.543   4.483  14.440  0.00  0.00    +0.000 A 
ATOM      7  C   UNL     1       7.356   5.480  13.890  0.00  0.00    +0.000 A 
ATOM      8  C   UNL     1       7.783   5.376  12.570  0.00  0.00    +0.000 A 
ATOM      9  F   UNL     1       8.582   6.324  12.064  0.00  0.00    +0.000 F 
ATOM     10  C   UNL     1       7.418   4.298  11.772  0.00  0.00    +0.000 A 
ATOM     11  C   UNL     1       6.591   3.307  12.300  0.00  0.00    +0.000 A 
ATOM     12  C   UNL     1       6.146   3.408  13.623  0.00  0.00    +0.000 A 
BRANCH  11  13
ATOM     13  C   UNL     1       6.228   2.171  11.508  0.00  0.00    +0.000 C 
ATOM     14  N   UNL     1       5.928   1.259  10.854  0.00  0.00    +0.000 NA
ENDBRANCH  11  13
ENDBRANCH   4   6
BRANCH   1  18
ATOM     15  C   UNL     1       2.475   3.124  20.711  0.00  0.00    +0.000 A 
ATOM     16  C   UNL     1       2.181   4.218  19.900  0.00  0.00    +0.000 A 
ATOM     17  C   UNL     1       3.078   4.589  18.896  0.00  0.00    +0.000 A 
ATOM     18  C   UNL     1       4.249   3.851  18.731  0.00  0.00    +0.000 A 
ATOM     19  N   UNL     1       4.541   2.774  19.510  0.00  0.00    +0.000 NA
ATOM     20  C   UNL     1       3.655   2.436  20.476  0.00  0.00    +0.000 A 
BRANCH  15  22
ATOM     21  N   UNL     1       0.889   2.388  22.618  0.00  0.00    +0.000 NA
ATOM     22  C   UNL     1       1.599   2.721  21.763  0.00  0.00    +0.000 C 
ENDBRANCH  15  22
ENDBRANCH   1  18
TORSDOF 4
ENDMDL
MODEL 6
REMARK VINA RESULT:      -7.0      2.834      8.446
REMARK  Name = 
REMARK  4 active torsions:
REMARK  status: ('A' for Active; 'I' for Inactive)
REMARK    1  A    between atoms: C_2  and  C_3
REMARK    2  A    between atoms: C_6  and  C_7
REMARK    3  A    between atoms: C_10  and  C_11
REMARK    4  A    between atoms: C_16  and  C_17
REMARK                            x       y       z     vdW  Elec       q    Type
REMARK                         _______ _______ _______ _____ _____    ______ ____
ROOT
ATOM      1  C   UNL     1       3.069   6.236  18.740  0.00  0.00    +0.000 A 
ATOM      2  N   UNL     1       2.855   5.509  19.853  0.00  0.00    +0.000 NA
ATOM      3  O   UNL     1       2.066   6.342  20.647  0.00  0.00    +0.000 OA
ATOM      4  C   UNL     1       1.876   7.491  19.936  0.00  0.00    +0.000 A 
ATOM      5  N   UNL     1       2.454   7.471  18.760  0.00  0.00    +0.000 NA
ENDROOT
BRANCH   4   6
ATOM      6  C   UNL     1       1.161   8.579  20.586  0.00  0.00    +0.000 A 
ATOM      7  C   UNL     1       0.851   8.562  21.950  0.00  0.00    +0.000 A 
ATOM      8  C   UNL     1       0.248   9.671  22.538  0.00  0.00    +0.000 A 
ATOM      9  F   UNL     1      -0.019   9.652  23.849  0.00  0.00    +0.000 F 
ATOM     10  C   UNL     1      -0.060  10.806  21.797  0.00  0.00    +0.000 A 
ATOM     11  C   UNL     1       0.224  10.829  20.432  0.00  0.00    +0.000 A 
ATOM     12  C   UNL     1       0.820   9.715  19.829  0.00  0.00    +0.000 A 
BRANCH  11  13
ATOM     13  C   UNL     1      -0.054  11.999  19.655  0.00  0.00    +0.000 C 
ATOM     14  N   UNL     1      -0.266  12.949  19.022  0.00  0.00    +0.000 NA
ENDBRANCH  11  13
ENDBRANCH   4   6
BRANCH   1  18
ATOM     15  C   UNL     1       5.388   4.877  15.486  0.00  0.00    +0.000 A 
ATOM     16  C   UNL     1       5.316   6.247  15.727  0.00  0.00    +0.000 A 
ATOM     17  C   UNL     1       4.567   6.716  16.808  0.00  0.00    +0.000 A 
ATOM     18  C   UNL     1       3.907   5.796  17.622  0.00  0.00    +0.000 A 
ATOM     19  N   UNL     1       3.979   4.455  17.402  0.00  0.00    +0.000 NA
ATOM     20  C   UNL     1       4.712   4.028  16.347  0.00  0.00    +0.000 A 
BRANCH  15  22
ATOM     21  N   UNL     1       6.717   3.928  13.479  0.00  0.00    +0.000 NA
ATOM     22  C   UNL     1       6.124   4.354  14.381  0.00  0.00    +0.000 C 
ENDBRANCH  15  22
ENDBRANCH   1  18
TORSDOF 4
ENDMDL
MODEL 7
REMARK VINA RESULT:      -7.0      1.929      2.131
REMARK  Name = 
REMARK  4 active torsions:
REMARK  status: ('A' for Active; 'I' for Inactive)
REMARK    1  A    between atoms: C_2  and  C_3
REMARK    2  A    between atoms: C_6  and  C_7
REMARK    3  A    between atoms: C_10  and  C_11
REMARK    4  A    between atoms: C_16  and  C_17
REMARK                            x       y       z     vdW  Elec       q    Type
REMARK                         _______ _______ _______ _____ _____    ______ ____
ROOT
ATOM      1  C   UNL     1       1.159   8.676  20.292  0.00  0.00    +0.000 A 
ATOM      2  N   UNL     1       1.653   8.958  19.071  0.00  0.00    +0.000 NA
ATOM      3  O   UNL     1       2.375   7.813  18.733  0.00  0.00    +0.000 OA
ATOM      4  C   UNL     1       2.245   6.947  19.780  0.00  0.00    +0.000 A 
ATOM      5  N   UNL     1       1.501   7.420  20.749  0.00  0.00    +0.000 NA
ENDROOT
BRANCH   4   6
ATOM      6  C   UNL     1       2.993   5.700  19.725  0.00  0.00    +0.000 A 
ATOM      7  C   UNL     1       2.427   4.471  20.081  0.00  0.00    +0.000 A 
ATOM      8  C   UNL     1       3.159   3.298  19.920  0.00  0.00    +0.000 A 
ATOM      9  F   UNL     1       2.596   2.127  20.241  0.00  0.00    +0.000 F 
ATOM     10  C   UNL     1       4.452   3.315  19.411  0.00  0.00    +0.000 A 
ATOM     11  C   UNL     1       5.037   4.535  19.072  0.00  0.00    +0.000 A 
ATOM     12  C   UNL     1       4.313   5.721  19.241  0.00  0.00    +0.000 A 
BRANCH  11  13
ATOM     13  C   UNL     1       6.356   4.574  18.516  0.00  0.00    +0.000 C 
ATOM     14  N   UNL     1       7.428   4.593  18.071  0.00  0.00    +0.000 NA
ENDBRANCH  11  13
ENDBRANCH   4   6
BRANCH   1  18
ATOM     15  C   UNL     1      -1.193  11.402  22.495  0.00  0.00    +0.000 A 
ATOM     16  C   UNL     1      -0.770  10.231  23.119  0.00  0.00    +0.000 A 
ATOM     17  C   UNL     1       0.022   9.323  22.412  0.00  0.00    +0.000 A 
ATOM     18  C   UNL     1       0.371   9.615  21.095  0.00  0.00    +0.000 A 
ATOM     19  N   UNL     1      -0.027  10.761  20.479  0.00  0.00    +0.000 NA
ATOM     20  C   UNL     1      -0.794  11.623  21.186  0.00  0.00    +0.000 A 
BRANCH  15  22
ATOM     21  N   UNL     1      -2.688  13.118  23.725  0.00  0.00    +0.000 NA
ATOM     22  C   UNL     1      -2.020  12.348  23.170  0.00  0.00    +0.000 C 
ENDBRANCH  15  22
ENDBRANCH   1  18
TORSDOF 4
ENDMDL
MODEL 8
REMARK VINA RESULT:      -6.9      3.278      4.830
REMARK  Name = 
REMARK  4 active torsions:
REMARK  status: ('A' for Active; 'I' for Inactive)
REMARK    1  A    between atoms: C_2  and  C_3
REMARK    2  A    between atoms: C_6  and  C_7
REMARK    3  A    between atoms: C_10  and  C_11
REMARK    4  A    between atoms: C_16  and  C_17
REMARK                            x       y       z     vdW  Elec       q    Type
REMARK                         _______ _______ _______ _____ _____    ______ ____
ROOT
ATOM      1  C   UNL     1       4.035   5.333  17.569  0.00  0.00    +0.000 A 
ATOM      2  N   UNL     1       4.221   4.011  17.751  0.00  0.00    +0.000 NA
ATOM      3  O   UNL     1       5.007   3.634  16.662  0.00  0.00    +0.000 OA
ATOM      4  C   UNL     1       5.225   4.764  15.928  0.00  0.00    +0.000 A 
ATOM      5  N   UNL     1       4.666   5.829  16.446  0.00  0.00    +0.000 NA
ENDROOT
BRANCH   4   6
ATOM      6  C   UNL     1       5.943   4.626  14.670  0.00  0.00    +0.000 A 
ATOM      7  C   UNL     1       7.060   5.407  14.356  0.00  0.00    +0.000 A 
ATOM      8  C   UNL     1       7.764   5.169  13.179  0.00  0.00    +0.000 A 
ATOM      9  F   UNL     1       8.847   5.906  12.904  0.00  0.00    +0.000 F 
ATOM     10  C   UNL     1       7.382   4.166  12.296  0.00  0.00    +0.000 A 
ATOM     11  C   UNL     1       6.257   3.394  12.585  0.00  0.00    +0.000 A 
ATOM     12  C   UNL     1       5.535   3.633  13.760  0.00  0.00    +0.000 A 
BRANCH  11  13
ATOM     13  C   UNL     1       5.862   2.335  11.706  0.00  0.00    +0.000 C 
ATOM     14  N   UNL     1       5.555   1.469  10.995  0.00  0.00    +0.000 NA
ENDBRANCH  11  13
ENDBRANCH   4   6
BRANCH   1  18
ATOM     15  C   UNL     1       1.732   7.710  20.186  0.00  0.00    +0.000 A 
ATOM     16  C   UNL     1       2.108   8.246  18.957  0.00  0.00    +0.000 A 
ATOM     17  C   UNL     1       2.857   7.470  18.070  0.00  0.00    +0.000 A 
ATOM     18  C   UNL     1       3.210   6.173  18.440  0.00  0.00    +0.000 A 
ATOM     19  N   UNL     1       2.838   5.636  19.633  0.00  0.00    +0.000 NA
ATOM     20  C   UNL     1       2.113   6.409  20.474  0.00  0.00    +0.000 A 
BRANCH  15  22
ATOM     21  N   UNL     1       0.371   9.094  21.897  0.00  0.00    +0.000 NA
ATOM     22  C   UNL     1       0.984   8.473  21.133  0.00  0.00    +0.000 C 
ENDBRANCH  15  22
ENDBRANCH   1  18
TORSDOF 4
ENDMDL
MODEL 9
REMARK VINA RESULT:      -6.9      1.983      2.550
REMARK  Name = 
REMARK  4 active torsions:
REMARK  status: ('A' for Active; 'I' for Inactive)
REMARK    1  A    between atoms: C_2  and  C_3
REMARK    2  A    between atoms: C_6  and  C_7
REMARK    3  A    between atoms: C_10  and  C_11
REMARK    4  A    between atoms: C_16  and  C_17
REMARK                            x       y       z     vdW  Elec       q    Type
REMARK                         _______ _______ _______ _____ _____    ______ ____
ROOT
ATOM      1  C   UNL     1       1.575   9.043  18.787  0.00  0.00    +0.000 A 
ATOM      2  N   UNL     1       1.930   9.572  17.600  0.00  0.00    +0.000 NA
ATOM      3  O   UNL     1       2.787   8.617  17.055  0.00  0.00    +0.000 OA
ATOM      4  C   UNL     1       2.867   7.601  17.962  0.00  0.00    +0.000 A 
ATOM      5  N   UNL     1       2.134   7.805  19.028  0.00  0.00    +0.000 NA
ENDROOT
BRANCH   4   6
ATOM      6  C   UNL     1       3.787   6.509  17.678  0.00  0.00    +0.000 A 
ATOM      7  C   UNL     1       5.117   6.729  17.305  0.00  0.00    +0.000 A 
ATOM      8  C   UNL     1       5.977   5.648  17.136  0.00  0.00    +0.000 A 
ATOM      9  F   UNL     1       7.254   5.873  16.805  0.00  0.00    +0.000 F 
ATOM     10  C   UNL     1       5.545   4.341  17.329  0.00  0.00    +0.000 A 
ATOM     11  C   UNL     1       4.215   4.105  17.680  0.00  0.00    +0.000 A 
ATOM     12  C   UNL     1       3.340   5.185  17.840  0.00  0.00    +0.000 A 
BRANCH  11  13
ATOM     13  C   UNL     1       3.756   2.770  17.914  0.00  0.00    +0.000 C 
ATOM     14  N   UNL     1       3.375   1.691  18.116  0.00  0.00    +0.000 NA
ENDBRANCH  11  13
ENDBRANCH   4   6
BRANCH   1  18
ATOM     15  C   UNL     1      -0.789  11.003  21.682  0.00  0.00    +0.000 A 
ATOM     16  C   UNL     1      -0.977  11.324  20.340  0.00  0.00    +0.000 A 
ATOM     17  C   UNL     1      -0.216  10.675  19.365  0.00  0.00    +0.000 A 
ATOM     18  C   UNL     1       0.717   9.719  19.763  0.00  0.00    +0.000 A 
ATOM     19  N   UNL     1       0.901   9.390  21.070  0.00  0.00    +0.000 NA
ATOM     20  C   UNL     1       0.151  10.033  21.995  0.00  0.00    +0.000 A 
BRANCH  15  22
ATOM     21  N   UNL     1      -2.126  12.181  23.557  0.00  0.00    +0.000 NA
ATOM     22  C   UNL     1      -1.529  11.655  22.714  0.00  0.00    +0.000 C 
ENDBRANCH  15  22
ENDBRANCH   1  18
TORSDOF 4
ENDMDL
