MODEL 1
REMARK VINA RESULT:      -9.7      0.000      0.000
REMARK  Name = 
REMARK  14 active torsions:
REMARK  status: ('A' for Active; 'I' for Inactive)
REMARK    1  A    between atoms: C_1  and  O_2
REMARK    2  A    between atoms: O_2  and  C_3
REMARK    3  A    between atoms: C_5  and  C_6
REMARK    4  A    between atoms: C_7  and  C_8
REMARK    5  A    between atoms: C_8  and  C_10
REMARK    6  A    between atoms: C_10  and  C_11
REMARK    7  A    between atoms: C_10  and  C_24
REMARK    8  A    between atoms: C_11  and  C_13
REMARK    9  A    between atoms: C_14  and  C_15
REMARK   10  A    between atoms: C_18  and  O_19
REMARK   11  A    between atoms: C_20  and  O_21
REMARK   12  A    between atoms: O_21  and  C_22
REMARK   13  A    between atoms: N_26  and  C_27
REMARK   14  A    between atoms: C_35  and  O_36
REMARK                            x       y       z     vdW  Elec       q    Type
REMARK                         _______ _______ _______ _____ _____    ______ ____
ROOT
ATOM      1  C   UNL     1       7.843   6.046  18.089  0.00  0.00    +0.000 C 
ENDROOT
BRANCH   1   2
ATOM      2  C   UNL     1       7.683   5.184  16.840  0.00  0.00    +0.000 C 
ATOM      3  O   UNL     1       8.048   4.008  16.893  0.00  0.00    +0.000 OA
ATOM      4  N   UNL     1       7.116   5.770  15.708  0.00  0.00    +0.000 N 
ATOM      5  H   UNL     1       7.173   6.787  15.628  0.00  0.00    +0.000 HD
BRANCH   4   6
ATOM      6  C   UNL     1       6.769   5.052  14.528  0.00  0.00    +0.000 A 
ATOM      7  C   UNL     1       5.570   4.336  14.444  0.00  0.00    +0.000 A 
ATOM      8  C   UNL     1       5.211   3.633  13.294  0.00  0.00    +0.000 A 
ATOM      9  C   UNL     1       6.049   3.648  12.193  0.00  0.00    +0.000 A 
ATOM     10  C   UNL     1       7.249   4.354  12.246  0.00  0.00    +0.000 A 
ATOM     11  C   UNL     1       7.611   5.057  13.411  0.00  0.00    +0.000 A 
ENDBRANCH   4   6
ENDBRANCH   1   2
BRANCH   1  12
ATOM     12  C   UNL     1       7.553   7.519  17.768  0.00  0.00    +0.000 C 
ATOM     13  O   UNL     1       6.564   7.850  17.116  0.00  0.00    +0.000 OA
BRANCH  12  15
ATOM     14  C   UNL     1       8.362   9.862  17.913  0.00  0.00    +0.000 C 
ATOM     15  C   UNL     1       8.506   8.571  18.262  0.00  0.00    +0.000 C 
BRANCH  14  18
ATOM     16  C   UNL     1       9.813  13.336  18.504  0.00  0.00    +0.000 A 
ATOM     17  C   UNL     1       9.125  12.251  17.921  0.00  0.00    +0.000 A 
ATOM     18  C   UNL     1       9.153  10.968  18.491  0.00  0.00    +0.000 A 
ATOM     19  C   UNL     1       9.869  10.791  19.682  0.00  0.00    +0.000 A 
ATOM     20  C   UNL     1      10.557  11.855  20.270  0.00  0.00    +0.000 A 
ATOM     21  C   UNL     1      10.532  13.120  19.683  0.00  0.00    +0.000 A 
BRANCH  16  23
ATOM     22  C   UNL     1       8.600  15.371  18.169  0.00  0.00    +0.000 C 
ATOM     23  O   UNL     1       9.678  14.513  17.810  0.00  0.00    +0.000 OA
ENDBRANCH  16  23
BRANCH  21  24
ATOM     24  O   UNL     1      11.221  14.122  20.311  0.00  0.00    +0.000 OA
ATOM     25  H   UNL     1      10.994  14.973  19.902  0.00  0.00    +0.000 HD
ENDBRANCH  21  24
ENDBRANCH  14  18
ENDBRANCH  12  15
ENDBRANCH   1  12
BRANCH   1  26
ATOM     26  C   UNL     1       7.099   5.504  19.292  0.00  0.00    +0.000 C 
ATOM     27  O   UNL     1       7.606   5.509  20.403  0.00  0.00    +0.000 OA
BRANCH  26  28
ATOM     28  C   UNL     1       5.680   5.069  19.133  0.00  0.00    +0.000 C 
ATOM     29  C   UNL     1       5.296   3.787  19.267  0.00  0.00    +0.000 C 
BRANCH  29  30
ATOM     30  C   UNL     1       3.912   3.333  19.025  0.00  0.00    +0.000 A 
ATOM     31  C   UNL     1       3.528   2.928  17.743  0.00  0.00    +0.000 A 
ATOM     32  C   UNL     1       2.211   2.529  17.488  0.00  0.00    +0.000 A 
ATOM     33  C   UNL     1       1.263   2.506  18.511  0.00  0.00    +0.000 A 
ATOM     34  C   UNL     1       1.633   2.871  19.812  0.00  0.00    +0.000 A 
ATOM     35  C   UNL     1       2.956   3.280  20.049  0.00  0.00    +0.000 A 
BRANCH  33  36
ATOM     36  O   UNL     1      -0.011   2.122  18.214  0.00  0.00    +0.000 OA
ATOM     37  H   UNL     1      -0.010   1.194  17.927  0.00  0.00    +0.000 HD
ENDBRANCH  33  36
BRANCH  34  38
ATOM     38  O   UNL     1       0.857   2.886  20.941  0.00  0.00    +0.000 OA
ATOM     39  C   UNL     1       1.461   2.513  22.172  0.00  0.00    +0.000 C 
ENDBRANCH  34  38
ENDBRANCH  29  30
ENDBRANCH  26  28
ENDBRANCH   1  26
TORSDOF 12
ENDMDL
MODEL 2
REMARK VINA RESULT:      -9.4      0.803      1.420
REMARK  Name = 
REMARK  14 active torsions:
REMARK  status: ('A' for Active; 'I' for Inactive)
REMARK    1  A    between atoms: C_1  and  O_2
REMARK    2  A    between atoms: O_2  and  C_3
REMARK    3  A    between atoms: C_5  and  C_6
REMARK    4  A    between atoms: C_7  and  C_8
REMARK    5  A    between atoms: C_8  and  C_10
REMARK    6  A    between atoms: C_10  and  C_11
REMARK    7  A    between atoms: C_10  and  C_24
REMARK    8  A    between atoms: C_11  and  C_13
REMARK    9  A    between atoms: C_14  and  C_15
REMARK   10  A    between atoms: C_18  and  O_19
REMARK   11  A    between atoms: C_20  and  O_21
REMARK   12  A    between atoms: O_21  and  C_22
REMARK   13  A    between atoms: N_26  and  C_27
REMARK   14  A    between atoms: C_35  and  O_36
REMARK                            x       y       z     vdW  Elec       q    Type
REMARK                         _______ _______ _______ _____ _____    ______ ____
ROOT
ATOM      1  C   UNL     1       7.867   6.135  18.080  0.00  0.00    +0.000 C 
ENDROOT
BRANCH   1   2
ATOM      2  C   UNL     1       7.730   5.253  16.842  0.00  0.00    +0.000 C 
ATOM      3  O   UNL     1       8.087   4.075  16.924  0.00  0.00    +0.000 OA
ATOM      4  N   UNL     1       7.190   5.821  15.689  0.00  0.00    +0.000 N 
ATOM      5  H   UNL     1       7.254   6.836  15.593  0.00  0.00    +0.000 HD
BRANCH   4   6
ATOM      6  C   UNL     1       6.866   5.084  14.515  0.00  0.00    +0.000 A 
ATOM      7  C   UNL     1       5.716   4.288  14.455  0.00  0.00    +0.000 A 
ATOM      8  C   UNL     1       5.379   3.565  13.310  0.00  0.00    +0.000 A 
ATOM      9  C   UNL     1       6.188   3.640  12.191  0.00  0.00    +0.000 A 
ATOM     10  C   UNL     1       7.338   4.427  12.219  0.00  0.00    +0.000 A 
ATOM     11  C   UNL     1       7.679   5.150  13.378  0.00  0.00    +0.000 A 
ENDBRANCH   4   6
ENDBRANCH   1   2
BRANCH   1  12
ATOM     12  C   UNL     1       7.525   7.593  17.742  0.00  0.00    +0.000 C 
ATOM     13  O   UNL     1       6.679   7.873  16.894  0.00  0.00    +0.000 OA
BRANCH  12  15
ATOM     14  C   UNL     1       8.820   9.711  17.795  0.00  0.00    +0.000 C 
ATOM     15  C   UNL     1       8.247   8.695  18.465  0.00  0.00    +0.000 C 
BRANCH  14  18
ATOM     16  C   UNL     1       9.925  12.181  20.479  0.00  0.00    +0.000 A 
ATOM     17  C   UNL     1       9.314  11.085  19.835  0.00  0.00    +0.000 A 
ATOM     18  C   UNL     1       9.396  10.907  18.444  0.00  0.00    +0.000 A 
ATOM     19  C   UNL     1      10.129  11.843  17.702  0.00  0.00    +0.000 A 
ATOM     20  C   UNL     1      10.737  12.935  18.326  0.00  0.00    +0.000 A 
ATOM     21  C   UNL     1      10.633  13.106  19.706  0.00  0.00    +0.000 A 
BRANCH  16  23
ATOM     22  C   UNL     1       8.448  11.847  22.331  0.00  0.00    +0.000 C 
ATOM     23  O   UNL     1       9.738  12.196  21.839  0.00  0.00    +0.000 OA
ENDBRANCH  16  23
BRANCH  21  24
ATOM     24  O   UNL     1      11.257  14.191  20.258  0.00  0.00    +0.000 OA
ATOM     25  H   UNL     1      11.879  13.893  20.939  0.00  0.00    +0.000 HD
ENDBRANCH  21  24
ENDBRANCH  14  18
ENDBRANCH  12  15
ENDBRANCH   1  12
BRANCH   1  26
ATOM     26  C   UNL     1       7.148   5.584  19.294  0.00  0.00    +0.000 C 
ATOM     27  O   UNL     1       7.668   5.604  20.399  0.00  0.00    +0.000 OA
BRANCH  26  28
ATOM     28  C   UNL     1       5.737   5.119  19.153  0.00  0.00    +0.000 C 
ATOM     29  C   UNL     1       5.388   3.823  19.247  0.00  0.00    +0.000 C 
BRANCH  29  30
ATOM     30  C   UNL     1       4.009   3.344  19.021  0.00  0.00    +0.000 A 
ATOM     31  C   UNL     1       3.640   2.856  17.764  0.00  0.00    +0.000 A 
ATOM     32  C   UNL     1       2.329   2.432  17.523  0.00  0.00    +0.000 A 
ATOM     33  C   UNL     1       1.371   2.465  18.538  0.00  0.00    +0.000 A 
ATOM     34  C   UNL     1       1.726   2.914  19.816  0.00  0.00    +0.000 A 
ATOM     35  C   UNL     1       3.044   3.347  20.039  0.00  0.00    +0.000 A 
BRANCH  33  36
ATOM     36  O   UNL     1       0.103   2.054  18.254  0.00  0.00    +0.000 OA
ATOM     37  H   UNL     1      -0.461   2.830  18.098  0.00  0.00    +0.000 HD
ENDBRANCH  33  36
BRANCH  34  38
ATOM     38  O   UNL     1       0.941   2.994  20.935  0.00  0.00    +0.000 OA
ATOM     39  C   UNL     1       1.503   2.594  22.178  0.00  0.00    +0.000 C 
ENDBRANCH  34  38
ENDBRANCH  29  30
ENDBRANCH  26  28
ENDBRANCH   1  26
TORSDOF 12
ENDMDL
MODEL 3
REMARK VINA RESULT:      -8.5      3.147      3.892
REMARK  Name = 
REMARK  14 active torsions:
REMARK  status: ('A' for Active; 'I' for Inactive)
REMARK    1  A    between atoms: C_1  and  O_2
REMARK    2  A    between atoms: O_2  and  C_3
REMARK    3  A    between atoms: C_5  and  C_6
REMARK    4  A    between atoms: C_7  and  C_8
REMARK    5  A    between atoms: C_8  and  C_10
REMARK    6  A    between atoms: C_10  and  C_11
REMARK    7  A    between atoms: C_10  and  C_24
REMARK    8  A    between atoms: C_11  and  C_13
REMARK    9  A    between atoms: C_14  and  C_15
REMARK   10  A    between atoms: C_18  and  O_19
REMARK   11  A    between atoms: C_20  and  O_21
REMARK   12  A    between atoms: O_21  and  C_22
REMARK   13  A    between atoms: N_26  and  C_27
REMARK   14  A    between atoms: C_35  and  O_36
REMARK                            x       y       z     vdW  Elec       q    Type
REMARK                         _______ _______ _______ _____ _____    ______ ____
ROOT
ATOM      1  C   UNL     1       6.781   5.747  17.712  0.00  0.00    +0.000 C 
ENDROOT
BRANCH   1   2
ATOM      2  C   UNL     1       7.122   5.035  16.406  0.00  0.00    +0.000 C 
ATOM      3  O   UNL     1       7.956   4.127  16.439  0.00  0.00    +0.000 OA
ATOM      4  N   UNL     1       6.460   5.438  15.247  0.00  0.00    +0.000 N 
ATOM      5  H   UNL     1       6.076   6.385  15.232  0.00  0.00    +0.000 HD
BRANCH   4   6
ATOM      6  C   UNL     1       6.566   4.769  13.995  0.00  0.00    +0.000 A 
ATOM      7  C   UNL     1       7.568   5.105  13.078  0.00  0.00    +0.000 A 
ATOM      8  C   UNL     1       7.691   4.455  11.849  0.00  0.00    +0.000 A 
ATOM      9  C   UNL     1       6.813   3.437  11.523  0.00  0.00    +0.000 A 
ATOM     10  C   UNL     1       5.806   3.078  12.418  0.00  0.00    +0.000 A 
ATOM     11  C   UNL     1       5.681   3.741  13.653  0.00  0.00    +0.000 A 
ENDBRANCH   4   6
ENDBRANCH   1   2
BRANCH   1  12
ATOM     12  C   UNL     1       6.817   7.270  17.520  0.00  0.00    +0.000 C 
ATOM     13  O   UNL     1       5.921   7.861  16.918  0.00  0.00    +0.000 OA
BRANCH  12  15
ATOM     14  C   UNL     1       8.125   9.358  17.826  0.00  0.00    +0.000 C 
ATOM     15  C   UNL     1       7.976   8.045  18.079  0.00  0.00    +0.000 C 
BRANCH  14  18
ATOM     16  C   UNL     1      10.970  11.847  18.311  0.00  0.00    +0.000 A 
ATOM     17  C   UNL     1      10.047  10.964  17.711  0.00  0.00    +0.000 A 
ATOM     18  C   UNL     1       9.138  10.215  18.476  0.00  0.00    +0.000 A 
ATOM     19  C   UNL     1       9.151  10.383  19.867  0.00  0.00    +0.000 A 
ATOM     20  C   UNL     1      10.061  11.251  20.475  0.00  0.00    +0.000 A 
ATOM     21  C   UNL     1      10.968  11.976  19.703  0.00  0.00    +0.000 A 
BRANCH  16  23
ATOM     22  C   UNL     1      11.279  13.673  16.798  0.00  0.00    +0.000 C 
ATOM     23  O   UNL     1      11.782  12.491  17.412  0.00  0.00    +0.000 OA
ENDBRANCH  16  23
BRANCH  21  24
ATOM     24  O   UNL     1      11.828  12.814  20.359  0.00  0.00    +0.000 OA
ATOM     25  H   UNL     1      12.607  12.313  20.647  0.00  0.00    +0.000 HD
ENDBRANCH  21  24
ENDBRANCH  14  18
ENDBRANCH  12  15
ENDBRANCH   1  12
BRANCH   1  26
ATOM     26  C   UNL     1       5.521   5.224  18.369  0.00  0.00    +0.000 C 
ATOM     27  O   UNL     1       5.297   4.025  18.441  0.00  0.00    +0.000 OA
BRANCH  26  28
ATOM     28  C   UNL     1       4.600   6.185  19.045  0.00  0.00    +0.000 C 
ATOM     29  C   UNL     1       3.326   6.365  18.652  0.00  0.00    +0.000 C 
BRANCH  29  30
ATOM     30  C   UNL     1       2.435   7.377  19.256  0.00  0.00    +0.000 A 
ATOM     31  C   UNL     1       1.938   7.182  20.548  0.00  0.00    +0.000 A 
ATOM     32  C   UNL     1       1.065   8.113  21.121  0.00  0.00    +0.000 A 
ATOM     33  C   UNL     1       0.692   9.263  20.425  0.00  0.00    +0.000 A 
ATOM     34  C   UNL     1       1.207   9.500  19.144  0.00  0.00    +0.000 A 
ATOM     35  C   UNL     1       2.074   8.550  18.578  0.00  0.00    +0.000 A 
BRANCH  33  36
ATOM     36  O   UNL     1      -0.171  10.136  21.019  0.00  0.00    +0.000 OA
ATOM     37  H   UNL     1      -0.934   9.646  21.370  0.00  0.00    +0.000 HD
ENDBRANCH  33  36
BRANCH  34  38
ATOM     38  O   UNL     1       0.981  10.574  18.325  0.00  0.00    +0.000 OA
ATOM     39  C   UNL     1       1.924  11.637  18.340  0.00  0.00    +0.000 C 
ENDBRANCH  34  38
ENDBRANCH  29  30
ENDBRANCH  26  28
ENDBRANCH   1  26
TORSDOF 12
ENDMDL
MODEL 4
REMARK VINA RESULT:      -8.4      3.044      3.551
REMARK  Name = 
REMARK  14 active torsions:
REMARK  status: ('A' for Active; 'I' for Inactive)
REMARK    1  A    between atoms: C_1  and  O_2
REMARK    2  A    between atoms: O_2  and  C_3
REMARK    3  A    between atoms: C_5  and  C_6
REMARK    4  A    between atoms: C_7  and  C_8
REMARK    5  A    between atoms: C_8  and  C_10
REMARK    6  A    between atoms: C_10  and  C_11
REMARK    7  A    between atoms: C_10  and  C_24
REMARK    8  A    between atoms: C_11  and  C_13
REMARK    9  A    between atoms: C_14  and  C_15
REMARK   10  A    between atoms: C_18  and  O_19
REMARK   11  A    between atoms: C_20  and  O_21
REMARK   12  A    between atoms: O_21  and  C_22
REMARK   13  A    between atoms: N_26  and  C_27
REMARK   14  A    between atoms: C_35  and  O_36
REMARK                            x       y       z     vdW  Elec       q    Type
REMARK                         _______ _______ _______ _____ _____    ______ ____
ROOT
ATOM      1  C   UNL     1       7.004   5.792  17.774  0.00  0.00    +0.000 C 
ENDROOT
BRANCH   1   2
ATOM      2  C   UNL     1       7.261   5.040  16.472  0.00  0.00    +0.000 C 
ATOM      3  O   UNL     1       8.051   4.092  16.493  0.00  0.00    +0.000 OA
ATOM      4  N   UNL     1       6.576   5.453  15.329  0.00  0.00    +0.000 N 
ATOM      5  H   UNL     1       6.238   6.416  15.309  0.00  0.00    +0.000 HD
BRANCH   4   6
ATOM      6  C   UNL     1       6.603   4.755  14.089  0.00  0.00    +0.000 A 
ATOM      7  C   UNL     1       5.639   3.788  13.783  0.00  0.00    +0.000 A 
ATOM      8  C   UNL     1       5.646   3.099  12.569  0.00  0.00    +0.000 A 
ATOM      9  C   UNL     1       6.618   3.383  11.627  0.00  0.00    +0.000 A 
ATOM     10  C   UNL     1       7.589   4.344  11.902  0.00  0.00    +0.000 A 
ATOM     11  C   UNL     1       7.584   5.031  13.131  0.00  0.00    +0.000 A 
ENDBRANCH   4   6
ENDBRANCH   1   2
BRANCH   1  12
ATOM     12  C   UNL     1       6.934   7.304  17.518  0.00  0.00    +0.000 C 
ATOM     13  O   UNL     1       6.069   7.791  16.792  0.00  0.00    +0.000 OA
BRANCH  12  15
ATOM     14  C   UNL     1       8.143   9.461  17.744  0.00  0.00    +0.000 C 
ATOM     15  C   UNL     1       7.951   8.199  18.168  0.00  0.00    +0.000 C 
BRANCH  14  18
ATOM     16  C   UNL     1      10.183  12.600  18.460  0.00  0.00    +0.000 A 
ATOM     17  C   UNL     1       9.431  11.613  17.788  0.00  0.00    +0.000 A 
ATOM     18  C   UNL     1       8.998  10.445  18.439  0.00  0.00    +0.000 A 
ATOM     19  C   UNL     1       9.314  10.291  19.795  0.00  0.00    +0.000 A 
ATOM     20  C   UNL     1      10.061  11.258  20.473  0.00  0.00    +0.000 A 
ATOM     21  C   UNL     1      10.496  12.404  19.809  0.00  0.00    +0.000 A 
BRANCH  16  23
ATOM     22  C   UNL     1      11.517  13.461  16.672  0.00  0.00    +0.000 C 
ATOM     23  O   UNL     1      10.522  13.669  17.669  0.00  0.00    +0.000 OA
ENDBRANCH  16  23
BRANCH  21  24
ATOM     24  O   UNL     1      11.217  13.317  20.529  0.00  0.00    +0.000 OA
ATOM     25  H   UNL     1      11.683  13.912  19.920  0.00  0.00    +0.000 HD
ENDBRANCH  21  24
ENDBRANCH  14  18
ENDBRANCH  12  15
ENDBRANCH   1  12
BRANCH   1  26
ATOM     26  C   UNL     1       5.843   5.233  18.571  0.00  0.00    +0.000 C 
ATOM     27  O   UNL     1       5.755   4.037  18.804  0.00  0.00    +0.000 OA
BRANCH  26  28
ATOM     28  C   UNL     1       4.860   6.176  19.181  0.00  0.00    +0.000 C 
ATOM     29  C   UNL     1       3.545   6.131  18.902  0.00  0.00    +0.000 C 
BRANCH  29  30
ATOM     30  C   UNL     1       2.578   7.114  19.431  0.00  0.00    +0.000 A 
ATOM     31  C   UNL     1       2.098   6.983  20.738  0.00  0.00    +0.000 A 
ATOM     32  C   UNL     1       1.155   7.885  21.243  0.00  0.00    +0.000 A 
ATOM     33  C   UNL     1       0.692   8.944  20.461  0.00  0.00    +0.000 A 
ATOM     34  C   UNL     1       1.186   9.119  19.162  0.00  0.00    +0.000 A 
ATOM     35  C   UNL     1       2.125   8.198  18.666  0.00  0.00    +0.000 A 
BRANCH  33  36
ATOM     36  O   UNL     1      -0.236   9.791  20.990  0.00  0.00    +0.000 OA
ATOM     37  H   UNL     1      -0.332  10.566  20.413  0.00  0.00    +0.000 HD
ENDBRANCH  33  36
BRANCH  34  38
ATOM     38  O   UNL     1       0.876  10.104  18.263  0.00  0.00    +0.000 OA
ATOM     39  C   UNL     1      -0.418  10.090  17.675  0.00  0.00    +0.000 C 
ENDBRANCH  34  38
ENDBRANCH  29  30
ENDBRANCH  26  28
ENDBRANCH   1  26
TORSDOF 12
ENDMDL
MODEL 5
REMARK VINA RESULT:      -8.2      3.744      8.408
REMARK  Name = 
REMARK  14 active torsions:
REMARK  status: ('A' for Active; 'I' for Inactive)
REMARK    1  A    between atoms: C_1  and  O_2
REMARK    2  A    between atoms: O_2  and  C_3
REMARK    3  A    between atoms: C_5  and  C_6
REMARK    4  A    between atoms: C_7  and  C_8
REMARK    5  A    between atoms: C_8  and  C_10
REMARK    6  A    between atoms: C_10  and  C_11
REMARK    7  A    between atoms: C_10  and  C_24
REMARK    8  A    between atoms: C_11  and  C_13
REMARK    9  A    between atoms: C_14  and  C_15
REMARK   10  A    between atoms: C_18  and  O_19
REMARK   11  A    between atoms: C_20  and  O_21
REMARK   12  A    between atoms: O_21  and  C_22
REMARK   13  A    between atoms: N_26  and  C_27
REMARK   14  A    between atoms: C_35  and  O_36
REMARK                            x       y       z     vdW  Elec       q    Type
REMARK                         _______ _______ _______ _____ _____    ______ ____
ROOT
ATOM      1  C   UNL     1       5.631   6.634  17.220  0.00  0.00    +0.000 C 
ENDROOT
BRANCH   1   2
ATOM      2  C   UNL     1       5.573   6.185  15.762  0.00  0.00    +0.000 C 
ATOM      3  O   UNL     1       5.004   6.917  14.949  0.00  0.00    +0.000 OA
ATOM      4  N   UNL     1       6.182   4.976  15.424  0.00  0.00    +0.000 N 
ATOM      5  H   UNL     1       6.306   4.290  16.169  0.00  0.00    +0.000 HD
BRANCH   4   6
ATOM      6  C   UNL     1       6.336   4.509  14.088  0.00  0.00    +0.000 A 
ATOM      7  C   UNL     1       7.404   4.936  13.291  0.00  0.00    +0.000 A 
ATOM      8  C   UNL     1       7.574   4.483  11.982  0.00  0.00    +0.000 A 
ATOM      9  C   UNL     1       6.677   3.574  11.451  0.00  0.00    +0.000 A 
ATOM     10  C   UNL     1       5.605   3.127  12.222  0.00  0.00    +0.000 A 
ATOM     11  C   UNL     1       5.432   3.592  13.539  0.00  0.00    +0.000 A 
ENDBRANCH   4   6
ENDBRANCH   1   2
BRANCH   1  12
ATOM     12  C   UNL     1       4.570   5.900  18.052  0.00  0.00    +0.000 C 
ATOM     13  O   UNL     1       4.634   4.686  18.245  0.00  0.00    +0.000 OA
BRANCH  12  15
ATOM     14  C   UNL     1       3.098   7.897  18.149  0.00  0.00    +0.000 C 
ATOM     15  C   UNL     1       3.432   6.688  18.635  0.00  0.00    +0.000 C 
BRANCH  14  18
ATOM     16  C   UNL     1       0.543   9.715  20.315  0.00  0.00    +0.000 A 
ATOM     17  C   UNL     1       1.646   8.932  19.912  0.00  0.00    +0.000 A 
ATOM     18  C   UNL     1       1.894   8.648  18.559  0.00  0.00    +0.000 A 
ATOM     19  C   UNL     1       1.023   9.187  17.602  0.00  0.00    +0.000 A 
ATOM     20  C   UNL     1      -0.074   9.961  17.986  0.00  0.00    +0.000 A 
ATOM     21  C   UNL     1      -0.316  10.221  19.335  0.00  0.00    +0.000 A 
BRANCH  16  23
ATOM     22  C   UNL     1      -0.339   8.954  22.404  0.00  0.00    +0.000 C 
ATOM     23  O   UNL     1       0.454   9.885  21.674  0.00  0.00    +0.000 OA
ENDBRANCH  16  23
BRANCH  21  24
ATOM     24  O   UNL     1      -1.403  10.991  19.645  0.00  0.00    +0.000 OA
ATOM     25  H   UNL     1      -2.211  10.464  19.540  0.00  0.00    +0.000 HD
ENDBRANCH  21  24
ENDBRANCH  14  18
ENDBRANCH  12  15
ENDBRANCH   1  12
BRANCH   1  26
ATOM     26  C   UNL     1       7.028   6.597  17.804  0.00  0.00    +0.000 C 
ATOM     27  O   UNL     1       7.737   5.609  17.684  0.00  0.00    +0.000 OA
BRANCH  26  28
ATOM     28  C   UNL     1       7.587   7.831  18.429  0.00  0.00    +0.000 C 
ATOM     29  C   UNL     1       8.010   8.883  17.704  0.00  0.00    +0.000 C 
BRANCH  29  30
ATOM     30  C   UNL     1       8.645  10.071  18.309  0.00  0.00    +0.000 A 
ATOM     31  C   UNL     1       9.458   9.926  19.437  0.00  0.00    +0.000 A 
ATOM     32  C   UNL     1      10.039  11.045  20.043  0.00  0.00    +0.000 A 
ATOM     33  C   UNL     1       9.839  12.324  19.521  0.00  0.00    +0.000 A 
ATOM     34  C   UNL     1       9.060  12.490  18.368  0.00  0.00    +0.000 A 
ATOM     35  C   UNL     1       8.474  11.358  17.778  0.00  0.00    +0.000 A 
BRANCH  33  36
ATOM     36  O   UNL     1      10.414  13.386  20.152  0.00  0.00    +0.000 OA
ATOM     37  H   UNL     1      11.380  13.332  20.059  0.00  0.00    +0.000 HD
ENDBRANCH  33  36
BRANCH  34  38
ATOM     38  O   UNL     1       8.775  13.651  17.698  0.00  0.00    +0.000 OA
ATOM     39  C   UNL     1       7.701  14.451  18.174  0.00  0.00    +0.000 C 
ENDBRANCH  34  38
ENDBRANCH  29  30
ENDBRANCH  26  28
ENDBRANCH   1  26
TORSDOF 12
ENDMDL
MODEL 6
REMARK VINA RESULT:      -8.2      3.801      8.411
REMARK  Name = 
REMARK  14 active torsions:
REMARK  status: ('A' for Active; 'I' for Inactive)
REMARK    1  A    between atoms: C_1  and  O_2
REMARK    2  A    between atoms: O_2  and  C_3
REMARK    3  A    between atoms: C_5  and  C_6
REMARK    4  A    between atoms: C_7  and  C_8
REMARK    5  A    between atoms: C_8  and  C_10
REMARK    6  A    between atoms: C_10  and  C_11
REMARK    7  A    between atoms: C_10  and  C_24
REMARK    8  A    between atoms: C_11  and  C_13
REMARK    9  A    between atoms: C_14  and  C_15
REMARK   10  A    between atoms: C_18  and  O_19
REMARK   11  A    between atoms: C_20  and  O_21
REMARK   12  A    between atoms: O_21  and  C_22
REMARK   13  A    between atoms: N_26  and  C_27
REMARK   14  A    between atoms: C_35  and  O_36
REMARK                            x       y       z     vdW  Elec       q    Type
REMARK                         _______ _______ _______ _____ _____    ______ ____
ROOT
ATOM      1  C   UNL     1       5.529   6.867  17.132  0.00  0.00    +0.000 C 
ENDROOT
BRANCH   1   2
ATOM      2  C   UNL     1       5.522   6.347  15.697  0.00  0.00    +0.000 C 
ATOM      3  O   UNL     1       4.934   7.011  14.840  0.00  0.00    +0.000 OA
ATOM      4  N   UNL     1       6.197   5.156  15.428  0.00  0.00    +0.000 N 
ATOM      5  H   UNL     1       6.340   4.513  16.208  0.00  0.00    +0.000 HD
BRANCH   4   6
ATOM      6  C   UNL     1       6.400   4.634  14.120  0.00  0.00    +0.000 A 
ATOM      7  C   UNL     1       5.550   3.656  13.592  0.00  0.00    +0.000 A 
ATOM      8  C   UNL     1       5.730   3.138  12.308  0.00  0.00    +0.000 A 
ATOM      9  C   UNL     1       6.766   3.607  11.521  0.00  0.00    +0.000 A 
ATOM     10  C   UNL     1       7.627   4.582  12.018  0.00  0.00    +0.000 A 
ATOM     11  C   UNL     1       7.447   5.098  13.316  0.00  0.00    +0.000 A 
ENDBRANCH   4   6
ENDBRANCH   1   2
BRANCH   1  12
ATOM     12  C   UNL     1       4.581   6.039  18.009  0.00  0.00    +0.000 C 
ATOM     13  O   UNL     1       4.819   4.861  18.276  0.00  0.00    +0.000 OA
BRANCH  12  15
ATOM     14  C   UNL     1       3.106   8.002  18.380  0.00  0.00    +0.000 C 
ATOM     15  C   UNL     1       3.336   6.687  18.546  0.00  0.00    +0.000 C 
BRANCH  14  18
ATOM     16  C   UNL     1       0.151   9.298  20.407  0.00  0.00    +0.000 A 
ATOM     17  C   UNL     1       1.321   8.602  20.036  0.00  0.00    +0.000 A 
ATOM     18  C   UNL     1       1.836   8.669  18.730  0.00  0.00    +0.000 A 
ATOM     19  C   UNL     1       1.165   9.472  17.798  0.00  0.00    +0.000 A 
ATOM     20  C   UNL     1       0.004  10.163  18.150  0.00  0.00    +0.000 A 
ATOM     21  C   UNL     1      -0.503  10.074  19.446  0.00  0.00    +0.000 A 
BRANCH  16  23
ATOM     22  C   UNL     1      -0.045  10.215  22.607  0.00  0.00    +0.000 C 
ATOM     23  O   UNL     1      -0.207   9.114  21.719  0.00  0.00    +0.000 OA
ENDBRANCH  16  23
BRANCH  21  24
ATOM     24  O   UNL     1      -1.640  10.780  19.730  0.00  0.00    +0.000 OA
ATOM     25  H   UNL     1      -2.271  10.680  19.000  0.00  0.00    +0.000 HD
ENDBRANCH  21  24
ENDBRANCH  14  18
ENDBRANCH  12  15
ENDBRANCH   1  12
BRANCH   1  26
ATOM     26  C   UNL     1       6.923   7.043  17.699  0.00  0.00    +0.000 C 
ATOM     27  O   UNL     1       7.625   6.078  17.961  0.00  0.00    +0.000 OA
BRANCH  26  28
ATOM     28  C   UNL     1       7.487   8.419  17.827  0.00  0.00    +0.000 C 
ATOM     29  C   UNL     1       8.564   8.693  18.586  0.00  0.00    +0.000 C 
BRANCH  29  30
ATOM     30  C   UNL     1       9.075  10.063  18.789  0.00  0.00    +0.000 A 
ATOM     31  C   UNL     1       9.311  10.888  17.684  0.00  0.00    +0.000 A 
ATOM     32  C   UNL     1       9.829  12.176  17.857  0.00  0.00    +0.000 A 
ATOM     33  C   UNL     1      10.098  12.671  19.134  0.00  0.00    +0.000 A 
ATOM     34  C   UNL     1       9.835  11.878  20.258  0.00  0.00    +0.000 A 
ATOM     35  C   UNL     1       9.326  10.582  20.067  0.00  0.00    +0.000 A 
BRANCH  33  36
ATOM     36  O   UNL     1      10.615  13.927  19.252  0.00  0.00    +0.000 OA
ATOM     37  H   UNL     1      10.390  14.287  20.127  0.00  0.00    +0.000 HD
ENDBRANCH  33  36
BRANCH  34  38
ATOM     38  O   UNL     1      10.007  12.196  21.579  0.00  0.00    +0.000 OA
ATOM     39  C   UNL     1       8.974  12.921  22.232  0.00  0.00    +0.000 C 
ENDBRANCH  34  38
ENDBRANCH  29  30
ENDBRANCH  26  28
ENDBRANCH   1  26
TORSDOF 12
ENDMDL
MODEL 7
REMARK VINA RESULT:      -8.1      0.945      1.552
REMARK  Name = 
REMARK  14 active torsions:
REMARK  status: ('A' for Active; 'I' for Inactive)
REMARK    1  A    between atoms: C_1  and  O_2
REMARK    2  A    between atoms: O_2  and  C_3
REMARK    3  A    between atoms: C_5  and  C_6
REMARK    4  A    between atoms: C_7  and  C_8
REMARK    5  A    between atoms: C_8  and  C_10
REMARK    6  A    between atoms: C_10  and  C_11
REMARK    7  A    between atoms: C_10  and  C_24
REMARK    8  A    between atoms: C_11  and  C_13
REMARK    9  A    between atoms: C_14  and  C_15
REMARK   10  A    between atoms: C_18  and  O_19
REMARK   11  A    between atoms: C_20  and  O_21
REMARK   12  A    between atoms: O_21  and  C_22
REMARK   13  A    between atoms: N_26  and  C_27
REMARK   14  A    between atoms: C_35  and  O_36
REMARK                            x       y       z     vdW  Elec       q    Type
REMARK                         _______ _______ _______ _____ _____    ______ ____
ROOT
ATOM      1  C   UNL     1       7.657   6.213  17.698  0.00  0.00    +0.000 C 
ENDROOT
BRANCH   1   2
ATOM      2  C   UNL     1       7.581   5.256  16.511  0.00  0.00    +0.000 C 
ATOM      3  O   UNL     1       7.929   4.086  16.683  0.00  0.00    +0.000 OA
ATOM      4  N   UNL     1       7.104   5.753  15.298  0.00  0.00    +0.000 N 
ATOM      5  H   UNL     1       7.176   6.760  15.144  0.00  0.00    +0.000 HD
BRANCH   4   6
ATOM      6  C   UNL     1       6.838   4.946  14.156  0.00  0.00    +0.000 A 
ATOM      7  C   UNL     1       5.720   4.106  14.109  0.00  0.00    +0.000 A 
ATOM      8  C   UNL     1       5.440   3.313  12.995  0.00  0.00    +0.000 A 
ATOM      9  C   UNL     1       6.276   3.362  11.894  0.00  0.00    +0.000 A 
ATOM     10  C   UNL     1       7.396   4.191  11.910  0.00  0.00    +0.000 A 
ATOM     11  C   UNL     1       7.679   4.984  13.039  0.00  0.00    +0.000 A 
ENDBRANCH   4   6
ENDBRANCH   1   2
BRANCH   1  12
ATOM     12  C   UNL     1       6.905   7.515  17.389  0.00  0.00    +0.000 C 
ATOM     13  O   UNL     1       5.960   7.538  16.601  0.00  0.00    +0.000 OA
BRANCH  12  15
ATOM     14  C   UNL     1       8.643   9.091  18.199  0.00  0.00    +0.000 C 
ATOM     15  C   UNL     1       7.341   8.784  18.065  0.00  0.00    +0.000 C 
BRANCH  14  18
ATOM     16  C   UNL     1       9.254  12.840  18.515  0.00  0.00    +0.000 A 
ATOM     17  C   UNL     1       8.856  11.583  18.011  0.00  0.00    +0.000 A 
ATOM     18  C   UNL     1       9.138  10.391  18.698  0.00  0.00    +0.000 A 
ATOM     19  C   UNL     1       9.812  10.480  19.923  0.00  0.00    +0.000 A 
ATOM     20  C   UNL     1      10.215  11.716  20.432  0.00  0.00    +0.000 A 
ATOM     21  C   UNL     1       9.941  12.890  19.731  0.00  0.00    +0.000 A 
BRANCH  16  23
ATOM     22  C   UNL     1       7.603  14.456  17.894  0.00  0.00    +0.000 C 
ATOM     23  O   UNL     1       8.898  13.894  17.710  0.00  0.00    +0.000 OA
ENDBRANCH  16  23
BRANCH  21  24
ATOM     24  O   UNL     1      10.356  14.070  20.285  0.00  0.00    +0.000 OA
ATOM     25  H   UNL     1       9.693  14.757  20.113  0.00  0.00    +0.000 HD
ENDBRANCH  21  24
ENDBRANCH  14  18
ENDBRANCH  12  15
ENDBRANCH   1  12
BRANCH   1  26
ATOM     26  C   UNL     1       7.284   5.566  19.015  0.00  0.00    +0.000 C 
ATOM     27  O   UNL     1       8.108   5.424  19.906  0.00  0.00    +0.000 OA
BRANCH  26  28
ATOM     28  C   UNL     1       5.858   5.206  19.270  0.00  0.00    +0.000 C 
ATOM     29  C   UNL     1       5.411   3.938  19.223  0.00  0.00    +0.000 C 
BRANCH  29  30
ATOM     30  C   UNL     1       3.987   3.582  19.385  0.00  0.00    +0.000 A 
ATOM     31  C   UNL     1       3.566   2.908  20.536  0.00  0.00    +0.000 A 
ATOM     32  C   UNL     1       2.227   2.532  20.690  0.00  0.00    +0.000 A 
ATOM     33  C   UNL     1       1.283   2.841  19.711  0.00  0.00    +0.000 A 
ATOM     34  C   UNL     1       1.673   3.548  18.566  0.00  0.00    +0.000 A 
ATOM     35  C   UNL     1       3.023   3.909  18.421  0.00  0.00    +0.000 A 
BRANCH  33  36
ATOM     36  O   UNL     1      -0.007   2.443  19.898  0.00  0.00    +0.000 OA
ATOM     37  H   UNL     1      -0.558   2.785  19.174  0.00  0.00    +0.000 HD
ENDBRANCH  33  36
BRANCH  34  38
ATOM     38  O   UNL     1       0.893   3.962  17.519  0.00  0.00    +0.000 OA
ATOM     39  C   UNL     1       1.071   5.286  17.034  0.00  0.00    +0.000 C 
ENDBRANCH  34  38
ENDBRANCH  29  30
ENDBRANCH  26  28
ENDBRANCH   1  26
TORSDOF 12
ENDMDL
MODEL 8
REMARK VINA RESULT:      -8.1      1.337      9.631
REMARK  Name = 
REMARK  14 active torsions:
REMARK  status: ('A' for Active; 'I' for Inactive)
REMARK    1  A    between atoms: C_1  and  O_2
REMARK    2  A    between atoms: O_2  and  C_3
REMARK    3  A    between atoms: C_5  and  C_6
REMARK    4  A    between atoms: C_7  and  C_8
REMARK    5  A    between atoms: C_8  and  C_10
REMARK    6  A    between atoms: C_10  and  C_11
REMARK    7  A    between atoms: C_10  and  C_24
REMARK    8  A    between atoms: C_11  and  C_13
REMARK    9  A    between atoms: C_14  and  C_15
REMARK   10  A    between atoms: C_18  and  O_19
REMARK   11  A    between atoms: C_20  and  O_21
REMARK   12  A    between atoms: O_21  and  C_22
REMARK   13  A    between atoms: N_26  and  C_27
REMARK   14  A    between atoms: C_35  and  O_36
REMARK                            x       y       z     vdW  Elec       q    Type
REMARK                         _______ _______ _______ _____ _____    ______ ____
ROOT
ATOM      1  C   UNL     1       6.923   7.158  17.692  0.00  0.00    +0.000 C 
ENDROOT
BRANCH   1   2
ATOM      2  C   UNL     1       6.432   6.487  16.412  0.00  0.00    +0.000 C 
ATOM      3  O   UNL     1       5.334   6.825  15.962  0.00  0.00    +0.000 OA
ATOM      4  N   UNL     1       7.258   5.538  15.811  0.00  0.00    +0.000 N 
ATOM      5  H   UNL     1       7.946   5.072  16.404  0.00  0.00    +0.000 HD
BRANCH   4   6
ATOM      6  C   UNL     1       6.998   4.945  14.543  0.00  0.00    +0.000 A 
ATOM      7  C   UNL     1       7.735   5.309  13.410  0.00  0.00    +0.000 A 
ATOM      8  C   UNL     1       7.499   4.733  12.161  0.00  0.00    +0.000 A 
ATOM      9  C   UNL     1       6.521   3.764  12.029  0.00  0.00    +0.000 A 
ATOM     10  C   UNL     1       5.772   3.380  13.139  0.00  0.00    +0.000 A 
ATOM     11  C   UNL     1       6.008   3.968  14.396  0.00  0.00    +0.000 A 
ENDBRANCH   4   6
ENDBRANCH   1   2
BRANCH   1  12
ATOM     12  C   UNL     1       7.101   6.121  18.810  0.00  0.00    +0.000 C 
ATOM     13  O   UNL     1       8.174   5.989  19.397  0.00  0.00    +0.000 OA
BRANCH  12  15
ATOM     14  C   UNL     1       4.703   5.766  19.346  0.00  0.00    +0.000 C 
ATOM     15  C   UNL     1       5.935   5.251  19.185  0.00  0.00    +0.000 C 
BRANCH  14  18
ATOM     16  C   UNL     1       2.295   2.812  19.331  0.00  0.00    +0.000 A 
ATOM     17  C   UNL     1       3.418   3.630  19.080  0.00  0.00    +0.000 A 
ATOM     18  C   UNL     1       3.487   4.952  19.548  0.00  0.00    +0.000 A 
ATOM     19  C   UNL     1       2.412   5.442  20.301  0.00  0.00    +0.000 A 
ATOM     20  C   UNL     1       1.292   4.646  20.555  0.00  0.00    +0.000 A 
ATOM     21  C   UNL     1       1.232   3.340  20.070  0.00  0.00    +0.000 A 
BRANCH  16  23
ATOM     22  C   UNL     1       3.680   1.134  18.339  0.00  0.00    +0.000 C 
ATOM     23  O   UNL     1       2.398   1.553  18.795  0.00  0.00    +0.000 OA
ENDBRANCH  16  23
BRANCH  21  24
ATOM     24  O   UNL     1       0.112   2.609  20.359  0.00  0.00    +0.000 OA
ATOM     25  H   UNL     1       0.016   2.535  21.322  0.00  0.00    +0.000 HD
ENDBRANCH  21  24
ENDBRANCH  14  18
ENDBRANCH  12  15
ENDBRANCH   1  12
BRANCH   1  26
ATOM     26  C   UNL     1       8.119   8.062  17.474  0.00  0.00    +0.000 C 
ATOM     27  O   UNL     1       8.803   7.973  16.466  0.00  0.00    +0.000 OA
BRANCH  26  28
ATOM     28  C   UNL     1       8.390   9.157  18.451  0.00  0.00    +0.000 C 
ATOM     29  C   UNL     1       8.937  10.332  18.090  0.00  0.00    +0.000 C 
BRANCH  29  30
ATOM     30  C   UNL     1       9.290  11.386  19.062  0.00  0.00    +0.000 A 
ATOM     31  C   UNL     1       9.382  11.074  20.422  0.00  0.00    +0.000 A 
ATOM     32  C   UNL     1       9.681  12.069  21.360  0.00  0.00    +0.000 A 
ATOM     33  C   UNL     1       9.916  13.383  20.956  0.00  0.00    +0.000 A 
ATOM     34  C   UNL     1       9.868  13.712  19.595  0.00  0.00    +0.000 A 
ATOM     35  C   UNL     1       9.555  12.705  18.666  0.00  0.00    +0.000 A 
BRANCH  33  36
ATOM     36  O   UNL     1      10.192  14.321  21.906  0.00  0.00    +0.000 OA
ATOM     37  H   UNL     1      10.504  15.134  21.476  0.00  0.00    +0.000 HD
ENDBRANCH  33  36
BRANCH  34  38
ATOM     38  O   UNL     1      10.094  14.929  19.009  0.00  0.00    +0.000 OA
ATOM     39  C   UNL     1      11.430  15.267  18.661  0.00  0.00    +0.000 C 
ENDBRANCH  34  38
ENDBRANCH  29  30
ENDBRANCH  26  28
ENDBRANCH   1  26
TORSDOF 12
ENDMDL
MODEL 9
REMARK VINA RESULT:      -8.1      1.050      1.365
REMARK  Name = 
REMARK  14 active torsions:
REMARK  status: ('A' for Active; 'I' for Inactive)
REMARK    1  A    between atoms: C_1  and  O_2
REMARK    2  A    between atoms: O_2  and  C_3
REMARK    3  A    between atoms: C_5  and  C_6
REMARK    4  A    between atoms: C_7  and  C_8
REMARK    5  A    between atoms: C_8  and  C_10
REMARK    6  A    between atoms: C_10  and  C_11
REMARK    7  A    between atoms: C_10  and  C_24
REMARK    8  A    between atoms: C_11  and  C_13
REMARK    9  A    between atoms: C_14  and  C_15
REMARK   10  A    between atoms: C_18  and  O_19
REMARK   11  A    between atoms: C_20  and  O_21
REMARK   12  A    between atoms: O_21  and  C_22
REMARK   13  A    between atoms: N_26  and  C_27
REMARK   14  A    between atoms: C_35  and  O_36
REMARK                            x       y       z     vdW  Elec       q    Type
REMARK                         _______ _______ _______ _____ _____    ______ ____
ROOT
ATOM      1  C   UNL     1       7.584   6.548  17.528  0.00  0.00    +0.000 C 
ENDROOT
BRANCH   1   2
ATOM      2  C   UNL     1       6.932   6.106  16.220  0.00  0.00    +0.000 C 
ATOM      3  O   UNL     1       5.954   6.738  15.815  0.00  0.00    +0.000 OA
ATOM      4  N   UNL     1       7.490   5.021  15.544  0.00  0.00    +0.000 N 
ATOM      5  H   UNL     1       8.041   4.360  16.093  0.00  0.00    +0.000 HD
BRANCH   4   6
ATOM      6  C   UNL     1       7.083   4.596  14.248  0.00  0.00    +0.000 A 
ATOM      7  C   UNL     1       7.781   4.997  13.103  0.00  0.00    +0.000 A 
ATOM      8  C   UNL     1       7.400   4.584  11.826  0.00  0.00    +0.000 A 
ATOM      9  C   UNL     1       6.312   3.743  11.675  0.00  0.00    +0.000 A 
ATOM     10  C   UNL     1       5.599   3.324  12.796  0.00  0.00    +0.000 A 
ATOM     11  C   UNL     1       5.982   3.748  14.083  0.00  0.00    +0.000 A 
ENDBRANCH   4   6
ENDBRANCH   1   2
BRANCH   1  12
ATOM     12  C   UNL     1       7.271   8.024  17.813  0.00  0.00    +0.000 C 
ATOM     13  O   UNL     1       6.126   8.464  17.726  0.00  0.00    +0.000 OA
BRANCH  12  15
ATOM     14  C   UNL     1       8.434  10.217  17.777  0.00  0.00    +0.000 C 
ATOM     15  C   UNL     1       8.395   8.942  18.203  0.00  0.00    +0.000 C 
BRANCH  14  18
ATOM     16  C   UNL     1      10.265  13.524  18.265  0.00  0.00    +0.000 A 
ATOM     17  C   UNL     1       9.391  12.535  17.765  0.00  0.00    +0.000 A 
ATOM     18  C   UNL     1       9.411  11.218  18.253  0.00  0.00    +0.000 A 
ATOM     19  C   UNL     1      10.313  10.909  19.279  0.00  0.00    +0.000 A 
ATOM     20  C   UNL     1      11.186  11.876  19.782  0.00  0.00    +0.000 A 
ATOM     21  C   UNL     1      11.166  13.175  19.276  0.00  0.00    +0.000 A 
BRANCH  16  23
ATOM     22  C   UNL     1       8.938  15.494  17.989  0.00  0.00    +0.000 C 
ATOM     23  O   UNL     1      10.110  14.750  17.669  0.00  0.00    +0.000 OA
ENDBRANCH  16  23
BRANCH  21  24
ATOM     24  O   UNL     1      12.041  14.078  19.815  0.00  0.00    +0.000 OA
ATOM     25  H   UNL     1      11.608  14.549  20.545  0.00  0.00    +0.000 HD
ENDBRANCH  21  24
ENDBRANCH  14  18
ENDBRANCH  12  15
ENDBRANCH   1  12
BRANCH   1  26
ATOM     26  C   UNL     1       7.307   5.609  18.684  0.00  0.00    +0.000 C 
ATOM     27  O   UNL     1       8.061   5.550  19.644  0.00  0.00    +0.000 OA
BRANCH  26  28
ATOM     28  C   UNL     1       6.032   4.834  18.701  0.00  0.00    +0.000 C 
ATOM     29  C   UNL     1       4.825   5.425  18.637  0.00  0.00    +0.000 C 
BRANCH  29  30
ATOM     30  C   UNL     1       3.557   4.674  18.743  0.00  0.00    +0.000 A 
ATOM     31  C   UNL     1       2.625   4.736  17.703  0.00  0.00    +0.000 A 
ATOM     32  C   UNL     1       1.404   4.059  17.802  0.00  0.00    +0.000 A 
ATOM     33  C   UNL     1       1.103   3.293  18.929  0.00  0.00    +0.000 A 
ATOM     34  C   UNL     1       2.037   3.185  19.967  0.00  0.00    +0.000 A 
ATOM     35  C   UNL     1       3.254   3.879  19.857  0.00  0.00    +0.000 A 
BRANCH  33  36
ATOM     36  O   UNL     1      -0.104   2.662  18.988  0.00  0.00    +0.000 OA
ATOM     37  H   UNL     1       0.035   1.701  19.013  0.00  0.00    +0.000 HD
ENDBRANCH  33  36
BRANCH  34  38
ATOM     38  O   UNL     1       1.935   2.465  21.128  0.00  0.00    +0.000 OA
ATOM     39  C   UNL     1       3.133   2.009  21.740  0.00  0.00    +0.000 C 
ENDBRANCH  34  38
ENDBRANCH  29  30
ENDBRANCH  26  28
ENDBRANCH   1  26
TORSDOF 12
ENDMDL
