MODEL 1
REMARK VINA RESULT:      -8.7      0.000      0.000
REMARK  Name = 
REMARK  10 active torsions:
REMARK  status: ('A' for Active; 'I' for Inactive)
REMARK    1  A    between atoms: C_1  and  O_2
REMARK    2  A    between atoms: O_2  and  C_3
REMARK    3  A    between atoms: C_7  and  C_8
REMARK    4  A    between atoms: C_8  and  N_9
REMARK    5  A    between atoms: C_10  and  C_12
REMARK    6  A    between atoms: N_15  and  C_16
REMARK    7  A    between atoms: C_16  and  C_17
REMARK    8  A    between atoms: N_25  and  C_26
REMARK    9  A    between atoms: C_26  and  C_27
REMARK   10  A    between atoms: C_30  and  C_31
REMARK                            x       y       z     vdW  Elec       q    Type
REMARK                         _______ _______ _______ _____ _____    ______ ____
ROOT
ATOM      1  C   UNL     1       0.122  10.670  19.766  0.00  0.00    +0.000 C 
ATOM      2  C   UNL     1       0.271   9.243  20.312  0.00  0.00    +0.000 C 
ATOM      3  C   UNL     1       1.564   8.560  19.855  0.00  0.00    +0.000 C 
ATOM      4  N   UNL     1       1.758   8.636  18.387  0.00  0.00    +0.000 NA
ATOM      5  C   UNL     1       1.811  10.049  17.988  0.00  0.00    +0.000 C 
ATOM      6  C   UNL     1       0.439  10.677  18.267  0.00  0.00    +0.000 C 
ENDROOT
BRANCH   1   8
ATOM      7  N   UNL     1       1.041  12.924  19.912  0.00  0.00    +0.000 N 
ATOM      8  C   UNL     1       0.991  11.685  20.514  0.00  0.00    +0.000 C 
ATOM      9  O   UNL     1       1.579  11.429  21.560  0.00  0.00    +0.000 OA
ATOM     10  H   UNL     1       0.605  13.062  19.011  0.00  0.00    +0.000 HD
BRANCH   7  11
ATOM     11  C   UNL     1       1.916  13.967  20.391  0.00  0.00    +0.000 C 
BRANCH  11  16
ATOM     12  C   UNL     1       1.789  16.962  18.021  0.00  0.00    +0.000 A 
ATOM     13  C   UNL     1       2.879  16.682  17.194  0.00  0.00    +0.000 A 
ATOM     14  C   UNL     1       3.671  15.557  17.418  0.00  0.00    +0.000 A 
ATOM     15  C   UNL     1       3.364  14.690  18.465  0.00  0.00    +0.000 A 
ATOM     16  C   UNL     1       2.258  14.938  19.290  0.00  0.00    +0.000 A 
ATOM     17  C   UNL     1       1.488  16.095  19.076  0.00  0.00    +0.000 A 
BRANCH  12  19
ATOM     18  C   UNL     1      -0.313  18.066  17.842  0.00  0.00    +0.000 C 
ATOM     19  O   UNL     1       1.098  18.095  17.684  0.00  0.00    +0.000 OA
ENDBRANCH  12  19
ENDBRANCH  11  16
ENDBRANCH   7  11
ENDBRANCH   1   8
BRANCH   4  20
ATOM     20  C   UNL     1       2.983   7.884  18.058  0.00  0.00    +0.000 C 
BRANCH  20  21
ATOM     21  C   UNL     1       2.944   6.395  18.217  0.00  0.00    +0.000 A 
ATOM     22  C   UNL     1       1.833   5.581  18.075  0.00  0.00    +0.000 A 
ATOM     23  C   UNL     1       2.206   4.249  18.357  0.00  0.00    +0.000 A 
ATOM     24  C   UNL     1       1.508   3.026  18.352  0.00  0.00    +0.000 A 
ATOM     25  C   UNL     1       2.133   1.881  18.844  0.00  0.00    +0.000 A 
ATOM     26  C   UNL     1       3.434   1.946  19.338  0.00  0.00    +0.000 A 
ATOM     27  C   UNL     1       4.178   3.132  19.263  0.00  0.00    +0.000 A 
ATOM     28  C   UNL     1       3.551   4.270  18.731  0.00  0.00    +0.000 A 
ATOM     29  N   UNL     1       4.017   5.536  18.379  0.00  0.00    +0.000 N 
BRANCH  29  30
ATOM     30  C   UNL     1       5.407   5.828  18.009  0.00  0.00    +0.000 C 
BRANCH  30  31
ATOM     31  C   UNL     1       5.745   5.319  16.619  0.00  0.00    +0.000 A 
ATOM     32  C   UNL     1       7.012   5.538  16.062  0.00  0.00    +0.000 A 
ATOM     33  C   UNL     1       7.330   5.047  14.789  0.00  0.00    +0.000 A 
ATOM     34  C   UNL     1       6.389   4.324  14.048  0.00  0.00    +0.000 A 
ATOM     35  C   UNL     1       6.714   3.772  12.692  0.00  0.00    +0.000 C 
ATOM     36  C   UNL     1       5.119   4.113  14.595  0.00  0.00    +0.000 A 
ATOM     37  C   UNL     1       4.806   4.595  15.868  0.00  0.00    +0.000 A 
ENDBRANCH  30  31
ENDBRANCH  29  30
ENDBRANCH  20  21
ENDBRANCH   4  20
TORSDOF 8
ENDMDL
MODEL 2
REMARK VINA RESULT:      -8.5      1.286      1.937
REMARK  Name = 
REMARK  10 active torsions:
REMARK  status: ('A' for Active; 'I' for Inactive)
REMARK    1  A    between atoms: C_1  and  O_2
REMARK    2  A    between atoms: O_2  and  C_3
REMARK    3  A    between atoms: C_7  and  C_8
REMARK    4  A    between atoms: C_8  and  N_9
REMARK    5  A    between atoms: C_10  and  C_12
REMARK    6  A    between atoms: N_15  and  C_16
REMARK    7  A    between atoms: C_16  and  C_17
REMARK    8  A    between atoms: N_25  and  C_26
REMARK    9  A    between atoms: C_26  and  C_27
REMARK   10  A    between atoms: C_30  and  C_31
REMARK                            x       y       z     vdW  Elec       q    Type
REMARK                         _______ _______ _______ _____ _____    ______ ____
ROOT
ATOM      1  C   UNL     1      -0.256  10.782  20.005  0.00  0.00    +0.000 C 
ATOM      2  C   UNL     1       0.001   9.407  20.637  0.00  0.00    +0.000 C 
ATOM      3  C   UNL     1       1.323   8.778  20.187  0.00  0.00    +0.000 C 
ATOM      4  N   UNL     1       1.474   8.769  18.712  0.00  0.00    +0.000 NA
ATOM      5  C   UNL     1       1.424  10.152  18.221  0.00  0.00    +0.000 C 
ATOM      6  C   UNL     1       0.022  10.709  18.499  0.00  0.00    +0.000 C 
ENDROOT
BRANCH   1   8
ATOM      7  N   UNL     1       0.212  13.164  20.240  0.00  0.00    +0.000 N 
ATOM      8  C   UNL     1       0.564  11.898  20.658  0.00  0.00    +0.000 C 
ATOM      9  O   UNL     1       1.443  11.691  21.489  0.00  0.00    +0.000 OA
ATOM     10  H   UNL     1      -0.462  13.277  19.496  0.00  0.00    +0.000 HD
BRANCH   7  11
ATOM     11  C   UNL     1       0.962  14.331  20.638  0.00  0.00    +0.000 C 
BRANCH  11  16
ATOM     12  C   UNL     1       3.985  14.471  18.304  0.00  0.00    +0.000 A 
ATOM     13  C   UNL     1       3.694  15.626  17.576  0.00  0.00    +0.000 A 
ATOM     14  C   UNL     1       2.517  16.337  17.809  0.00  0.00    +0.000 A 
ATOM     15  C   UNL     1       1.629  15.903  18.790  0.00  0.00    +0.000 A 
ATOM     16  C   UNL     1       1.914  14.761  19.552  0.00  0.00    +0.000 A 
ATOM     17  C   UNL     1       3.087  14.033  19.283  0.00  0.00    +0.000 A 
BRANCH  12  19
ATOM     18  C   UNL     1       6.258  14.734  17.648  0.00  0.00    +0.000 C 
ATOM     19  O   UNL     1       5.173  13.877  17.974  0.00  0.00    +0.000 OA
ENDBRANCH  12  19
ENDBRANCH  11  16
ENDBRANCH   7  11
ENDBRANCH   1   8
BRANCH   4  20
ATOM     20  C   UNL     1       2.737   8.076  18.397  0.00  0.00    +0.000 C 
BRANCH  20  21
ATOM     21  C   UNL     1       2.759   6.584  18.527  0.00  0.00    +0.000 A 
ATOM     22  C   UNL     1       1.673   5.732  18.416  0.00  0.00    +0.000 A 
ATOM     23  C   UNL     1       2.105   4.410  18.655  0.00  0.00    +0.000 A 
ATOM     24  C   UNL     1       1.451   3.163  18.655  0.00  0.00    +0.000 A 
ATOM     25  C   UNL     1       2.138   2.031  19.096  0.00  0.00    +0.000 A 
ATOM     26  C   UNL     1       3.456   2.136  19.535  0.00  0.00    +0.000 A 
ATOM     27  C   UNL     1       4.154   3.349  19.453  0.00  0.00    +0.000 A 
ATOM     28  C   UNL     1       3.463   4.473  18.971  0.00  0.00    +0.000 A 
ATOM     29  N   UNL     1       3.868   5.761  18.625  0.00  0.00    +0.000 N 
BRANCH  29  30
ATOM     30  C   UNL     1       5.229   6.111  18.201  0.00  0.00    +0.000 C 
BRANCH  30  31
ATOM     31  C   UNL     1       5.567   5.533  16.838  0.00  0.00    +0.000 A 
ATOM     32  C   UNL     1       5.151   6.175  15.664  0.00  0.00    +0.000 A 
ATOM     33  C   UNL     1       5.483   5.653  14.407  0.00  0.00    +0.000 A 
ATOM     34  C   UNL     1       6.241   4.483  14.298  0.00  0.00    +0.000 A 
ATOM     35  C   UNL     1       6.625   3.918  12.963  0.00  0.00    +0.000 C 
ATOM     36  C   UNL     1       6.649   3.833  15.468  0.00  0.00    +0.000 A 
ATOM     37  C   UNL     1       6.324   4.358  16.721  0.00  0.00    +0.000 A 
ENDBRANCH  30  31
ENDBRANCH  29  30
ENDBRANCH  20  21
ENDBRANCH   4  20
TORSDOF 8
ENDMDL
MODEL 3
REMARK VINA RESULT:      -8.5      1.091      1.248
REMARK  Name = 
REMARK  10 active torsions:
REMARK  status: ('A' for Active; 'I' for Inactive)
REMARK    1  A    between atoms: C_1  and  O_2
REMARK    2  A    between atoms: O_2  and  C_3
REMARK    3  A    between atoms: C_7  and  C_8
REMARK    4  A    between atoms: C_8  and  N_9
REMARK    5  A    between atoms: C_10  and  C_12
REMARK    6  A    between atoms: N_15  and  C_16
REMARK    7  A    between atoms: C_16  and  C_17
REMARK    8  A    between atoms: N_25  and  C_26
REMARK    9  A    between atoms: C_26  and  C_27
REMARK   10  A    between atoms: C_30  and  C_31
REMARK                            x       y       z     vdW  Elec       q    Type
REMARK                         _______ _______ _______ _____ _____    ______ ____
ROOT
ATOM      1  C   UNL     1      -0.621  10.239  20.347  0.00  0.00    +0.000 C 
ATOM      2  C   UNL     1      -0.329   8.967  21.157  0.00  0.00    +0.000 C 
ATOM      3  C   UNL     1       1.080   8.416  20.916  0.00  0.00    +0.000 C 
ATOM      4  N   UNL     1       1.392   8.263  19.475  0.00  0.00    +0.000 NA
ATOM      5  C   UNL     1       1.288   9.576  18.825  0.00  0.00    +0.000 C 
ATOM      6  C   UNL     1      -0.176  10.030  18.895  0.00  0.00    +0.000 C 
ENDROOT
BRANCH   1   8
ATOM      7  N   UNL     1      -0.323  12.658  20.313  0.00  0.00    +0.000 N 
ATOM      8  C   UNL     1       0.032  11.487  20.946  0.00  0.00    +0.000 C 
ATOM      9  O   UNL     1       0.790  11.454  21.911  0.00  0.00    +0.000 OA
ATOM     10  H   UNL     1      -0.886  12.624  19.474  0.00  0.00    +0.000 HD
BRANCH   7  11
ATOM     11  C   UNL     1       0.297  13.919  20.644  0.00  0.00    +0.000 C 
BRANCH  11  16
ATOM     12  C   UNL     1       2.607  15.901  18.334  0.00  0.00    +0.000 A 
ATOM     13  C   UNL     1       3.364  14.867  17.779  0.00  0.00    +0.000 A 
ATOM     14  C   UNL     1       3.157  13.545  18.170  0.00  0.00    +0.000 A 
ATOM     15  C   UNL     1       2.174  13.246  19.111  0.00  0.00    +0.000 A 
ATOM     16  C   UNL     1       1.384  14.266  19.660  0.00  0.00    +0.000 A 
ATOM     17  C   UNL     1       1.626  15.599  19.284  0.00  0.00    +0.000 A 
BRANCH  12  19
ATOM     18  C   UNL     1       2.094  17.661  16.814  0.00  0.00    +0.000 C 
ATOM     19  O   UNL     1       2.912  17.147  17.856  0.00  0.00    +0.000 OA
ENDBRANCH  12  19
ENDBRANCH  11  16
ENDBRANCH   7  11
ENDBRANCH   1   8
BRANCH   4  20
ATOM     20  C   UNL     1       2.732   7.657  19.369  0.00  0.00    +0.000 C 
BRANCH  20  21
ATOM     21  C   UNL     1       2.807   6.182  19.119  0.00  0.00    +0.000 A 
ATOM     22  C   UNL     1       1.752   5.349  18.787  0.00  0.00    +0.000 A 
ATOM     23  C   UNL     1       2.230   4.025  18.689  0.00  0.00    +0.000 A 
ATOM     24  C   UNL     1       1.621   2.796  18.368  0.00  0.00    +0.000 A 
ATOM     25  C   UNL     1       2.348   1.615  18.516  0.00  0.00    +0.000 A 
ATOM     26  C   UNL     1       3.661   1.650  18.979  0.00  0.00    +0.000 A 
ATOM     27  C   UNL     1       4.315   2.867  19.212  0.00  0.00    +0.000 A 
ATOM     28  C   UNL     1       3.585   4.053  19.024  0.00  0.00    +0.000 A 
ATOM     29  N   UNL     1       3.944   5.400  19.018  0.00  0.00    +0.000 N 
BRANCH  29  30
ATOM     30  C   UNL     1       5.293   5.891  18.708  0.00  0.00    +0.000 C 
BRANCH  30  31
ATOM     31  C   UNL     1       5.741   5.485  17.316  0.00  0.00    +0.000 A 
ATOM     32  C   UNL     1       6.876   4.684  17.133  0.00  0.00    +0.000 A 
ATOM     33  C   UNL     1       7.275   4.290  15.848  0.00  0.00    +0.000 A 
ATOM     34  C   UNL     1       6.546   4.687  14.722  0.00  0.00    +0.000 A 
ATOM     35  C   UNL     1       6.943   4.262  13.340  0.00  0.00    +0.000 C 
ATOM     36  C   UNL     1       5.419   5.497  14.900  0.00  0.00    +0.000 A 
ATOM     37  C   UNL     1       5.017   5.882  16.181  0.00  0.00    +0.000 A 
ENDBRANCH  30  31
ENDBRANCH  29  30
ENDBRANCH  20  21
ENDBRANCH   4  20
TORSDOF 8
ENDMDL
MODEL 4
REMARK VINA RESULT:      -8.4      1.448      1.907
REMARK  Name = 
REMARK  10 active torsions:
REMARK  status: ('A' for Active; 'I' for Inactive)
REMARK    1  A    between atoms: C_1  and  O_2
REMARK    2  A    between atoms: O_2  and  C_3
REMARK    3  A    between atoms: C_7  and  C_8
REMARK    4  A    between atoms: C_8  and  N_9
REMARK    5  A    between atoms: C_10  and  C_12
REMARK    6  A    between atoms: N_15  and  C_16
REMARK    7  A    between atoms: C_16  and  C_17
REMARK    8  A    between atoms: N_25  and  C_26
REMARK    9  A    between atoms: C_26  and  C_27
REMARK   10  A    between atoms: C_30  and  C_31
REMARK                            x       y       z     vdW  Elec       q    Type
REMARK                         _______ _______ _______ _____ _____    ______ ____
ROOT
ATOM      1  C   UNL     1      -0.020  10.612  19.750  0.00  0.00    +0.000 C 
ATOM      2  C   UNL     1       0.126   9.163  20.234  0.00  0.00    +0.000 C 
ATOM      3  C   UNL     1       1.455   8.524  19.818  0.00  0.00    +0.000 C 
ATOM      4  N   UNL     1       1.729   8.675  18.369  0.00  0.00    +0.000 NA
ATOM      5  C   UNL     1       1.777  10.107  18.042  0.00  0.00    +0.000 C 
ATOM      6  C   UNL     1       0.380  10.698  18.273  0.00  0.00    +0.000 C 
ENDROOT
BRANCH   1   8
ATOM      7  N   UNL     1       0.784  12.888  20.095  0.00  0.00    +0.000 N 
ATOM      8  C   UNL     1       0.786  11.603  20.594  0.00  0.00    +0.000 C 
ATOM      9  O   UNL     1       1.370  11.291  21.627  0.00  0.00    +0.000 OA
ATOM     10  H   UNL     1       0.355  13.078  19.200  0.00  0.00    +0.000 HD
BRANCH   7  11
ATOM     11  C   UNL     1       1.600  13.929  20.674  0.00  0.00    +0.000 C 
BRANCH  11  16
ATOM     12  C   UNL     1       5.007  14.984  19.305  0.00  0.00    +0.000 A 
ATOM     13  C   UNL     1       4.691  15.193  17.961  0.00  0.00    +0.000 A 
ATOM     14  C   UNL     1       3.399  14.963  17.490  0.00  0.00    +0.000 A 
ATOM     15  C   UNL     1       2.406  14.538  18.370  0.00  0.00    +0.000 A 
ATOM     16  C   UNL     1       2.696  14.348  19.729  0.00  0.00    +0.000 A 
ATOM     17  C   UNL     1       4.011  14.549  20.184  0.00  0.00    +0.000 A 
BRANCH  12  19
ATOM     18  C   UNL     1       6.551  16.362  20.481  0.00  0.00    +0.000 C 
ATOM     19  O   UNL     1       6.310  15.252  19.628  0.00  0.00    +0.000 OA
ENDBRANCH  12  19
ENDBRANCH  11  16
ENDBRANCH   7  11
ENDBRANCH   1   8
BRANCH   4  20
ATOM     20  C   UNL     1       2.984   7.960  18.074  0.00  0.00    +0.000 C 
BRANCH  20  21
ATOM     21  C   UNL     1       2.983   6.470  18.224  0.00  0.00    +0.000 A 
ATOM     22  C   UNL     1       1.887   5.632  18.110  0.00  0.00    +0.000 A 
ATOM     23  C   UNL     1       2.297   4.307  18.372  0.00  0.00    +0.000 A 
ATOM     24  C   UNL     1       1.626   3.069  18.380  0.00  0.00    +0.000 A 
ATOM     25  C   UNL     1       2.292   1.935  18.844  0.00  0.00    +0.000 A 
ATOM     26  C   UNL     1       3.605   2.026  19.299  0.00  0.00    +0.000 A 
ATOM     27  C   UNL     1       4.320   3.229  19.210  0.00  0.00    +0.000 A 
ATOM     28  C   UNL     1       3.652   4.356  18.705  0.00  0.00    +0.000 A 
ATOM     29  N   UNL     1       4.079   5.634  18.348  0.00  0.00    +0.000 N 
BRANCH  29  30
ATOM     30  C   UNL     1       5.451   5.959  17.937  0.00  0.00    +0.000 C 
BRANCH  30  31
ATOM     31  C   UNL     1       5.777   5.413  16.559  0.00  0.00    +0.000 A 
ATOM     32  C   UNL     1       7.067   5.533  16.026  0.00  0.00    +0.000 A 
ATOM     33  C   UNL     1       7.372   5.007  14.763  0.00  0.00    +0.000 A 
ATOM     34  C   UNL     1       6.395   4.349  14.009  0.00  0.00    +0.000 A 
ATOM     35  C   UNL     1       6.704   3.762  12.664  0.00  0.00    +0.000 C 
ATOM     36  C   UNL     1       5.103   4.237  14.533  0.00  0.00    +0.000 A 
ATOM     37  C   UNL     1       4.801   4.754  15.795  0.00  0.00    +0.000 A 
ENDBRANCH  30  31
ENDBRANCH  29  30
ENDBRANCH  20  21
ENDBRANCH   4  20
TORSDOF 8
ENDMDL
MODEL 5
REMARK VINA RESULT:      -8.3      1.805      2.252
REMARK  Name = 
REMARK  10 active torsions:
REMARK  status: ('A' for Active; 'I' for Inactive)
REMARK    1  A    between atoms: C_1  and  O_2
REMARK    2  A    between atoms: O_2  and  C_3
REMARK    3  A    between atoms: C_7  and  C_8
REMARK    4  A    between atoms: C_8  and  N_9
REMARK    5  A    between atoms: C_10  and  C_12
REMARK    6  A    between atoms: N_15  and  C_16
REMARK    7  A    between atoms: C_16  and  C_17
REMARK    8  A    between atoms: N_25  and  C_26
REMARK    9  A    between atoms: C_26  and  C_27
REMARK   10  A    between atoms: C_30  and  C_31
REMARK                            x       y       z     vdW  Elec       q    Type
REMARK                         _______ _______ _______ _____ _____    ______ ____
ROOT
ATOM      1  C   UNL     1      -0.479  10.426  20.140  0.00  0.00    +0.000 C 
ATOM      2  C   UNL     1       0.101   9.227  20.902  0.00  0.00    +0.000 C 
ATOM      3  C   UNL     1       1.409   8.708  20.295  0.00  0.00    +0.000 C 
ATOM      4  N   UNL     1       1.300   8.463  18.836  0.00  0.00    +0.000 NA
ATOM      5  C   UNL     1       0.944   9.722  18.169  0.00  0.00    +0.000 C 
ATOM      6  C   UNL     1      -0.460  10.130  18.636  0.00  0.00    +0.000 C 
ENDROOT
BRANCH   1   8
ATOM      7  N   UNL     1       0.128  12.688  19.460  0.00  0.00    +0.000 N 
ATOM      8  C   UNL     1       0.251  11.735  20.449  0.00  0.00    +0.000 C 
ATOM      9  O   UNL     1       0.877  11.930  21.487  0.00  0.00    +0.000 OA
ATOM     10  H   UNL     1      -0.329  12.451  18.591  0.00  0.00    +0.000 HD
BRANCH   7  11
ATOM     11  C   UNL     1       0.859  13.931  19.507  0.00  0.00    +0.000 C 
BRANCH  11  16
ATOM     12  C   UNL     1      -2.072  16.241  20.329  0.00  0.00    +0.000 A 
ATOM     13  C   UNL     1      -1.833  17.288  19.436  0.00  0.00    +0.000 A 
ATOM     14  C   UNL     1      -0.717  17.268  18.600  0.00  0.00    +0.000 A 
ATOM     15  C   UNL     1       0.160  16.186  18.639  0.00  0.00    +0.000 A 
ATOM     16  C   UNL     1      -0.076  15.112  19.509  0.00  0.00    +0.000 A 
ATOM     17  C   UNL     1      -1.185  15.160  20.372  0.00  0.00    +0.000 A 
BRANCH  12  19
ATOM     18  C   UNL     1      -4.012  15.236  21.275  0.00  0.00    +0.000 C 
ATOM     19  O   UNL     1      -3.203  16.389  21.085  0.00  0.00    +0.000 OA
ENDBRANCH  12  19
ENDBRANCH  11  16
ENDBRANCH   7  11
ENDBRANCH   1   8
BRANCH   4  20
ATOM     20  C   UNL     1       2.584   7.897  18.381  0.00  0.00    +0.000 C 
BRANCH  20  21
ATOM     21  C   UNL     1       2.735   6.407  18.418  0.00  0.00    +0.000 A 
ATOM     22  C   UNL     1       1.733   5.473  18.218  0.00  0.00    +0.000 A 
ATOM     23  C   UNL     1       2.274   4.180  18.388  0.00  0.00    +0.000 A 
ATOM     24  C   UNL     1       1.735   2.884  18.288  0.00  0.00    +0.000 A 
ATOM     25  C   UNL     1       2.507   1.790  18.680  0.00  0.00    +0.000 A 
ATOM     26  C   UNL     1       3.797   1.980  19.170  0.00  0.00    +0.000 A 
ATOM     27  C   UNL     1       4.386   3.253  19.188  0.00  0.00    +0.000 A 
ATOM     28  C   UNL     1       3.611   4.342  18.754  0.00  0.00    +0.000 A 
ATOM     29  N   UNL     1       3.909   5.680  18.503  0.00  0.00    +0.000 N 
BRANCH  29  30
ATOM     30  C   UNL     1       5.246   6.174  18.149  0.00  0.00    +0.000 C 
BRANCH  30  31
ATOM     31  C   UNL     1       5.713   5.640  16.807  0.00  0.00    +0.000 A 
ATOM     32  C   UNL     1       6.776   4.730  16.728  0.00  0.00    +0.000 A 
ATOM     33  C   UNL     1       7.191   4.220  15.490  0.00  0.00    +0.000 A 
ATOM     34  C   UNL     1       6.549   4.605  14.308  0.00  0.00    +0.000 A 
ATOM     35  C   UNL     1       6.963   4.056  12.975  0.00  0.00    +0.000 C 
ATOM     36  C   UNL     1       5.494   5.521  14.383  0.00  0.00    +0.000 A 
ATOM     37  C   UNL     1       5.076   6.023  15.617  0.00  0.00    +0.000 A 
ENDBRANCH  30  31
ENDBRANCH  29  30
ENDBRANCH  20  21
ENDBRANCH   4  20
TORSDOF 8
ENDMDL
MODEL 6
REMARK VINA RESULT:      -8.3      1.384      1.897
REMARK  Name = 
REMARK  10 active torsions:
REMARK  status: ('A' for Active; 'I' for Inactive)
REMARK    1  A    between atoms: C_1  and  O_2
REMARK    2  A    between atoms: O_2  and  C_3
REMARK    3  A    between atoms: C_7  and  C_8
REMARK    4  A    between atoms: C_8  and  N_9
REMARK    5  A    between atoms: C_10  and  C_12
REMARK    6  A    between atoms: N_15  and  C_16
REMARK    7  A    between atoms: C_16  and  C_17
REMARK    8  A    between atoms: N_25  and  C_26
REMARK    9  A    between atoms: C_26  and  C_27
REMARK   10  A    between atoms: C_30  and  C_31
REMARK                            x       y       z     vdW  Elec       q    Type
REMARK                         _______ _______ _______ _____ _____    ______ ____
ROOT
ATOM      1  C   UNL     1       0.267  10.758  18.856  0.00  0.00    +0.000 C 
ATOM      2  C   UNL     1      -0.236   9.999  20.092  0.00  0.00    +0.000 C 
ATOM      3  C   UNL     1       0.818   9.057  20.685  0.00  0.00    +0.000 C 
ATOM      4  N   UNL     1       1.418   8.163  19.666  0.00  0.00    +0.000 NA
ATOM      5  C   UNL     1       2.057   8.985  18.630  0.00  0.00    +0.000 C 
ATOM      6  C   UNL     1       0.962   9.777  17.905  0.00  0.00    +0.000 C 
ENDROOT
BRANCH   1   8
ATOM      7  N   UNL     1       1.495  12.740  18.143  0.00  0.00    +0.000 N 
ATOM      8  C   UNL     1       1.192  11.925  19.212  0.00  0.00    +0.000 C 
ATOM      9  O   UNL     1       1.616  12.128  20.345  0.00  0.00    +0.000 OA
ATOM     10  H   UNL     1       1.186  12.485  17.215  0.00  0.00    +0.000 HD
BRANCH   7  11
ATOM     11  C   UNL     1       2.460  13.808  18.250  0.00  0.00    +0.000 C 
BRANCH  11  16
ATOM     12  C   UNL     1       1.948  17.370  19.533  0.00  0.00    +0.000 A 
ATOM     13  C   UNL     1       0.553  17.437  19.556  0.00  0.00    +0.000 A 
ATOM     14  C   UNL     1      -0.218  16.357  19.129  0.00  0.00    +0.000 A 
ATOM     15  C   UNL     1       0.406  15.190  18.691  0.00  0.00    +0.000 A 
ATOM     16  C   UNL     1       1.804  15.092  18.686  0.00  0.00    +0.000 A 
ATOM     17  C   UNL     1       2.571  16.201  19.086  0.00  0.00    +0.000 A 
BRANCH  12  19
ATOM     18  C   UNL     1       2.756  18.627  21.387  0.00  0.00    +0.000 C 
ATOM     19  O   UNL     1       2.577  18.500  19.983  0.00  0.00    +0.000 OA
ENDBRANCH  12  19
ENDBRANCH  11  16
ENDBRANCH   7  11
ENDBRANCH   1   8
BRANCH   4  20
ATOM     20  C   UNL     1       2.352   7.257  20.361  0.00  0.00    +0.000 C 
BRANCH  20  21
ATOM     21  C   UNL     1       2.516   5.875  19.808  0.00  0.00    +0.000 A 
ATOM     22  C   UNL     1       1.508   5.053  19.334  0.00  0.00    +0.000 A 
ATOM     23  C   UNL     1       2.070   3.816  18.952  0.00  0.00    +0.000 A 
ATOM     24  C   UNL     1       1.534   2.639  18.397  0.00  0.00    +0.000 A 
ATOM     25  C   UNL     1       2.343   1.509  18.278  0.00  0.00    +0.000 A 
ATOM     26  C   UNL     1       3.667   1.544  18.709  0.00  0.00    +0.000 A 
ATOM     27  C   UNL     1       4.247   2.733  19.175  0.00  0.00    +0.000 A 
ATOM     28  C   UNL     1       3.432   3.875  19.254  0.00  0.00    +0.000 A 
ATOM     29  N   UNL     1       3.699   5.217  19.520  0.00  0.00    +0.000 N 
BRANCH  29  30
ATOM     30  C   UNL     1       4.999   5.859  19.289  0.00  0.00    +0.000 C 
BRANCH  30  31
ATOM     31  C   UNL     1       5.530   5.584  17.894  0.00  0.00    +0.000 A 
ATOM     32  C   UNL     1       6.686   4.814  17.705  0.00  0.00    +0.000 A 
ATOM     33  C   UNL     1       7.162   4.541  16.415  0.00  0.00    +0.000 A 
ATOM     34  C   UNL     1       6.490   5.028  15.289  0.00  0.00    +0.000 A 
ATOM     35  C   UNL     1       6.970   4.731  13.899  0.00  0.00    +0.000 C 
ATOM     36  C   UNL     1       5.342   5.806  15.474  0.00  0.00    +0.000 A 
ATOM     37  C   UNL     1       4.864   6.071  16.759  0.00  0.00    +0.000 A 
ENDBRANCH  30  31
ENDBRANCH  29  30
ENDBRANCH  20  21
ENDBRANCH   4  20
TORSDOF 8
ENDMDL
MODEL 7
REMARK VINA RESULT:      -8.2      2.925      4.195
REMARK  Name = 
REMARK  10 active torsions:
REMARK  status: ('A' for Active; 'I' for Inactive)
REMARK    1  A    between atoms: C_1  and  O_2
REMARK    2  A    between atoms: O_2  and  C_3
REMARK    3  A    between atoms: C_7  and  C_8
REMARK    4  A    between atoms: C_8  and  N_9
REMARK    5  A    between atoms: C_10  and  C_12
REMARK    6  A    between atoms: N_15  and  C_16
REMARK    7  A    between atoms: C_16  and  C_17
REMARK    8  A    between atoms: N_25  and  C_26
REMARK    9  A    between atoms: C_26  and  C_27
REMARK   10  A    between atoms: C_30  and  C_31
REMARK                            x       y       z     vdW  Elec       q    Type
REMARK                         _______ _______ _______ _____ _____    ______ ____
ROOT
ATOM      1  C   UNL     1       1.039  10.911  20.641  0.00  0.00    +0.000 C 
ATOM      2  C   UNL     1       1.612  11.284  19.267  0.00  0.00    +0.000 C 
ATOM      3  C   UNL     1       1.550  10.132  18.259  0.00  0.00    +0.000 C 
ATOM      4  N   UNL     1       2.122   8.875  18.798  0.00  0.00    +0.000 NA
ATOM      5  C   UNL     1       1.370   8.486  19.998  0.00  0.00    +0.000 C 
ATOM      6  C   UNL     1       1.603   9.553  21.075  0.00  0.00    +0.000 C 
ENDROOT
BRANCH   1   8
ATOM      7  N   UNL     1      -1.065  11.967  20.006  0.00  0.00    +0.000 N 
ATOM      8  C   UNL     1      -0.492  10.899  20.662  0.00  0.00    +0.000 C 
ATOM      9  O   UNL     1      -1.152  10.016  21.200  0.00  0.00    +0.000 OA
ATOM     10  H   UNL     1      -0.479  12.709  19.649  0.00  0.00    +0.000 HD
BRANCH   7  11
ATOM     11  C   UNL     1      -2.489  12.203  20.037  0.00  0.00    +0.000 C 
BRANCH  11  16
ATOM     12  C   UNL     1      -2.969  11.070  16.420  0.00  0.00    +0.000 A 
ATOM     13  C   UNL     1      -4.359  11.151  16.307  0.00  0.00    +0.000 A 
ATOM     14  C   UNL     1      -5.139  11.534  17.397  0.00  0.00    +0.000 A 
ATOM     15  C   UNL     1      -4.529  11.857  18.607  0.00  0.00    +0.000 A 
ATOM     16  C   UNL     1      -3.134  11.809  18.734  0.00  0.00    +0.000 A 
ATOM     17  C   UNL     1      -2.360  11.387  17.638  0.00  0.00    +0.000 A 
BRANCH  12  19
ATOM     18  C   UNL     1      -3.117  10.060  14.268  0.00  0.00    +0.000 C 
ATOM     19  O   UNL     1      -2.330  10.686  15.272  0.00  0.00    +0.000 OA
ENDBRANCH  12  19
ENDBRANCH  11  16
ENDBRANCH   7  11
ENDBRANCH   1   8
BRANCH   4  20
ATOM     20  C   UNL     1       2.079   7.867  17.722  0.00  0.00    +0.000 C 
BRANCH  20  21
ATOM     21  C   UNL     1       2.217   6.428  18.115  0.00  0.00    +0.000 A 
ATOM     22  C   UNL     1       1.254   5.443  17.982  0.00  0.00    +0.000 A 
ATOM     23  C   UNL     1       1.757   4.238  18.518  0.00  0.00    +0.000 A 
ATOM     24  C   UNL     1       1.235   2.936  18.632  0.00  0.00    +0.000 A 
ATOM     25  C   UNL     1       1.934   1.981  19.371  0.00  0.00    +0.000 A 
ATOM     26  C   UNL     1       3.134   2.315  19.994  0.00  0.00    +0.000 A 
ATOM     27  C   UNL     1       3.718   3.577  19.814  0.00  0.00    +0.000 A 
ATOM     28  C   UNL     1       3.024   4.518  19.035  0.00  0.00    +0.000 A 
ATOM     29  N   UNL     1       3.362   5.775  18.537  0.00  0.00    +0.000 N 
BRANCH  29  30
ATOM     30  C   UNL     1       4.739   6.219  18.286  0.00  0.00    +0.000 C 
BRANCH  30  31
ATOM     31  C   UNL     1       5.291   5.653  16.990  0.00  0.00    +0.000 A 
ATOM     32  C   UNL     1       6.009   4.450  16.980  0.00  0.00    +0.000 A 
ATOM     33  C   UNL     1       6.499   3.918  15.780  0.00  0.00    +0.000 A 
ATOM     34  C   UNL     1       6.276   4.575  14.565  0.00  0.00    +0.000 A 
ATOM     35  C   UNL     1       6.773   4.013  13.266  0.00  0.00    +0.000 C 
ATOM     36  C   UNL     1       5.569   5.782  14.572  0.00  0.00    +0.000 A 
ATOM     37  C   UNL     1       5.075   6.308  15.768  0.00  0.00    +0.000 A 
ENDBRANCH  30  31
ENDBRANCH  29  30
ENDBRANCH  20  21
ENDBRANCH   4  20
TORSDOF 8
ENDMDL
MODEL 8
REMARK VINA RESULT:      -8.1      2.810      4.131
REMARK  Name = 
REMARK  10 active torsions:
REMARK  status: ('A' for Active; 'I' for Inactive)
REMARK    1  A    between atoms: C_1  and  O_2
REMARK    2  A    between atoms: O_2  and  C_3
REMARK    3  A    between atoms: C_7  and  C_8
REMARK    4  A    between atoms: C_8  and  N_9
REMARK    5  A    between atoms: C_10  and  C_12
REMARK    6  A    between atoms: N_15  and  C_16
REMARK    7  A    between atoms: C_16  and  C_17
REMARK    8  A    between atoms: N_25  and  C_26
REMARK    9  A    between atoms: C_26  and  C_27
REMARK   10  A    between atoms: C_30  and  C_31
REMARK                            x       y       z     vdW  Elec       q    Type
REMARK                         _______ _______ _______ _____ _____    ______ ____
ROOT
ATOM      1  C   UNL     1      -0.194  10.708  18.979  0.00  0.00    +0.000 C 
ATOM      2  C   UNL     1      -0.682   9.593  19.915  0.00  0.00    +0.000 C 
ATOM      3  C   UNL     1       0.462   8.759  20.501  0.00  0.00    +0.000 C 
ATOM      4  N   UNL     1       1.396   8.267  19.460  0.00  0.00    +0.000 NA
ATOM      5  C   UNL     1       1.972   9.420  18.755  0.00  0.00    +0.000 C 
ATOM      6  C   UNL     1       0.842  10.136  18.005  0.00  0.00    +0.000 C 
ENDROOT
BRANCH   1   8
ATOM      7  N   UNL     1      -0.219  12.128  20.961  0.00  0.00    +0.000 N 
ATOM      8  C   UNL     1       0.373  11.912  19.736  0.00  0.00    +0.000 C 
ATOM      9  O   UNL     1       1.281  12.614  19.302  0.00  0.00    +0.000 OA
ATOM     10  H   UNL     1      -1.016  11.571  21.238  0.00  0.00    +0.000 HD
BRANCH   7  11
ATOM     11  C   UNL     1       0.084  13.293  21.757  0.00  0.00    +0.000 C 
BRANCH  11  16
ATOM     12  C   UNL     1      -3.170  13.031  23.743  0.00  0.00    +0.000 A 
ATOM     13  C   UNL     1      -3.088  14.184  24.526  0.00  0.00    +0.000 A 
ATOM     14  C   UNL     1      -1.977  15.023  24.442  0.00  0.00    +0.000 A 
ATOM     15  C   UNL     1      -0.946  14.720  23.555  0.00  0.00    +0.000 A 
ATOM     16  C   UNL     1      -1.021  13.582  22.740  0.00  0.00    +0.000 A 
ATOM     17  C   UNL     1      -2.130  12.725  22.860  0.00  0.00    +0.000 A 
BRANCH  12  19
ATOM     18  C   UNL     1      -5.548  13.008  23.864  0.00  0.00    +0.000 C 
ATOM     19  O   UNL     1      -4.316  12.304  23.925  0.00  0.00    +0.000 OA
ENDBRANCH  12  19
ENDBRANCH  11  16
ENDBRANCH   7  11
ENDBRANCH   1   8
BRANCH   4  20
ATOM     20  C   UNL     1       2.402   7.420  20.127  0.00  0.00    +0.000 C 
BRANCH  20  21
ATOM     21  C   UNL     1       2.535   6.004  19.657  0.00  0.00    +0.000 A 
ATOM     22  C   UNL     1       1.510   5.181  19.222  0.00  0.00    +0.000 A 
ATOM     23  C   UNL     1       2.044   3.910  18.919  0.00  0.00    +0.000 A 
ATOM     24  C   UNL     1       1.483   2.716  18.428  0.00  0.00    +0.000 A 
ATOM     25  C   UNL     1       2.264   1.561  18.384  0.00  0.00    +0.000 A 
ATOM     26  C   UNL     1       3.585   1.588  18.825  0.00  0.00    +0.000 A 
ATOM     27  C   UNL     1       4.190   2.788  19.227  0.00  0.00    +0.000 A 
ATOM     28  C   UNL     1       3.404   3.952  19.230  0.00  0.00    +0.000 A 
ATOM     29  N   UNL     1       3.703   5.300  19.420  0.00  0.00    +0.000 N 
BRANCH  29  30
ATOM     30  C   UNL     1       5.021   5.895  19.165  0.00  0.00    +0.000 C 
BRANCH  30  31
ATOM     31  C   UNL     1       5.529   5.576  17.770  0.00  0.00    +0.000 A 
ATOM     32  C   UNL     1       4.869   6.069  16.636  0.00  0.00    +0.000 A 
ATOM     33  C   UNL     1       5.353   5.793  15.350  0.00  0.00    +0.000 A 
ATOM     34  C   UNL     1       6.507   5.023  15.172  0.00  0.00    +0.000 A 
ATOM     35  C   UNL     1       7.054   4.732  13.806  0.00  0.00    +0.000 C 
ATOM     36  C   UNL     1       7.162   4.520  16.301  0.00  0.00    +0.000 A 
ATOM     37  C   UNL     1       6.684   4.802  17.583  0.00  0.00    +0.000 A 
ENDBRANCH  30  31
ENDBRANCH  29  30
ENDBRANCH  20  21
ENDBRANCH   4  20
TORSDOF 8
ENDMDL
MODEL 9
REMARK VINA RESULT:      -8.1      1.893      2.525
REMARK  Name = 
REMARK  10 active torsions:
REMARK  status: ('A' for Active; 'I' for Inactive)
REMARK    1  A    between atoms: C_1  and  O_2
REMARK    2  A    between atoms: O_2  and  C_3
REMARK    3  A    between atoms: C_7  and  C_8
REMARK    4  A    between atoms: C_8  and  N_9
REMARK    5  A    between atoms: C_10  and  C_12
REMARK    6  A    between atoms: N_15  and  C_16
REMARK    7  A    between atoms: C_16  and  C_17
REMARK    8  A    between atoms: N_25  and  C_26
REMARK    9  A    between atoms: C_26  and  C_27
REMARK   10  A    between atoms: C_30  and  C_31
REMARK                            x       y       z     vdW  Elec       q    Type
REMARK                         _______ _______ _______ _____ _____    ______ ____
ROOT
ATOM      1  C   UNL     1      -0.322  10.614  19.122  0.00  0.00    +0.000 C 
ATOM      2  C   UNL     1      -0.436   9.709  20.356  0.00  0.00    +0.000 C 
ATOM      3  C   UNL     1       0.857   8.945  20.660  0.00  0.00    +0.000 C 
ATOM      4  N   UNL     1       1.388   8.233  19.473  0.00  0.00    +0.000 NA
ATOM      5  C   UNL     1       1.663   9.214  18.414  0.00  0.00    +0.000 C 
ATOM      6  C   UNL     1       0.329   9.832  17.976  0.00  0.00    +0.000 C 
ENDROOT
BRANCH   1   8
ATOM      7  N   UNL     1       0.013  12.985  18.659  0.00  0.00    +0.000 N 
ATOM      8  C   UNL     1       0.444  11.909  19.405  0.00  0.00    +0.000 C 
ATOM      9  O   UNL     1       1.349  11.991  20.229  0.00  0.00    +0.000 OA
ATOM     10  H   UNL     1      -0.681  12.848  17.936  0.00  0.00    +0.000 HD
BRANCH   7  11
ATOM     11  C   UNL     1       0.702  14.253  18.684  0.00  0.00    +0.000 C 
BRANCH  11  16
ATOM     12  C   UNL     1      -2.016  16.312  20.408  0.00  0.00    +0.000 A 
ATOM     13  C   UNL     1      -2.024  17.453  19.602  0.00  0.00    +0.000 A 
ATOM     14  C   UNL     1      -1.138  17.574  18.533  0.00  0.00    +0.000 A 
ATOM     15  C   UNL     1      -0.247  16.542  18.250  0.00  0.00    +0.000 A 
ATOM     16  C   UNL     1      -0.240  15.376  19.030  0.00  0.00    +0.000 A 
ATOM     17  C   UNL     1      -1.114  15.281  20.127  0.00  0.00    +0.000 A 
BRANCH  12  19
ATOM     18  C   UNL     1      -2.447  16.286  22.749  0.00  0.00    +0.000 C 
ATOM     19  O   UNL     1      -2.940  16.325  21.417  0.00  0.00    +0.000 OA
ENDBRANCH  12  19
ENDBRANCH  11  16
ENDBRANCH   7  11
ENDBRANCH   1   8
BRANCH   4  20
ATOM     20  C   UNL     1       2.579   7.477  19.901  0.00  0.00    +0.000 C 
BRANCH  20  21
ATOM     21  C   UNL     1       2.667   6.037  19.497  0.00  0.00    +0.000 A 
ATOM     22  C   UNL     1       1.617   5.230  19.093  0.00  0.00    +0.000 A 
ATOM     23  C   UNL     1       2.109   3.929  18.852  0.00  0.00    +0.000 A 
ATOM     24  C   UNL     1       1.510   2.733  18.413  0.00  0.00    +0.000 A 
ATOM     25  C   UNL     1       2.252   1.552  18.427  0.00  0.00    +0.000 A 
ATOM     26  C   UNL     1       3.571   1.555  18.876  0.00  0.00    +0.000 A 
ATOM     27  C   UNL     1       4.214   2.751  19.226  0.00  0.00    +0.000 A 
ATOM     28  C   UNL     1       3.468   3.940  19.171  0.00  0.00    +0.000 A 
ATOM     29  N   UNL     1       3.812   5.284  19.301  0.00  0.00    +0.000 N 
BRANCH  29  30
ATOM     30  C   UNL     1       5.150   5.823  19.028  0.00  0.00    +0.000 C 
BRANCH  30  31
ATOM     31  C   UNL     1       5.616   5.503  17.619  0.00  0.00    +0.000 A 
ATOM     32  C   UNL     1       4.923   5.997  16.505  0.00  0.00    +0.000 A 
ATOM     33  C   UNL     1       5.368   5.721  15.205  0.00  0.00    +0.000 A 
ATOM     34  C   UNL     1       6.514   4.949  14.992  0.00  0.00    +0.000 A 
ATOM     35  C   UNL     1       7.020   4.658  13.610  0.00  0.00    +0.000 C 
ATOM     36  C   UNL     1       7.202   4.445  16.101  0.00  0.00    +0.000 A 
ATOM     37  C   UNL     1       6.764   4.727  17.396  0.00  0.00    +0.000 A 
ENDBRANCH  30  31
ENDBRANCH  29  30
ENDBRANCH  20  21
ENDBRANCH   4  20
TORSDOF 8
ENDMDL
