MODEL 1
REMARK VINA RESULT:      -8.3      0.000      0.000
REMARK  Name = 
REMARK  12 active torsions:
REMARK  status: ('A' for Active; 'I' for Inactive)
REMARK    1  A    between atoms: C_2  and  C_4
REMARK    2  A    between atoms: C_7  and  C_8
REMARK    3  A    between atoms: C_10  and  C_11
REMARK    4  A    between atoms: C_11  and  O_12
REMARK    5  A    between atoms: O_12  and  P_13
REMARK    6  A    between atoms: P_13  and  O_15
REMARK    7  A    between atoms: P_13  and  O_16
REMARK    8  A    between atoms: C_17  and  O_18
REMARK    9  A    between atoms: C_19  and  O_20
REMARK   10  A    between atoms: C_21  and  O_22
REMARK   11  A    between atoms: O_22  and  C_23
REMARK   12  A    between atoms: C_23  and  C_24
REMARK                            x       y       z     vdW  Elec       q    Type
REMARK                         _______ _______ _______ _____ _____    ______ ____
ROOT
ATOM      1  C   UNL     1       2.909   3.463  20.117  0.00  0.00    +0.000 A 
ATOM      2  N   UNL     1       4.076   2.741  20.172  0.00  0.00    +0.000 N 
ATOM      3  N   UNL     1       5.111   3.279  19.505  0.00  0.00    +0.000 NA
ATOM      4  C   UNL     1       4.612   4.425  19.024  0.00  0.00    +0.000 A 
ATOM      5  C   UNL     1       3.254   4.612  19.425  0.00  0.00    +0.000 A 
ATOM      6  H   UNL     1       4.208   1.851  20.641  0.00  0.00    +0.000 HD
ENDROOT
BRANCH   1   8
ATOM      7  N   UNL     1       0.569   2.900  20.073  0.00  0.00    +0.000 N 
ATOM      8  C   UNL     1       1.740   2.894  20.750  0.00  0.00    +0.000 C 
ATOM      9  O   UNL     1       1.787   2.390  21.866  0.00  0.00    +0.000 OA
ATOM     10  H   UNL     1      -0.215   2.456  20.529  0.00  0.00    +0.000 HD
ATOM     11  H   UNL     1       0.529   3.029  19.072  0.00  0.00    +0.000 HD
ENDBRANCH   1   8
BRANCH   4  12
ATOM     12  C   UNL     1       5.469   5.339  18.190  0.00  0.00    +0.000 C 
ATOM     13  O   UNL     1       4.852   5.632  16.904  0.00  0.00    +0.000 OA
ATOM     14  C   UNL     1       5.794   5.364  15.840  0.00  0.00    +0.000 C 
ATOM     15  C   UNL     1       7.161   5.328  16.514  0.00  0.00    +0.000 C 
ATOM     16  C   UNL     1       6.856   4.753  17.890  0.00  0.00    +0.000 C 
BRANCH  15  17
ATOM     17  O   UNL     1       7.693   6.659  16.695  0.00  0.00    +0.000 OA
ATOM     18  H   UNL     1       6.991   7.299  16.466  0.00  0.00    +0.000 HD
ENDBRANCH  15  17
BRANCH  16  19
ATOM     19  O   UNL     1       7.849   5.144  18.841  0.00  0.00    +0.000 OA
ATOM     20  H   UNL     1       8.094   6.064  18.606  0.00  0.00    +0.000 HD
ENDBRANCH  16  19
BRANCH  14  21
ATOM     21  C   UNL     1       5.451   4.053  15.115  0.00  0.00    +0.000 C 
BRANCH  21  22
ATOM     22  O   UNL     1       5.248   4.307  13.725  0.00  0.00    +0.000 OA
BRANCH  22  23
ATOM     23  P   UNL     1       6.025   3.176  12.672  0.00  0.00    +0.000 P 
ATOM     24  O   UNL     1       4.891   3.243  11.651  0.00  0.00    +0.000 OA
BRANCH  23  25
ATOM     25  O   UNL     1       7.063   4.328  12.170  0.00  0.00    +0.000 OA
ATOM     26  H   UNL     1       7.013   4.366  11.198  0.00  0.00    +0.000 HD
ENDBRANCH  23  25
BRANCH  23  27
ATOM     27  O   UNL     1       6.802   2.044  11.618  0.00  0.00    +0.000 OA
ATOM     28  H   UNL     1       6.503   2.337  10.731  0.00  0.00    +0.000 HD
ENDBRANCH  23  27
ENDBRANCH  22  23
ENDBRANCH  21  22
ENDBRANCH  14  21
ENDBRANCH   4  12
BRANCH   5  29
ATOM     29  O   UNL     1       2.521   5.705  19.103  0.00  0.00    +0.000 OA
BRANCH  29  30
ATOM     30  C   UNL     1       2.199   6.598  20.173  0.00  0.00    +0.000 C 
BRANCH  30  31
ATOM     31  C   UNL     1       1.840   7.989  19.716  0.00  0.00    +0.000 A 
ATOM     32  C   UNL     1       2.136   8.368  18.396  0.00  0.00    +0.000 A 
ATOM     33  C   UNL     1       1.705   9.596  17.895  0.00  0.00    +0.000 A 
ATOM     34  C   UNL     1       0.968  10.454  18.708  0.00  0.00    +0.000 A 
ATOM     35  C   UNL     1       0.665  10.086  20.016  0.00  0.00    +0.000 A 
ATOM     36  C   UNL     1       1.091   8.856  20.518  0.00  0.00    +0.000 A 
ENDBRANCH  30  31
ENDBRANCH  29  30
ENDBRANCH   5  29
TORSDOF 12
ENDMDL
MODEL 2
REMARK VINA RESULT:      -7.9      1.007      1.077
REMARK  Name = 
REMARK  12 active torsions:
REMARK  status: ('A' for Active; 'I' for Inactive)
REMARK    1  A    between atoms: C_2  and  C_4
REMARK    2  A    between atoms: C_7  and  C_8
REMARK    3  A    between atoms: C_10  and  C_11
REMARK    4  A    between atoms: C_11  and  O_12
REMARK    5  A    between atoms: O_12  and  P_13
REMARK    6  A    between atoms: P_13  and  O_15
REMARK    7  A    between atoms: P_13  and  O_16
REMARK    8  A    between atoms: C_17  and  O_18
REMARK    9  A    between atoms: C_19  and  O_20
REMARK   10  A    between atoms: C_21  and  O_22
REMARK   11  A    between atoms: O_22  and  C_23
REMARK   12  A    between atoms: C_23  and  C_24
REMARK                            x       y       z     vdW  Elec       q    Type
REMARK                         _______ _______ _______ _____ _____    ______ ____
ROOT
ATOM      1  C   UNL     1       2.893   3.304  19.540  0.00  0.00    +0.000 A 
ATOM      2  N   UNL     1       4.067   2.631  19.782  0.00  0.00    +0.000 N 
ATOM      3  N   UNL     1       5.186   3.337  19.552  0.00  0.00    +0.000 NA
ATOM      4  C   UNL     1       4.728   4.540  19.181  0.00  0.00    +0.000 A 
ATOM      5  C   UNL     1       3.301   4.586  19.210  0.00  0.00    +0.000 A 
ATOM      6  H   UNL     1       4.152   1.667  20.086  0.00  0.00    +0.000 HD
ENDROOT
BRANCH   1   8
ATOM      7  N   UNL     1       1.331   1.649  18.758  0.00  0.00    +0.000 N 
ATOM      8  C   UNL     1       1.658   2.569  19.693  0.00  0.00    +0.000 C 
ATOM      9  O   UNL     1       0.914   2.744  20.652  0.00  0.00    +0.000 OA
ATOM     10  H   UNL     1       0.482   1.126  18.921  0.00  0.00    +0.000 HD
ATOM     11  H   UNL     1       2.016   1.262  18.125  0.00  0.00    +0.000 HD
ENDBRANCH   1   8
BRANCH   4  12
ATOM     12  C   UNL     1       5.686   5.642  18.817  0.00  0.00    +0.000 C 
ATOM     13  O   UNL     1       5.555   6.031  17.421  0.00  0.00    +0.000 OA
ATOM     14  C   UNL     1       6.853   6.008  16.785  0.00  0.00    +0.000 C 
ATOM     15  C   UNL     1       7.860   6.033  17.929  0.00  0.00    +0.000 C 
ATOM     16  C   UNL     1       7.156   5.254  19.031  0.00  0.00    +0.000 C 
BRANCH  15  17
ATOM     17  O   UNL     1       8.082   7.378  18.406  0.00  0.00    +0.000 OA
ATOM     18  H   UNL     1       8.912   7.384  18.921  0.00  0.00    +0.000 HD
ENDBRANCH  15  17
BRANCH  16  19
ATOM     19  O   UNL     1       7.654   5.623  20.319  0.00  0.00    +0.000 OA
ATOM     20  H   UNL     1       6.862   5.806  20.867  0.00  0.00    +0.000 HD
ENDBRANCH  16  19
BRANCH  14  21
ATOM     21  C   UNL     1       7.005   4.773  15.882  0.00  0.00    +0.000 C 
BRANCH  21  22
ATOM     22  O   UNL     1       5.942   4.735  14.930  0.00  0.00    +0.000 OA
BRANCH  22  23
ATOM     23  P   UNL     1       6.255   3.739  13.551  0.00  0.00    +0.000 P 
ATOM     24  O   UNL     1       4.917   4.094  12.906  0.00  0.00    +0.000 OA
BRANCH  23  25
ATOM     25  O   UNL     1       7.279   4.855  12.953  0.00  0.00    +0.000 OA
ATOM     26  H   UNL     1       6.861   5.248  12.165  0.00  0.00    +0.000 HD
ENDBRANCH  23  25
BRANCH  23  27
ATOM     27  O   UNL     1       6.566   2.742  12.171  0.00  0.00    +0.000 OA
ATOM     28  H   UNL     1       5.684   2.679  11.748  0.00  0.00    +0.000 HD
ENDBRANCH  23  27
ENDBRANCH  22  23
ENDBRANCH  21  22
ENDBRANCH  14  21
ENDBRANCH   4  12
BRANCH   5  29
ATOM     29  O   UNL     1       2.581   5.695  18.913  0.00  0.00    +0.000 OA
BRANCH  29  30
ATOM     30  C   UNL     1       2.197   6.523  20.015  0.00  0.00    +0.000 C 
BRANCH  30  31
ATOM     31  C   UNL     1       1.867   7.941  19.621  0.00  0.00    +0.000 A 
ATOM     32  C   UNL     1       2.136   8.362  18.308  0.00  0.00    +0.000 A 
ATOM     33  C   UNL     1       1.728   9.621  17.867  0.00  0.00    +0.000 A 
ATOM     34  C   UNL     1       1.041  10.468  18.734  0.00  0.00    +0.000 A 
ATOM     35  C   UNL     1       0.765  10.058  20.035  0.00  0.00    +0.000 A 
ATOM     36  C   UNL     1       1.168   8.798  20.478  0.00  0.00    +0.000 A 
ENDBRANCH  30  31
ENDBRANCH  29  30
ENDBRANCH   5  29
TORSDOF 12
ENDMDL
MODEL 3
REMARK VINA RESULT:      -7.9      1.740      2.117
REMARK  Name = 
REMARK  12 active torsions:
REMARK  status: ('A' for Active; 'I' for Inactive)
REMARK    1  A    between atoms: C_2  and  C_4
REMARK    2  A    between atoms: C_7  and  C_8
REMARK    3  A    between atoms: C_10  and  C_11
REMARK    4  A    between atoms: C_11  and  O_12
REMARK    5  A    between atoms: O_12  and  P_13
REMARK    6  A    between atoms: P_13  and  O_15
REMARK    7  A    between atoms: P_13  and  O_16
REMARK    8  A    between atoms: C_17  and  O_18
REMARK    9  A    between atoms: C_19  and  O_20
REMARK   10  A    between atoms: C_21  and  O_22
REMARK   11  A    between atoms: O_22  and  C_23
REMARK   12  A    between atoms: C_23  and  C_24
REMARK                            x       y       z     vdW  Elec       q    Type
REMARK                         _______ _______ _______ _____ _____    ______ ____
ROOT
ATOM      1  C   UNL     1       3.298   3.469  18.642  0.00  0.00    +0.000 A 
ATOM      2  N   UNL     1       4.440   2.771  18.952  0.00  0.00    +0.000 N 
ATOM      3  N   UNL     1       5.538   3.524  19.128  0.00  0.00    +0.000 NA
ATOM      4  C   UNL     1       5.090   4.775  18.965  0.00  0.00    +0.000 A 
ATOM      5  C   UNL     1       3.684   4.797  18.713  0.00  0.00    +0.000 A 
ATOM      6  H   UNL     1       4.522   1.763  19.032  0.00  0.00    +0.000 HD
ENDROOT
BRANCH   1   8
ATOM      7  N   UNL     1       2.087   1.389  18.674  0.00  0.00    +0.000 N 
ATOM      8  C   UNL     1       2.103   2.706  18.363  0.00  0.00    +0.000 C 
ATOM      9  O   UNL     1       1.103   3.221  17.874  0.00  0.00    +0.000 OA
ATOM     10  H   UNL     1       1.220   0.899  18.503  0.00  0.00    +0.000 HD
ATOM     11  H   UNL     1       2.746   0.985  19.324  0.00  0.00    +0.000 HD
ENDBRANCH   1   8
BRANCH   4  12
ATOM     12  C   UNL     1       6.033   5.944  19.074  0.00  0.00    +0.000 C 
ATOM     13  O   UNL     1       5.813   6.914  18.011  0.00  0.00    +0.000 OA
ATOM     14  C   UNL     1       7.066   7.205  17.351  0.00  0.00    +0.000 C 
ATOM     15  C   UNL     1       8.147   6.737  18.318  0.00  0.00    +0.000 C 
ATOM     16  C   UNL     1       7.510   5.532  18.996  0.00  0.00    +0.000 C 
BRANCH  15  17
ATOM     17  O   UNL     1       8.413   7.730  19.333  0.00  0.00    +0.000 OA
ATOM     18  H   UNL     1       8.291   8.613  18.931  0.00  0.00    +0.000 HD
ENDBRANCH  15  17
BRANCH  16  19
ATOM     19  O   UNL     1       8.096   5.295  20.279  0.00  0.00    +0.000 OA
ATOM     20  H   UNL     1       8.519   4.413  20.218  0.00  0.00    +0.000 HD
ENDBRANCH  16  19
BRANCH  14  21
ATOM     21  C   UNL     1       7.145   6.510  15.983  0.00  0.00    +0.000 C 
BRANCH  21  22
ATOM     22  O   UNL     1       5.928   5.812  15.723  0.00  0.00    +0.000 OA
BRANCH  22  23
ATOM     23  P   UNL     1       6.101   4.433  14.693  0.00  0.00    +0.000 P 
ATOM     24  O   UNL     1       7.613   4.616  14.588  0.00  0.00    +0.000 OA
BRANCH  23  25
ATOM     25  O   UNL     1       5.922   3.436  15.969  0.00  0.00    +0.000 OA
ATOM     26  H   UNL     1       6.264   2.561  15.710  0.00  0.00    +0.000 HD
ENDBRANCH  23  25
BRANCH  23  27
ATOM     27  O   UNL     1       6.274   3.053  13.664  0.00  0.00    +0.000 OA
ATOM     28  H   UNL     1       6.006   3.403  12.788  0.00  0.00    +0.000 HD
ENDBRANCH  23  27
ENDBRANCH  22  23
ENDBRANCH  21  22
ENDBRANCH  14  21
ENDBRANCH   4  12
BRANCH   5  29
ATOM     29  O   UNL     1       2.971   5.937  18.545  0.00  0.00    +0.000 OA
BRANCH  29  30
ATOM     30  C   UNL     1       2.405   6.517  19.723  0.00  0.00    +0.000 C 
BRANCH  30  31
ATOM     31  C   UNL     1       1.942   7.940  19.536  0.00  0.00    +0.000 A 
ATOM     32  C   UNL     1       2.077   8.539  18.272  0.00  0.00    +0.000 A 
ATOM     33  C   UNL     1       1.544   9.803  18.023  0.00  0.00    +0.000 A 
ATOM     34  C   UNL     1       0.866  10.479  19.035  0.00  0.00    +0.000 A 
ATOM     35  C   UNL     1       0.722   9.894  20.290  0.00  0.00    +0.000 A 
ATOM     36  C   UNL     1       1.250   8.627  20.540  0.00  0.00    +0.000 A 
ENDBRANCH  30  31
ENDBRANCH  29  30
ENDBRANCH   5  29
TORSDOF 12
ENDMDL
MODEL 4
REMARK VINA RESULT:      -7.8      3.849      7.394
REMARK  Name = 
REMARK  12 active torsions:
REMARK  status: ('A' for Active; 'I' for Inactive)
REMARK    1  A    between atoms: C_2  and  C_4
REMARK    2  A    between atoms: C_7  and  C_8
REMARK    3  A    between atoms: C_10  and  C_11
REMARK    4  A    between atoms: C_11  and  O_12
REMARK    5  A    between atoms: O_12  and  P_13
REMARK    6  A    between atoms: P_13  and  O_15
REMARK    7  A    between atoms: P_13  and  O_16
REMARK    8  A    between atoms: C_17  and  O_18
REMARK    9  A    between atoms: C_19  and  O_20
REMARK   10  A    between atoms: C_21  and  O_22
REMARK   11  A    between atoms: O_22  and  C_23
REMARK   12  A    between atoms: C_23  and  C_24
REMARK                            x       y       z     vdW  Elec       q    Type
REMARK                         _______ _______ _______ _____ _____    ______ ____
ROOT
ATOM      1  C   UNL     1       7.163   6.409  18.198  0.00  0.00    +0.000 A 
ATOM      2  N   UNL     1       7.187   5.849  19.453  0.00  0.00    +0.000 N 
ATOM      3  N   UNL     1       6.461   4.727  19.590  0.00  0.00    +0.000 NA
ATOM      4  C   UNL     1       5.971   4.519  18.361  0.00  0.00    +0.000 A 
ATOM      5  C   UNL     1       6.425   5.514  17.442  0.00  0.00    +0.000 A 
ATOM      6  H   UNL     1       7.674   6.217  20.263  0.00  0.00    +0.000 HD
ENDROOT
BRANCH   1   8
ATOM      7  N   UNL     1       8.715   8.077  18.975  0.00  0.00    +0.000 N 
ATOM      8  C   UNL     1       7.861   7.661  18.012  0.00  0.00    +0.000 C 
ATOM      9  O   UNL     1       7.716   8.340  17.002  0.00  0.00    +0.000 OA
ATOM     10  H   UNL     1       9.216   8.934  18.790  0.00  0.00    +0.000 HD
ATOM     11  H   UNL     1       9.089   7.445  19.669  0.00  0.00    +0.000 HD
ENDBRANCH   1   8
BRANCH   4  12
ATOM     12  C   UNL     1       5.074   3.341  18.087  0.00  0.00    +0.000 C 
ATOM     13  O   UNL     1       4.090   3.640  17.058  0.00  0.00    +0.000 OA
ATOM     14  C   UNL     1       2.768   3.303  17.537  0.00  0.00    +0.000 C 
ATOM     15  C   UNL     1       2.995   2.366  18.717  0.00  0.00    +0.000 C 
ATOM     16  C   UNL     1       4.292   2.880  19.325  0.00  0.00    +0.000 C 
BRANCH  15  17
ATOM     17  O   UNL     1       3.217   1.009  18.277  0.00  0.00    +0.000 OA
ATOM     18  H   UNL     1       2.624   0.835  17.519  0.00  0.00    +0.000 HD
ENDBRANCH  15  17
BRANCH  16  19
ATOM     19  O   UNL     1       4.958   1.851  20.061  0.00  0.00    +0.000 OA
ATOM     20  H   UNL     1       4.341   1.089  20.068  0.00  0.00    +0.000 HD
ENDBRANCH  16  19
BRANCH  14  21
ATOM     21  C   UNL     1       1.979   4.566  17.919  0.00  0.00    +0.000 C 
BRANCH  21  22
ATOM     22  O   UNL     1       1.453   4.428  19.239  0.00  0.00    +0.000 OA
BRANCH  22  23
ATOM     23  P   UNL     1       1.676   5.816  20.246  0.00  0.00    +0.000 P 
ATOM     24  O   UNL     1       2.184   4.973  21.413  0.00  0.00    +0.000 OA
BRANCH  23  25
ATOM     25  O   UNL     1       3.033   6.209  19.435  0.00  0.00    +0.000 OA
ATOM     26  H   UNL     1       3.792   5.950  19.988  0.00  0.00    +0.000 HD
ENDBRANCH  23  25
BRANCH  23  27
ATOM     27  O   UNL     1       1.899   7.205  21.254  0.00  0.00    +0.000 OA
ATOM     28  H   UNL     1       2.869   7.212  21.398  0.00  0.00    +0.000 HD
ENDBRANCH  23  27
ENDBRANCH  22  23
ENDBRANCH  21  22
ENDBRANCH  14  21
ENDBRANCH   4  12
BRANCH   5  29
ATOM     29  O   UNL     1       6.105   5.519  16.126  0.00  0.00    +0.000 OA
BRANCH  29  30
ATOM     30  C   UNL     1       7.116   5.067  15.220  0.00  0.00    +0.000 C 
BRANCH  30  31
ATOM     31  C   UNL     1       6.568   4.493  13.938  0.00  0.00    +0.000 A 
ATOM     32  C   UNL     1       7.436   4.309  12.849  0.00  0.00    +0.000 A 
ATOM     33  C   UNL     1       7.001   3.662  11.693  0.00  0.00    +0.000 A 
ATOM     34  C   UNL     1       5.693   3.188  11.617  0.00  0.00    +0.000 A 
ATOM     35  C   UNL     1       4.825   3.361  12.692  0.00  0.00    +0.000 A 
ATOM     36  C   UNL     1       5.260   4.003  13.852  0.00  0.00    +0.000 A 
ENDBRANCH  30  31
ENDBRANCH  29  30
ENDBRANCH   5  29
TORSDOF 12
ENDMDL
MODEL 5
REMARK VINA RESULT:      -7.7      1.318      1.340
REMARK  Name = 
REMARK  12 active torsions:
REMARK  status: ('A' for Active; 'I' for Inactive)
REMARK    1  A    between atoms: C_2  and  C_4
REMARK    2  A    between atoms: C_7  and  C_8
REMARK    3  A    between atoms: C_10  and  C_11
REMARK    4  A    between atoms: C_11  and  O_12
REMARK    5  A    between atoms: O_12  and  P_13
REMARK    6  A    between atoms: P_13  and  O_15
REMARK    7  A    between atoms: P_13  and  O_16
REMARK    8  A    between atoms: C_17  and  O_18
REMARK    9  A    between atoms: C_19  and  O_20
REMARK   10  A    between atoms: C_21  and  O_22
REMARK   11  A    between atoms: O_22  and  C_23
REMARK   12  A    between atoms: C_23  and  C_24
REMARK                            x       y       z     vdW  Elec       q    Type
REMARK                         _______ _______ _______ _____ _____    ______ ____
ROOT
ATOM      1  C   UNL     1       2.267   3.432  18.816  0.00  0.00    +0.000 A 
ATOM      2  N   UNL     1       2.876   2.905  17.702  0.00  0.00    +0.000 N 
ATOM      3  N   UNL     1       3.952   3.582  17.268  0.00  0.00    +0.000 NA
ATOM      4  C   UNL     1       4.080   4.573  18.159  0.00  0.00    +0.000 A 
ATOM      5  C   UNL     1       3.082   4.492  19.177  0.00  0.00    +0.000 A 
ATOM      6  H   UNL     1       2.573   2.087  17.185  0.00  0.00    +0.000 HD
ENDROOT
BRANCH   1   8
ATOM      7  N   UNL     1       0.746   2.870  20.595  0.00  0.00    +0.000 N 
ATOM      8  C   UNL     1       1.057   2.792  19.281  0.00  0.00    +0.000 C 
ATOM      9  O   UNL     1       0.300   2.203  18.517  0.00  0.00    +0.000 OA
ATOM     10  H   UNL     1      -0.128   2.448  20.875  0.00  0.00    +0.000 HD
ATOM     11  H   UNL     1       1.158   3.564  21.202  0.00  0.00    +0.000 HD
ENDBRANCH   1   8
BRANCH   4  12
ATOM     12  C   UNL     1       5.185   5.586  18.020  0.00  0.00    +0.000 C 
ATOM     13  O   UNL     1       5.355   6.012  16.639  0.00  0.00    +0.000 OA
ATOM     14  C   UNL     1       6.743   5.877  16.255  0.00  0.00    +0.000 C 
ATOM     15  C   UNL     1       7.514   5.784  17.566  0.00  0.00    +0.000 C 
ATOM     16  C   UNL     1       6.548   5.055  18.489  0.00  0.00    +0.000 C 
BRANCH  15  17
ATOM     17  O   UNL     1       7.762   7.093  18.125  0.00  0.00    +0.000 OA
ATOM     18  H   UNL     1       8.437   6.999  18.827  0.00  0.00    +0.000 HD
ENDBRANCH  15  17
BRANCH  16  19
ATOM     19  O   UNL     1       6.825   5.350  19.860  0.00  0.00    +0.000 OA
ATOM     20  H   UNL     1       5.951   5.434  20.295  0.00  0.00    +0.000 HD
ENDBRANCH  16  19
BRANCH  14  21
ATOM     21  C   UNL     1       6.950   4.651  15.351  0.00  0.00    +0.000 C 
BRANCH  21  22
ATOM     22  O   UNL     1       5.860   4.534  14.436  0.00  0.00    +0.000 OA
BRANCH  22  23
ATOM     23  P   UNL     1       6.144   3.442  13.125  0.00  0.00    +0.000 P 
ATOM     24  O   UNL     1       4.803   3.771  12.472  0.00  0.00    +0.000 OA
BRANCH  23  25
ATOM     25  O   UNL     1       7.175   4.502  12.441  0.00  0.00    +0.000 OA
ATOM     26  H   UNL     1       8.081   4.189  12.621  0.00  0.00    +0.000 HD
ENDBRANCH  23  25
BRANCH  23  27
ATOM     27  O   UNL     1       6.427   2.350  11.813  0.00  0.00    +0.000 OA
ATOM     28  H   UNL     1       5.941   2.772  11.074  0.00  0.00    +0.000 HD
ENDBRANCH  23  27
ENDBRANCH  22  23
ENDBRANCH  21  22
ENDBRANCH  14  21
ENDBRANCH   4  12
BRANCH   5  29
ATOM     29  O   UNL     1       3.003   5.353  20.221  0.00  0.00    +0.000 OA
BRANCH  29  30
ATOM     30  C   UNL     1       1.764   6.049  20.384  0.00  0.00    +0.000 C 
BRANCH  30  31
ATOM     31  C   UNL     1       1.768   7.439  19.800  0.00  0.00    +0.000 A 
ATOM     32  C   UNL     1       2.223   7.622  18.483  0.00  0.00    +0.000 A 
ATOM     33  C   UNL     1       2.121   8.866  17.861  0.00  0.00    +0.000 A 
ATOM     34  C   UNL     1       1.558   9.938  18.549  0.00  0.00    +0.000 A 
ATOM     35  C   UNL     1       1.100   9.768  19.853  0.00  0.00    +0.000 A 
ATOM     36  C   UNL     1       1.196   8.523  20.476  0.00  0.00    +0.000 A 
ENDBRANCH  30  31
ENDBRANCH  29  30
ENDBRANCH   5  29
TORSDOF 12
ENDMDL
MODEL 6
REMARK VINA RESULT:      -7.7      3.587      7.274
REMARK  Name = 
REMARK  12 active torsions:
REMARK  status: ('A' for Active; 'I' for Inactive)
REMARK    1  A    between atoms: C_2  and  C_4
REMARK    2  A    between atoms: C_7  and  C_8
REMARK    3  A    between atoms: C_10  and  C_11
REMARK    4  A    between atoms: C_11  and  O_12
REMARK    5  A    between atoms: O_12  and  P_13
REMARK    6  A    between atoms: P_13  and  O_15
REMARK    7  A    between atoms: P_13  and  O_16
REMARK    8  A    between atoms: C_17  and  O_18
REMARK    9  A    between atoms: C_19  and  O_20
REMARK   10  A    between atoms: C_21  and  O_22
REMARK   11  A    between atoms: O_22  and  C_23
REMARK   12  A    between atoms: C_23  and  C_24
REMARK                            x       y       z     vdW  Elec       q    Type
REMARK                         _______ _______ _______ _____ _____    ______ ____
ROOT
ATOM      1  C   UNL     1       6.985   6.099  18.209  0.00  0.00    +0.000 A 
ATOM      2  N   UNL     1       7.078   5.577  19.477  0.00  0.00    +0.000 N 
ATOM      3  N   UNL     1       6.189   4.611  19.761  0.00  0.00    +0.000 NA
ATOM      4  C   UNL     1       5.508   4.464  18.618  0.00  0.00    +0.000 A 
ATOM      5  C   UNL     1       6.004   5.334  17.600  0.00  0.00    +0.000 A 
ATOM      6  H   UNL     1       7.727   5.871  20.198  0.00  0.00    +0.000 HD
ENDROOT
BRANCH   1   8
ATOM      7  N   UNL     1       8.547   7.808  18.866  0.00  0.00    +0.000 N 
ATOM      8  C   UNL     1       7.862   7.197  17.872  0.00  0.00    +0.000 C 
ATOM      9  O   UNL     1       8.016   7.573  16.716  0.00  0.00    +0.000 OA
ATOM     10  H   UNL     1       9.182   8.542  18.587  0.00  0.00    +0.000 HD
ATOM     11  H   UNL     1       8.686   7.372  19.767  0.00  0.00    +0.000 HD
ENDBRANCH   1   8
BRANCH   4  12
ATOM     12  C   UNL     1       4.389   3.462  18.520  0.00  0.00    +0.000 C 
ATOM     13  O   UNL     1       3.138   4.089  18.118  0.00  0.00    +0.000 OA
ATOM     14  C   UNL     1       2.090   3.722  19.045  0.00  0.00    +0.000 C 
ATOM     15  C   UNL     1       2.613   2.491  19.774  0.00  0.00    +0.000 C 
ATOM     16  C   UNL     1       4.113   2.738  19.846  0.00  0.00    +0.000 C 
BRANCH  15  17
ATOM     17  O   UNL     1       2.396   1.289  19.002  0.00  0.00    +0.000 OA
ATOM     18  H   UNL     1       3.270   0.912  18.778  0.00  0.00    +0.000 HD
ENDBRANCH  15  17
BRANCH  16  19
ATOM     19  O   UNL     1       4.831   1.509  19.975  0.00  0.00    +0.000 OA
ATOM     20  H   UNL     1       4.251   0.917  20.499  0.00  0.00    +0.000 HD
ENDBRANCH  16  19
BRANCH  14  21
ATOM     21  C   UNL     1       1.760   4.884  19.994  0.00  0.00    +0.000 C 
BRANCH  21  22
ATOM     22  O   UNL     1       2.673   5.960  19.781  0.00  0.00    +0.000 OA
BRANCH  22  23
ATOM     23  P   UNL     1       2.061   7.229  18.778  0.00  0.00    +0.000 P 
ATOM     24  O   UNL     1       2.027   8.222  19.937  0.00  0.00    +0.000 OA
BRANCH  23  25
ATOM     25  O   UNL     1       3.537   7.450  18.124  0.00  0.00    +0.000 OA
ATOM     26  H   UNL     1       3.845   8.337  18.385  0.00  0.00    +0.000 HD
ENDBRANCH  23  25
BRANCH  23  27
ATOM     27  O   UNL     1       1.448   8.499  17.774  0.00  0.00    +0.000 OA
ATOM     28  H   UNL     1       0.488   8.482  17.970  0.00  0.00    +0.000 HD
ENDBRANCH  23  27
ENDBRANCH  22  23
ENDBRANCH  21  22
ENDBRANCH  14  21
ENDBRANCH   4  12
BRANCH   5  29
ATOM     29  O   UNL     1       5.515   5.364  16.336  0.00  0.00    +0.000 OA
BRANCH  29  30
ATOM     30  C   UNL     1       5.546   4.132  15.609  0.00  0.00    +0.000 C 
BRANCH  30  31
ATOM     31  C   UNL     1       6.115   4.263  14.219  0.00  0.00    +0.000 A 
ATOM     32  C   UNL     1       7.235   5.087  14.017  0.00  0.00    +0.000 A 
ATOM     33  C   UNL     1       7.870   5.134  12.776  0.00  0.00    +0.000 A 
ATOM     34  C   UNL     1       7.395   4.350  11.727  0.00  0.00    +0.000 A 
ATOM     35  C   UNL     1       6.289   3.526  11.917  0.00  0.00    +0.000 A 
ATOM     36  C   UNL     1       5.655   3.474  13.159  0.00  0.00    +0.000 A 
ENDBRANCH  30  31
ENDBRANCH  29  30
ENDBRANCH   5  29
TORSDOF 12
ENDMDL
MODEL 7
REMARK VINA RESULT:      -7.7      1.317      1.751
REMARK  Name = 
REMARK  12 active torsions:
REMARK  status: ('A' for Active; 'I' for Inactive)
REMARK    1  A    between atoms: C_2  and  C_4
REMARK    2  A    between atoms: C_7  and  C_8
REMARK    3  A    between atoms: C_10  and  C_11
REMARK    4  A    between atoms: C_11  and  O_12
REMARK    5  A    between atoms: O_12  and  P_13
REMARK    6  A    between atoms: P_13  and  O_15
REMARK    7  A    between atoms: P_13  and  O_16
REMARK    8  A    between atoms: C_17  and  O_18
REMARK    9  A    between atoms: C_19  and  O_20
REMARK   10  A    between atoms: C_21  and  O_22
REMARK   11  A    between atoms: O_22  and  C_23
REMARK   12  A    between atoms: C_23  and  C_24
REMARK                            x       y       z     vdW  Elec       q    Type
REMARK                         _______ _______ _______ _____ _____    ______ ____
ROOT
ATOM      1  C   UNL     1       3.048   3.566  19.622  0.00  0.00    +0.000 A 
ATOM      2  N   UNL     1       4.150   2.772  19.412  0.00  0.00    +0.000 N 
ATOM      3  N   UNL     1       5.298   3.435  19.200  0.00  0.00    +0.000 NA
ATOM      4  C   UNL     1       4.943   4.721  19.316  0.00  0.00    +0.000 A 
ATOM      5  C   UNL     1       3.557   4.854  19.633  0.00  0.00    +0.000 A 
ATOM      6  H   UNL     1       4.159   1.758  19.381  0.00  0.00    +0.000 HD
ENDROOT
BRANCH   1   8
ATOM      7  N   UNL     1       0.742   3.608  20.308  0.00  0.00    +0.000 N 
ATOM      8  C   UNL     1       1.770   2.909  19.776  0.00  0.00    +0.000 C 
ATOM      9  O   UNL     1       1.590   1.750  19.421  0.00  0.00    +0.000 OA
ATOM     10  H   UNL     1      -0.146   3.130  20.361  0.00  0.00    +0.000 HD
ATOM     11  H   UNL     1       0.744   4.618  20.347  0.00  0.00    +0.000 HD
ENDBRANCH   1   8
BRANCH   4  12
ATOM     12  C   UNL     1       5.964   5.813  19.132  0.00  0.00    +0.000 C 
ATOM     13  O   UNL     1       5.929   6.362  17.784  0.00  0.00    +0.000 OA
ATOM     14  C   UNL     1       7.260   6.352  17.221  0.00  0.00    +0.000 C 
ATOM     15  C   UNL     1       8.200   6.203  18.412  0.00  0.00    +0.000 C 
ATOM     16  C   UNL     1       7.403   5.338  19.378  0.00  0.00    +0.000 C 
BRANCH  15  17
ATOM     17  O   UNL     1       8.445   7.475  19.051  0.00  0.00    +0.000 OA
ATOM     18  H   UNL     1       9.408   7.640  19.036  0.00  0.00    +0.000 HD
ENDBRANCH  15  17
BRANCH  16  19
ATOM     19  O   UNL     1       7.839   5.537  20.725  0.00  0.00    +0.000 OA
ATOM     20  H   UNL     1       7.772   4.660  21.157  0.00  0.00    +0.000 HD
ENDBRANCH  16  19
BRANCH  14  21
ATOM     21  C   UNL     1       7.417   5.221  16.192  0.00  0.00    +0.000 C 
BRANCH  21  22
ATOM     22  O   UNL     1       6.140   4.874  15.655  0.00  0.00    +0.000 OA
BRANCH  22  23
ATOM     23  P   UNL     1       6.207   3.969  14.183  0.00  0.00    +0.000 P 
ATOM     24  O   UNL     1       4.825   4.450  13.745  0.00  0.00    +0.000 OA
BRANCH  23  25
ATOM     25  O   UNL     1       7.221   5.066  13.532  0.00  0.00    +0.000 OA
ATOM     26  H   UNL     1       7.918   5.247  14.188  0.00  0.00    +0.000 HD
ENDBRANCH  23  25
BRANCH  23  27
ATOM     27  O   UNL     1       6.273   3.064  12.709  0.00  0.00    +0.000 OA
ATOM     28  H   UNL     1       7.030   2.460  12.862  0.00  0.00    +0.000 HD
ENDBRANCH  23  27
ENDBRANCH  22  23
ENDBRANCH  21  22
ENDBRANCH  14  21
ENDBRANCH   4  12
BRANCH   5  29
ATOM     29  O   UNL     1       2.946   6.046  19.838  0.00  0.00    +0.000 OA
BRANCH  29  30
ATOM     30  C   UNL     1       2.592   6.793  18.671  0.00  0.00    +0.000 C 
BRANCH  30  31
ATOM     31  C   UNL     1       1.850   8.071  18.972  0.00  0.00    +0.000 A 
ATOM     32  C   UNL     1       1.436   8.324  20.290  0.00  0.00    +0.000 A 
ATOM     33  C   UNL     1       0.865   9.548  20.635  0.00  0.00    +0.000 A 
ATOM     34  C   UNL     1       0.707  10.535  19.664  0.00  0.00    +0.000 A 
ATOM     35  C   UNL     1       1.118  10.297  18.355  0.00  0.00    +0.000 A 
ATOM     36  C   UNL     1       1.694   9.075  18.009  0.00  0.00    +0.000 A 
ENDBRANCH  30  31
ENDBRANCH  29  30
ENDBRANCH   5  29
TORSDOF 12
ENDMDL
MODEL 8
REMARK VINA RESULT:      -7.7      0.721      1.144
REMARK  Name = 
REMARK  12 active torsions:
REMARK  status: ('A' for Active; 'I' for Inactive)
REMARK    1  A    between atoms: C_2  and  C_4
REMARK    2  A    between atoms: C_7  and  C_8
REMARK    3  A    between atoms: C_10  and  C_11
REMARK    4  A    between atoms: C_11  and  O_12
REMARK    5  A    between atoms: O_12  and  P_13
REMARK    6  A    between atoms: P_13  and  O_15
REMARK    7  A    between atoms: P_13  and  O_16
REMARK    8  A    between atoms: C_17  and  O_18
REMARK    9  A    between atoms: C_19  and  O_20
REMARK   10  A    between atoms: C_21  and  O_22
REMARK   11  A    between atoms: O_22  and  C_23
REMARK   12  A    between atoms: C_23  and  C_24
REMARK                            x       y       z     vdW  Elec       q    Type
REMARK                         _______ _______ _______ _____ _____    ______ ____
ROOT
ATOM      1  C   UNL     1       2.629   3.471  19.842  0.00  0.00    +0.000 A 
ATOM      2  N   UNL     1       3.155   2.602  18.916  0.00  0.00    +0.000 N 
ATOM      3  N   UNL     1       4.091   3.129  18.109  0.00  0.00    +0.000 NA
ATOM      4  C   UNL     1       4.213   4.388  18.549  0.00  0.00    +0.000 A 
ATOM      5  C   UNL     1       3.358   4.635  19.666  0.00  0.00    +0.000 A 
ATOM      6  H   UNL     1       2.885   1.634  18.783  0.00  0.00    +0.000 HD
ENDROOT
BRANCH   1   8
ATOM      7  N   UNL     1       0.328   2.835  20.149  0.00  0.00    +0.000 N 
ATOM      8  C   UNL     1       1.561   2.983  20.685  0.00  0.00    +0.000 C 
ATOM      9  O   UNL     1       1.747   2.683  21.859  0.00  0.00    +0.000 OA
ATOM     10  H   UNL     1      -0.382   2.452  20.757  0.00  0.00    +0.000 HD
ATOM     11  H   UNL     1       0.180   2.786  19.151  0.00  0.00    +0.000 HD
ENDBRANCH   1   8
BRANCH   4  12
ATOM     12  C   UNL     1       5.175   5.337  17.887  0.00  0.00    +0.000 C 
ATOM     13  O   UNL     1       4.682   5.789  16.593  0.00  0.00    +0.000 OA
ATOM     14  C   UNL     1       5.699   5.583  15.586  0.00  0.00    +0.000 C 
ATOM     15  C   UNL     1       7.001   5.411  16.360  0.00  0.00    +0.000 C 
ATOM     16  C   UNL     1       6.557   4.716  17.639  0.00  0.00    +0.000 C 
BRANCH  15  17
ATOM     17  O   UNL     1       7.571   6.688  16.722  0.00  0.00    +0.000 OA
ATOM     18  H   UNL     1       7.966   7.082  15.919  0.00  0.00    +0.000 HD
ENDBRANCH  15  17
BRANCH  16  19
ATOM     19  O   UNL     1       7.481   4.958  18.703  0.00  0.00    +0.000 OA
ATOM     20  H   UNL     1       8.367   4.983  18.284  0.00  0.00    +0.000 HD
ENDBRANCH  16  19
BRANCH  14  21
ATOM     21  C   UNL     1       5.365   4.371  14.702  0.00  0.00    +0.000 C 
BRANCH  21  22
ATOM     22  O   UNL     1       6.210   4.362  13.552  0.00  0.00    +0.000 OA
BRANCH  22  23
ATOM     23  P   UNL     1       6.017   2.977  12.535  0.00  0.00    +0.000 P 
ATOM     24  O   UNL     1       4.746   3.535  11.899  0.00  0.00    +0.000 OA
BRANCH  23  25
ATOM     25  O   UNL     1       7.204   3.509  11.554  0.00  0.00    +0.000 OA
ATOM     26  H   UNL     1       6.931   4.377  11.205  0.00  0.00    +0.000 HD
ENDBRANCH  23  25
BRANCH  23  27
ATOM     27  O   UNL     1       5.824   1.591  11.517  0.00  0.00    +0.000 OA
ATOM     28  H   UNL     1       5.194   1.038  12.025  0.00  0.00    +0.000 HD
ENDBRANCH  23  27
ENDBRANCH  22  23
ENDBRANCH  21  22
ENDBRANCH  14  21
ENDBRANCH   4  12
BRANCH   5  29
ATOM     29  O   UNL     1       3.310   5.818  20.325  0.00  0.00    +0.000 OA
BRANCH  29  30
ATOM     30  C   UNL     1       2.013   6.388  20.524  0.00  0.00    +0.000 C 
BRANCH  30  31
ATOM     31  C   UNL     1       1.767   7.633  19.711  0.00  0.00    +0.000 A 
ATOM     32  C   UNL     1       1.152   8.737  20.326  0.00  0.00    +0.000 A 
ATOM     33  C   UNL     1       1.025   9.950  19.649  0.00  0.00    +0.000 A 
ATOM     34  C   UNL     1       1.518  10.072  18.351  0.00  0.00    +0.000 A 
ATOM     35  C   UNL     1       2.133   8.986  17.734  0.00  0.00    +0.000 A 
ATOM     36  C   UNL     1       2.266   7.773  18.411  0.00  0.00    +0.000 A 
ENDBRANCH  30  31
ENDBRANCH  29  30
ENDBRANCH   5  29
TORSDOF 12
ENDMDL
MODEL 9
REMARK VINA RESULT:      -7.6      3.746      7.639
REMARK  Name = 
REMARK  12 active torsions:
REMARK  status: ('A' for Active; 'I' for Inactive)
REMARK    1  A    between atoms: C_2  and  C_4
REMARK    2  A    between atoms: C_7  and  C_8
REMARK    3  A    between atoms: C_10  and  C_11
REMARK    4  A    between atoms: C_11  and  O_12
REMARK    5  A    between atoms: O_12  and  P_13
REMARK    6  A    between atoms: P_13  and  O_15
REMARK    7  A    between atoms: P_13  and  O_16
REMARK    8  A    between atoms: C_17  and  O_18
REMARK    9  A    between atoms: C_19  and  O_20
REMARK   10  A    between atoms: C_21  and  O_22
REMARK   11  A    between atoms: O_22  and  C_23
REMARK   12  A    between atoms: C_23  and  C_24
REMARK                            x       y       z     vdW  Elec       q    Type
REMARK                         _______ _______ _______ _____ _____    ______ ____
ROOT
ATOM      1  C   UNL     1       6.810   6.063  18.206  0.00  0.00    +0.000 A 
ATOM      2  N   UNL     1       6.892   5.498  19.456  0.00  0.00    +0.000 N 
ATOM      3  N   UNL     1       5.976   4.550  19.713  0.00  0.00    +0.000 NA
ATOM      4  C   UNL     1       5.287   4.461  18.568  0.00  0.00    +0.000 A 
ATOM      5  C   UNL     1       5.805   5.348  17.577  0.00  0.00    +0.000 A 
ATOM      6  H   UNL     1       7.551   5.749  20.184  0.00  0.00    +0.000 HD
ENDROOT
BRANCH   1   8
ATOM      7  N   UNL     1       8.542   7.595  18.876  0.00  0.00    +0.000 N 
ATOM      8  C   UNL     1       7.719   7.145  17.901  0.00  0.00    +0.000 C 
ATOM      9  O   UNL     1       7.777   7.649  16.785  0.00  0.00    +0.000 OA
ATOM     10  H   UNL     1       9.192   8.322  18.614  0.00  0.00    +0.000 HD
ATOM     11  H   UNL     1       8.744   7.048  19.701  0.00  0.00    +0.000 HD
ENDBRANCH   1   8
BRANCH   4  12
ATOM     12  C   UNL     1       4.138   3.496  18.443  0.00  0.00    +0.000 C 
ATOM     13  O   UNL     1       2.887   4.183  18.155  0.00  0.00    +0.000 OA
ATOM     14  C   UNL     1       1.874   3.764  19.097  0.00  0.00    +0.000 C 
ATOM     15  C   UNL     1       2.397   2.465  19.698  0.00  0.00    +0.000 C 
ATOM     16  C   UNL     1       3.904   2.671  19.717  0.00  0.00    +0.000 C 
BRANCH  15  17
ATOM     17  O   UNL     1       2.112   1.337  18.841  0.00  0.00    +0.000 OA
ATOM     18  H   UNL     1       2.670   1.416  18.042  0.00  0.00    +0.000 HD
ENDBRANCH  15  17
BRANCH  16  19
ATOM     19  O   UNL     1       4.594   1.420  19.711  0.00  0.00    +0.000 OA
ATOM     20  H   UNL     1       5.395   1.560  19.162  0.00  0.00    +0.000 HD
ENDBRANCH  16  19
BRANCH  14  21
ATOM     21  C   UNL     1       1.618   4.851  20.154  0.00  0.00    +0.000 C 
BRANCH  21  22
ATOM     22  O   UNL     1       2.099   6.109  19.681  0.00  0.00    +0.000 OA
BRANCH  22  23
ATOM     23  P   UNL     1       1.888   7.417  20.793  0.00  0.00    +0.000 P 
ATOM     24  O   UNL     1       1.715   8.435  19.668  0.00  0.00    +0.000 OA
BRANCH  23  25
ATOM     25  O   UNL     1       0.366   6.928  21.108  0.00  0.00    +0.000 OA
ATOM     26  H   UNL     1      -0.037   7.585  21.705  0.00  0.00    +0.000 HD
ENDBRANCH  23  25
BRANCH  23  27
ATOM     27  O   UNL     1       1.677   8.727  21.905  0.00  0.00    +0.000 OA
ATOM     28  H   UNL     1       2.278   9.412  21.546  0.00  0.00    +0.000 HD
ENDBRANCH  23  27
ENDBRANCH  22  23
ENDBRANCH  21  22
ENDBRANCH  14  21
ENDBRANCH   4  12
BRANCH   5  29
ATOM     29  O   UNL     1       5.314   5.433  16.317  0.00  0.00    +0.000 OA
BRANCH  29  30
ATOM     30  C   UNL     1       5.255   4.215  15.569  0.00  0.00    +0.000 C 
BRANCH  30  31
ATOM     31  C   UNL     1       6.084   4.237  14.309  0.00  0.00    +0.000 A 
ATOM     32  C   UNL     1       5.659   3.484  13.202  0.00  0.00    +0.000 A 
ATOM     33  C   UNL     1       6.323   3.578  11.979  0.00  0.00    +0.000 A 
ATOM     34  C   UNL     1       7.415   4.433  11.851  0.00  0.00    +0.000 A 
ATOM     35  C   UNL     1       7.842   5.189  12.939  0.00  0.00    +0.000 A 
ATOM     36  C   UNL     1       7.177   5.099  14.163  0.00  0.00    +0.000 A 
ENDBRANCH  30  31
ENDBRANCH  29  30
ENDBRANCH   5  29
TORSDOF 12
ENDMDL
