MODEL 1
REMARK VINA RESULT:      -7.8      0.000      0.000
REMARK  Name = 
REMARK  3 active torsions:
REMARK  status: ('A' for Active; 'I' for Inactive)
REMARK    1  A    between atoms: S_2  and  C_4
REMARK    2  A    between atoms: S_2  and  C_12
REMARK    3  A    between atoms: C_22  and  N_23
REMARK                            x       y       z     vdW  Elec       q    Type
REMARK                         _______ _______ _______ _____ _____    ______ ____
ROOT
ATOM      1  C   UNL     1       3.332   5.819  18.341  0.00  0.00    +0.000 A 
ATOM      2  C   UNL     1       3.519   6.983  17.619  0.00  0.00    +0.000 A 
ATOM      3  N   UNL     1       2.955   8.164  17.921  0.00  0.00    +0.000 NA
ATOM      4  C   UNL     1       2.153   8.236  18.991  0.00  0.00    +0.000 A 
ATOM      5  C   UNL     1       1.576   9.472  19.292  0.00  0.00    +0.000 A 
ATOM      6  F   UNL     1       1.827  10.533  18.505  0.00  0.00    +0.000 F 
ATOM      7  C   UNL     1       0.734   9.672  20.378  0.00  0.00    +0.000 A 
ATOM      8  C   UNL     1       0.417   8.595  21.181  0.00  0.00    +0.000 A 
ATOM      9  C   UNL     1       0.943   7.338  20.870  0.00  0.00    +0.000 A 
ATOM     10  C   UNL     1       1.857   7.108  19.800  0.00  0.00    +0.000 A 
ATOM     11  C   UNL     1       2.460   5.823  19.461  0.00  0.00    +0.000 A 
ENDROOT
BRANCH  11  12
ATOM     12  N   UNL     1       2.073   4.685  20.181  0.00  0.00    +0.000 N 
ATOM     13  C   UNL     1       2.629   4.336  21.506  0.00  0.00    +0.000 C 
ATOM     14  C   UNL     1       2.739   2.810  21.652  0.00  0.00    +0.000 C 
ATOM     15  O   UNL     1       1.490   2.147  21.396  0.00  0.00    +0.000 OA
ATOM     16  C   UNL     1       1.003   2.483  20.087  0.00  0.00    +0.000 C 
ATOM     17  C   UNL     1       0.774   4.011  19.955  0.00  0.00    +0.000 C 
ENDBRANCH  11  12
BRANCH   1  19
ATOM     18  O   UNL     1       3.380   3.399  17.418  0.00  0.00    +0.000 OA
ATOM     19  S   UNL     1       4.305   4.440  17.817  0.00  0.00    +0.000 S 
ATOM     20  O   UNL     1       5.310   4.196  18.834  0.00  0.00    +0.000 OA
BRANCH  19  21
ATOM     21  C   UNL     1       5.256   4.795  16.331  0.00  0.00    +0.000 A 
ATOM     22  C   UNL     1       6.472   5.477  16.440  0.00  0.00    +0.000 A 
ATOM     23  C   UNL     1       7.322   5.553  15.333  0.00  0.00    +0.000 A 
ATOM     24  C   UNL     1       6.963   4.953  14.121  0.00  0.00    +0.000 A 
ATOM     25 CL   UNL     1       8.097   5.029  12.821  0.00  0.00    +0.000 Cl
ATOM     26  C   UNL     1       5.733   4.291  14.009  0.00  0.00    +0.000 A 
ATOM     27 CL   UNL     1       5.223   3.533  12.543  0.00  0.00    +0.000 Cl
ATOM     28  C   UNL     1       4.882   4.202  15.117  0.00  0.00    +0.000 A 
ENDBRANCH  19  21
ENDBRANCH   1  19
TORSDOF 3
ENDMDL
MODEL 2
REMARK VINA RESULT:      -7.3      0.684      1.146
REMARK  Name = 
REMARK  3 active torsions:
REMARK  status: ('A' for Active; 'I' for Inactive)
REMARK    1  A    between atoms: S_2  and  C_4
REMARK    2  A    between atoms: S_2  and  C_12
REMARK    3  A    between atoms: C_22  and  N_23
REMARK                            x       y       z     vdW  Elec       q    Type
REMARK                         _______ _______ _______ _____ _____    ______ ____
ROOT
ATOM      1  C   UNL     1       3.742   5.627  17.987  0.00  0.00    +0.000 A 
ATOM      2  C   UNL     1       3.928   6.805  17.288  0.00  0.00    +0.000 A 
ATOM      3  N   UNL     1       3.333   7.971  17.591  0.00  0.00    +0.000 NA
ATOM      4  C   UNL     1       2.499   8.011  18.637  0.00  0.00    +0.000 A 
ATOM      5  C   UNL     1       1.891   9.233  18.939  0.00  0.00    +0.000 A 
ATOM      6  F   UNL     1       2.145  10.310  18.176  0.00  0.00    +0.000 F 
ATOM      7  C   UNL     1       1.013   9.400  20.002  0.00  0.00    +0.000 A 
ATOM      8  C   UNL     1       0.692   8.305  20.779  0.00  0.00    +0.000 A 
ATOM      9  C   UNL     1       1.251   7.063  20.466  0.00  0.00    +0.000 A 
ATOM     10  C   UNL     1       2.201   6.866  19.420  0.00  0.00    +0.000 A 
ATOM     11  C   UNL     1       2.837   5.598  19.079  0.00  0.00    +0.000 A 
ENDROOT
BRANCH  11  12
ATOM     12  N   UNL     1       2.449   4.442  19.770  0.00  0.00    +0.000 N 
ATOM     13  C   UNL     1       1.447   3.485  19.253  0.00  0.00    +0.000 C 
ATOM     14  C   UNL     1       0.626   2.896  20.411  0.00  0.00    +0.000 C 
ATOM     15  O   UNL     1       1.458   2.313  21.427  0.00  0.00    +0.000 OA
ATOM     16  C   UNL     1       2.392   3.283  21.928  0.00  0.00    +0.000 C 
ATOM     17  C   UNL     1       3.310   3.807  20.794  0.00  0.00    +0.000 C 
ENDBRANCH  11  12
BRANCH   1  19
ATOM     18  O   UNL     1       3.880   3.133  17.300  0.00  0.00    +0.000 OA
ATOM     19  S   UNL     1       4.755   4.274  17.471  0.00  0.00    +0.000 S 
ATOM     20  O   UNL     1       5.896   4.212  18.363  0.00  0.00    +0.000 OA
BRANCH  19  21
ATOM     21  C   UNL     1       5.479   4.538  15.844  0.00  0.00    +0.000 A 
ATOM     22  C   UNL     1       6.782   5.035  15.744  0.00  0.00    +0.000 A 
ATOM     23  C   UNL     1       7.431   5.026  14.507  0.00  0.00    +0.000 A 
ATOM     24  C   UNL     1       6.785   4.524  13.372  0.00  0.00    +0.000 A 
ATOM     25 CL   UNL     1       7.678   4.480  11.894  0.00  0.00    +0.000 Cl
ATOM     26  C   UNL     1       5.471   4.049  13.471  0.00  0.00    +0.000 A 
ATOM     27 CL   UNL     1       4.611   3.420  12.111  0.00  0.00    +0.000 Cl
ATOM     28  C   UNL     1       4.819   4.046  14.710  0.00  0.00    +0.000 A 
ENDBRANCH  19  21
ENDBRANCH   1  19
TORSDOF 3
ENDMDL
MODEL 3
REMARK VINA RESULT:      -7.3      7.043      9.486
REMARK  Name = 
REMARK  3 active torsions:
REMARK  status: ('A' for Active; 'I' for Inactive)
REMARK    1  A    between atoms: S_2  and  C_4
REMARK    2  A    between atoms: S_2  and  C_12
REMARK    3  A    between atoms: C_22  and  N_23
REMARK                            x       y       z     vdW  Elec       q    Type
REMARK                         _______ _______ _______ _____ _____    ______ ____
ROOT
ATOM      1  C   UNL     1      -2.788  12.753  19.763  0.00  0.00    +0.000 A 
ATOM      2  C   UNL     1      -3.165  13.532  20.841  0.00  0.00    +0.000 A 
ATOM      3  N   UNL     1      -4.386  13.517  21.401  0.00  0.00    +0.000 NA
ATOM      4  C   UNL     1      -5.313  12.696  20.891  0.00  0.00    +0.000 A 
ATOM      5  C   UNL     1      -6.577  12.691  21.488  0.00  0.00    +0.000 A 
ATOM      6  F   UNL     1      -6.826  13.506  22.528  0.00  0.00    +0.000 F 
ATOM      7  C   UNL     1      -7.617  11.880  21.053  0.00  0.00    +0.000 A 
ATOM      8  C   UNL     1      -7.412  11.065  19.958  0.00  0.00    +0.000 A 
ATOM      9  C   UNL     1      -6.171  11.090  19.316  0.00  0.00    +0.000 A 
ATOM     10  C   UNL     1      -5.063  11.865  19.769  0.00  0.00    +0.000 A 
ATOM     11  C   UNL     1      -3.740  11.895  19.154  0.00  0.00    +0.000 A 
ENDROOT
BRANCH  11  12
ATOM     12  N   UNL     1      -3.529  11.170  17.973  0.00  0.00    +0.000 N 
ATOM     13  C   UNL     1      -2.961   9.804  17.951  0.00  0.00    +0.000 C 
ATOM     14  C   UNL     1      -2.086   9.612  16.702  0.00  0.00    +0.000 C 
ATOM     15  O   UNL     1      -2.791   9.927  15.490  0.00  0.00    +0.000 OA
ATOM     16  C   UNL     1      -3.295  11.272  15.537  0.00  0.00    +0.000 C 
ATOM     17  C   UNL     1      -4.272  11.458  16.726  0.00  0.00    +0.000 C 
ENDBRANCH  11  12
BRANCH   1  19
ATOM     18  O   UNL     1      -0.506  13.935  20.093  0.00  0.00    +0.000 OA
ATOM     19  S   UNL     1      -1.082  12.859  19.314  0.00  0.00    +0.000 S 
ATOM     20  O   UNL     1      -1.007  12.863  17.865  0.00  0.00    +0.000 OA
BRANCH  19  21
ATOM     21  C   UNL     1      -0.151  11.397  19.800  0.00  0.00    +0.000 A 
ATOM     22  C   UNL     1      -0.392  10.812  21.047  0.00  0.00    +0.000 A 
ATOM     23  C   UNL     1       0.152   9.558  21.337  0.00  0.00    +0.000 A 
ATOM     24  C   UNL     1       0.932   8.888  20.389  0.00  0.00    +0.000 A 
ATOM     25 CL   UNL     1       1.508   7.311  20.795  0.00  0.00    +0.000 Cl
ATOM     26  C   UNL     1       1.190   9.487  19.149  0.00  0.00    +0.000 A 
ATOM     27 CL   UNL     1       2.149   8.720  17.935  0.00  0.00    +0.000 Cl
ATOM     28  C   UNL     1       0.641  10.739  18.849  0.00  0.00    +0.000 A 
ENDBRANCH  19  21
ENDBRANCH   1  19
TORSDOF 3
ENDMDL
MODEL 4
REMARK VINA RESULT:      -7.1      5.921      8.185
REMARK  Name = 
REMARK  3 active torsions:
REMARK  status: ('A' for Active; 'I' for Inactive)
REMARK    1  A    between atoms: S_2  and  C_4
REMARK    2  A    between atoms: S_2  and  C_12
REMARK    3  A    between atoms: C_22  and  N_23
REMARK                            x       y       z     vdW  Elec       q    Type
REMARK                         _______ _______ _______ _____ _____    ______ ____
ROOT
ATOM      1  C   UNL     1      -0.832  11.224  19.733  0.00  0.00    +0.000 A 
ATOM      2  C   UNL     1      -1.390  10.481  18.709  0.00  0.00    +0.000 A 
ATOM      3  N   UNL     1      -2.640  10.642  18.247  0.00  0.00    +0.000 NA
ATOM      4  C   UNL     1      -3.413  11.583  18.804  0.00  0.00    +0.000 A 
ATOM      5  C   UNL     1      -4.710  11.739  18.309  0.00  0.00    +0.000 A 
ATOM      6  F   UNL     1      -5.143  10.945  17.313  0.00  0.00    +0.000 F 
ATOM      7  C   UNL     1      -5.601  12.683  18.802  0.00  0.00    +0.000 A 
ATOM      8  C   UNL     1      -5.207  13.484  19.854  0.00  0.00    +0.000 A 
ATOM      9  C   UNL     1      -3.931  13.312  20.398  0.00  0.00    +0.000 A 
ATOM     10  C   UNL     1      -2.970  12.395  19.880  0.00  0.00    +0.000 A 
ATOM     11  C   UNL     1      -1.616  12.207  20.391  0.00  0.00    +0.000 A 
ENDROOT
BRANCH  11  12
ATOM     12  N   UNL     1      -1.220  12.919  21.531  0.00  0.00    +0.000 N 
ATOM     13  C   UNL     1      -1.408  12.413  22.909  0.00  0.00    +0.000 C 
ATOM     14  C   UNL     1      -1.712  13.576  23.866  0.00  0.00    +0.000 C 
ATOM     15  O   UNL     1      -0.718  14.611  23.798  0.00  0.00    +0.000 OA
ATOM     16  C   UNL     1      -0.591  15.100  22.453  0.00  0.00    +0.000 C 
ATOM     17  C   UNL     1      -0.171  13.963  21.486  0.00  0.00    +0.000 C 
ENDBRANCH  11  12
BRANCH   1  19
ATOM     18  O   UNL     1       1.015  10.726  21.480  0.00  0.00    +0.000 OA
ATOM     19  S   UNL     1       0.878  10.910  20.050  0.00  0.00    +0.000 S 
ATOM     20  O   UNL     1       1.649  11.919  19.350  0.00  0.00    +0.000 OA
BRANCH  19  21
ATOM     21  C   UNL     1       1.435   9.354  19.337  0.00  0.00    +0.000 A 
ATOM     22  C   UNL     1       2.005   9.348  18.060  0.00  0.00    +0.000 A 
ATOM     23  C   UNL     1       2.644   8.196  17.595  0.00  0.00    +0.000 A 
ATOM     24  C   UNL     1       2.718   7.053  18.399  0.00  0.00    +0.000 A 
ATOM     25 CL   UNL     1       3.588   5.694  17.783  0.00  0.00    +0.000 Cl
ATOM     26  C   UNL     1       2.126   7.056  19.669  0.00  0.00    +0.000 A 
ATOM     27 CL   UNL     1       2.173   5.679  20.712  0.00  0.00    +0.000 Cl
ATOM     28  C   UNL     1       1.492   8.209  20.144  0.00  0.00    +0.000 A 
ENDBRANCH  19  21
ENDBRANCH   1  19
TORSDOF 3
ENDMDL
MODEL 5
REMARK VINA RESULT:      -7.0      5.685      7.773
REMARK  Name = 
REMARK  3 active torsions:
REMARK  status: ('A' for Active; 'I' for Inactive)
REMARK    1  A    between atoms: S_2  and  C_4
REMARK    2  A    between atoms: S_2  and  C_12
REMARK    3  A    between atoms: C_22  and  N_23
REMARK                            x       y       z     vdW  Elec       q    Type
REMARK                         _______ _______ _______ _____ _____    ______ ____
ROOT
ATOM      1  C   UNL     1      -0.818  10.866  19.006  0.00  0.00    +0.000 A 
ATOM      2  C   UNL     1      -1.145  10.190  17.847  0.00  0.00    +0.000 A 
ATOM      3  N   UNL     1      -2.322  10.300  17.209  0.00  0.00    +0.000 NA
ATOM      4  C   UNL     1      -3.253  11.116  17.719  0.00  0.00    +0.000 A 
ATOM      5  C   UNL     1      -4.471  11.220  17.041  0.00  0.00    +0.000 A 
ATOM      6  F   UNL     1      -4.675  10.500  15.924  0.00  0.00    +0.000 F 
ATOM      7  C   UNL     1      -5.509  12.037  17.469  0.00  0.00    +0.000 A 
ATOM      8  C   UNL     1      -5.352  12.755  18.638  0.00  0.00    +0.000 A 
ATOM      9  C   UNL     1      -4.161  12.629  19.358  0.00  0.00    +0.000 A 
ATOM     10  C   UNL     1      -3.053  11.846  18.919  0.00  0.00    +0.000 A 
ATOM     11  C   UNL     1      -1.779  11.713  19.617  0.00  0.00    +0.000 A 
ENDROOT
BRANCH  11  12
ATOM     12  N   UNL     1      -1.625  12.334  20.865  0.00  0.00    +0.000 N 
ATOM     13  C   UNL     1      -1.093  13.704  21.028  0.00  0.00    +0.000 C 
ATOM     14  C   UNL     1      -0.265  13.803  22.319  0.00  0.00    +0.000 C 
ATOM     15  O   UNL     1      -1.002  13.366  23.473  0.00  0.00    +0.000 OA
ATOM     16  C   UNL     1      -1.471  12.020  23.289  0.00  0.00    +0.000 C 
ATOM     17  C   UNL     1      -2.403  11.920  22.055  0.00  0.00    +0.000 C 
ENDBRANCH  11  12
BRANCH   1  19
ATOM     18  O   UNL     1       0.807  10.598  21.007  0.00  0.00    +0.000 OA
ATOM     19  S   UNL     1       0.847  10.656  19.560  0.00  0.00    +0.000 S 
ATOM     20  O   UNL     1       1.668  11.636  18.875  0.00  0.00    +0.000 OA
BRANCH  19  21
ATOM     21  C   UNL     1       1.543   9.072  19.061  0.00  0.00    +0.000 A 
ATOM     22  C   UNL     1       2.278   8.987  17.875  0.00  0.00    +0.000 A 
ATOM     23  C   UNL     1       3.009   7.829  17.599  0.00  0.00    +0.000 A 
ATOM     24  C   UNL     1       3.009   6.759  18.499  0.00  0.00    +0.000 A 
ATOM     25 CL   UNL     1       3.995   5.392  18.121  0.00  0.00    +0.000 Cl
ATOM     26  C   UNL     1       2.253   6.839  19.676  0.00  0.00    +0.000 A 
ATOM     27 CL   UNL     1       2.202   5.554  20.829  0.00  0.00    +0.000 Cl
ATOM     28  C   UNL     1       1.525   7.999  19.963  0.00  0.00    +0.000 A 
ENDBRANCH  19  21
ENDBRANCH   1  19
TORSDOF 3
ENDMDL
MODEL 6
REMARK VINA RESULT:      -6.8      7.209      9.514
REMARK  Name = 
REMARK  3 active torsions:
REMARK  status: ('A' for Active; 'I' for Inactive)
REMARK    1  A    between atoms: S_2  and  C_4
REMARK    2  A    between atoms: S_2  and  C_12
REMARK    3  A    between atoms: C_22  and  N_23
REMARK                            x       y       z     vdW  Elec       q    Type
REMARK                         _______ _______ _______ _____ _____    ______ ____
ROOT
ATOM      1  C   UNL     1      -2.799  12.593  19.659  0.00  0.00    +0.000 A 
ATOM      2  C   UNL     1      -3.084  13.367  20.768  0.00  0.00    +0.000 A 
ATOM      3  N   UNL     1      -4.284  13.424  21.368  0.00  0.00    +0.000 NA
ATOM      4  C   UNL     1      -5.284  12.685  20.870  0.00  0.00    +0.000 A 
ATOM      5  C   UNL     1      -6.525  12.753  21.509  0.00  0.00    +0.000 A 
ATOM      6  F   UNL     1      -6.681  13.554  22.577  0.00  0.00    +0.000 F 
ATOM      7  C   UNL     1      -7.634  12.030  21.089  0.00  0.00    +0.000 A 
ATOM      8  C   UNL     1      -7.523  11.233  19.968  0.00  0.00    +0.000 A 
ATOM      9  C   UNL     1      -6.305  11.187  19.285  0.00  0.00    +0.000 A 
ATOM     10  C   UNL     1      -5.130  11.869  19.720  0.00  0.00    +0.000 A 
ATOM     11  C   UNL     1      -3.829  11.822  19.061  0.00  0.00    +0.000 A 
ENDROOT
BRANCH  11  12
ATOM     12  N   UNL     1      -3.708  11.117  17.856  0.00  0.00    +0.000 N 
ATOM     13  C   UNL     1      -3.326   9.690  17.786  0.00  0.00    +0.000 C 
ATOM     14  C   UNL     1      -2.477   9.427  16.532  0.00  0.00    +0.000 C 
ATOM     15  O   UNL     1      -3.127   9.874  15.331  0.00  0.00    +0.000 OA
ATOM     16  C   UNL     1      -3.449  11.271  15.425  0.00  0.00    +0.000 C 
ATOM     17  C   UNL     1      -4.400  11.543  16.618  0.00  0.00    +0.000 C 
ENDBRANCH  11  12
BRANCH   1  19
ATOM     18  O   UNL     1      -0.392  13.464  20.062  0.00  0.00    +0.000 OA
ATOM     19  S   UNL     1      -1.105  12.590  19.154  0.00  0.00    +0.000 S 
ATOM     20  O   UNL     1      -1.071  12.814  17.721  0.00  0.00    +0.000 OA
BRANCH  19  21
ATOM     21  C   UNL     1      -0.327  10.981  19.368  0.00  0.00    +0.000 A 
ATOM     22  C   UNL     1       0.446  10.448  18.332  0.00  0.00    +0.000 A 
ATOM     23  C   UNL     1       1.235   9.320  18.571  0.00  0.00    +0.000 A 
ATOM     24  C   UNL     1       1.255   8.723  19.837  0.00  0.00    +0.000 A 
ATOM     25 CL   UNL     1       2.310   7.377  20.073  0.00  0.00    +0.000 Cl
ATOM     26  C   UNL     1       0.461   9.247  20.865  0.00  0.00    +0.000 A 
ATOM     27 CL   UNL     1       0.432   8.559  22.450  0.00  0.00    +0.000 Cl
ATOM     28  C   UNL     1      -0.324  10.382  20.636  0.00  0.00    +0.000 A 
ENDBRANCH  19  21
ENDBRANCH   1  19
TORSDOF 3
ENDMDL
MODEL 7
REMARK VINA RESULT:      -6.5      3.752      6.693
REMARK  Name = 
REMARK  3 active torsions:
REMARK  status: ('A' for Active; 'I' for Inactive)
REMARK    1  A    between atoms: S_2  and  C_4
REMARK    2  A    between atoms: S_2  and  C_12
REMARK    3  A    between atoms: C_22  and  N_23
REMARK                            x       y       z     vdW  Elec       q    Type
REMARK                         _______ _______ _______ _____ _____    ______ ____
ROOT
ATOM      1  C   UNL     1       6.062   4.866  17.311  0.00  0.00    +0.000 A 
ATOM      2  C   UNL     1       7.202   5.477  16.824  0.00  0.00    +0.000 A 
ATOM      3  N   UNL     1       7.588   5.453  15.538  0.00  0.00    +0.000 NA
ATOM      4  C   UNL     1       6.827   4.795  14.653  0.00  0.00    +0.000 A 
ATOM      5  C   UNL     1       7.242   4.782  13.319  0.00  0.00    +0.000 A 
ATOM      6  F   UNL     1       8.379   5.407  12.969  0.00  0.00    +0.000 F 
ATOM      7  C   UNL     1       6.534   4.139  12.312  0.00  0.00    +0.000 A 
ATOM      8  C   UNL     1       5.386   3.447  12.642  0.00  0.00    +0.000 A 
ATOM      9  C   UNL     1       4.979   3.406  13.979  0.00  0.00    +0.000 A 
ATOM     10  C   UNL     1       5.647   4.103  15.029  0.00  0.00    +0.000 A 
ATOM     11  C   UNL     1       5.239   4.118  16.429  0.00  0.00    +0.000 A 
ENDROOT
BRANCH  11  12
ATOM     12  N   UNL     1       4.146   3.334  16.823  0.00  0.00    +0.000 N 
ATOM     13  C   UNL     1       2.739   3.724  16.582  0.00  0.00    +0.000 C 
ATOM     14  C   UNL     1       1.850   3.252  17.743  0.00  0.00    +0.000 C 
ATOM     15  O   UNL     1       1.987   1.845  17.996  0.00  0.00    +0.000 OA
ATOM     16  C   UNL     1       3.360   1.514  18.261  0.00  0.00    +0.000 C 
ATOM     17  C   UNL     1       4.261   1.876  17.053  0.00  0.00    +0.000 C 
ENDBRANCH  11  12
BRANCH   1  19
ATOM     18  O   UNL     1       6.637   6.192  19.462  0.00  0.00    +0.000 OA
ATOM     19  S   UNL     1       5.709   5.174  19.015  0.00  0.00    +0.000 S 
ATOM     20  O   UNL     1       5.628   3.891  19.687  0.00  0.00    +0.000 OA
BRANCH  19  21
ATOM     21  C   UNL     1       4.082   5.904  19.259  0.00  0.00    +0.000 A 
ATOM     22  C   UNL     1       3.303   5.499  20.347  0.00  0.00    +0.000 A 
ATOM     23  C   UNL     1       2.150   6.217  20.675  0.00  0.00    +0.000 A 
ATOM     24  C   UNL     1       1.774   7.335  19.923  0.00  0.00    +0.000 A 
ATOM     25 CL   UNL     1       0.377   8.212  20.434  0.00  0.00    +0.000 Cl
ATOM     26  C   UNL     1       2.544   7.724  18.819  0.00  0.00    +0.000 A 
ATOM     27 CL   UNL     1       2.135   9.089  17.843  0.00  0.00    +0.000 Cl
ATOM     28  C   UNL     1       3.705   7.015  18.491  0.00  0.00    +0.000 A 
ENDBRANCH  19  21
ENDBRANCH   1  19
TORSDOF 3
ENDMDL
MODEL 8
REMARK VINA RESULT:      -6.5      7.523     10.584
REMARK  Name = 
REMARK  3 active torsions:
REMARK  status: ('A' for Active; 'I' for Inactive)
REMARK    1  A    between atoms: S_2  and  C_4
REMARK    2  A    between atoms: S_2  and  C_12
REMARK    3  A    between atoms: C_22  and  N_23
REMARK                            x       y       z     vdW  Elec       q    Type
REMARK                         _______ _______ _______ _____ _____    ______ ____
ROOT
ATOM      1  C   UNL     1      -1.378  11.655  20.282  0.00  0.00    +0.000 A 
ATOM      2  C   UNL     1      -2.553  12.374  20.171  0.00  0.00    +0.000 A 
ATOM      3  N   UNL     1      -3.401  12.289  19.133  0.00  0.00    +0.000 NA
ATOM      4  C   UNL     1      -3.102  11.455  18.129  0.00  0.00    +0.000 A 
ATOM      5  C   UNL     1      -3.997  11.377  17.058  0.00  0.00    +0.000 A 
ATOM      6  F   UNL     1      -5.106  12.137  17.060  0.00  0.00    +0.000 F 
ATOM      7  C   UNL     1      -3.799  10.545  15.964  0.00  0.00    +0.000 A 
ATOM      8  C   UNL     1      -2.648   9.785  15.906  0.00  0.00    +0.000 A 
ATOM      9  C   UNL     1      -1.716   9.884  16.942  0.00  0.00    +0.000 A 
ATOM     10  C   UNL     1      -1.913  10.681  18.108  0.00  0.00    +0.000 A 
ATOM     11  C   UNL     1      -0.986  10.787  19.230  0.00  0.00    +0.000 A 
ENDROOT
BRANCH  11  12
ATOM     12  N   UNL     1       0.245  10.121  19.153  0.00  0.00    +0.000 N 
ATOM     13  C   UNL     1       1.427  10.679  18.462  0.00  0.00    +0.000 C 
ATOM     14  C   UNL     1       2.239   9.553  17.803  0.00  0.00    +0.000 C 
ATOM     15  O   UNL     1       2.593   8.519  18.736  0.00  0.00    +0.000 OA
ATOM     16  C   UNL     1       1.416   7.979  19.358  0.00  0.00    +0.000 C 
ATOM     17  C   UNL     1       0.641   9.079  20.128  0.00  0.00    +0.000 C 
ENDBRANCH  11  12
BRANCH   1  19
ATOM     18  O   UNL     1       0.717  12.543  21.523  0.00  0.00    +0.000 OA
ATOM     19  S   UNL     1      -0.518  11.845  21.815  0.00  0.00    +0.000 S 
ATOM     20  O   UNL     1      -0.506  10.554  22.476  0.00  0.00    +0.000 OA
BRANCH  19  21
ATOM     21  C   UNL     1      -1.388  12.922  22.963  0.00  0.00    +0.000 A 
ATOM     22  C   UNL     1      -0.896  14.209  23.206  0.00  0.00    +0.000 A 
ATOM     23  C   UNL     1      -1.682  15.126  23.909  0.00  0.00    +0.000 A 
ATOM     24  C   UNL     1      -2.953  14.765  24.369  0.00  0.00    +0.000 A 
ATOM     25 CL   UNL     1      -3.891  15.975  25.167  0.00  0.00    +0.000 Cl
ATOM     26  C   UNL     1      -3.432  13.467  24.145  0.00  0.00    +0.000 A 
ATOM     27 CL   UNL     1      -4.988  12.951  24.689  0.00  0.00    +0.000 Cl
ATOM     28  C   UNL     1      -2.655  12.547  23.433  0.00  0.00    +0.000 A 
ENDBRANCH  19  21
ENDBRANCH   1  19
TORSDOF 3
ENDMDL
MODEL 9
REMARK VINA RESULT:      -6.5     10.162     12.436
REMARK  Name = 
REMARK  3 active torsions:
REMARK  status: ('A' for Active; 'I' for Inactive)
REMARK    1  A    between atoms: S_2  and  C_4
REMARK    2  A    between atoms: S_2  and  C_12
REMARK    3  A    between atoms: C_22  and  N_23
REMARK                            x       y       z     vdW  Elec       q    Type
REMARK                         _______ _______ _______ _____ _____    ______ ____
ROOT
ATOM      1  C   UNL     1       8.385  13.778  21.251  0.00  0.00    +0.000 A 
ATOM      2  C   UNL     1       9.140  12.668  21.581  0.00  0.00    +0.000 A 
ATOM      3  N   UNL     1      10.108  12.150  20.807  0.00  0.00    +0.000 NA
ATOM      4  C   UNL     1      10.371  12.736  19.632  0.00  0.00    +0.000 A 
ATOM      5  C   UNL     1      11.383  12.185  18.841  0.00  0.00    +0.000 A 
ATOM      6  F   UNL     1      12.042  11.093  19.267  0.00  0.00    +0.000 F 
ATOM      7  C   UNL     1      11.750  12.708  17.608  0.00  0.00    +0.000 A 
ATOM      8  C   UNL     1      11.065  13.801  17.118  0.00  0.00    +0.000 A 
ATOM      9  C   UNL     1      10.017  14.339  17.870  0.00  0.00    +0.000 A 
ATOM     10  C   UNL     1       9.651  13.865  19.165  0.00  0.00    +0.000 A 
ATOM     11  C   UNL     1       8.590  14.417  20.001  0.00  0.00    +0.000 A 
ENDROOT
BRANCH  11  12
ATOM     12  N   UNL     1       7.796  15.452  19.488  0.00  0.00    +0.000 N 
ATOM     13  C   UNL     1       8.175  16.879  19.564  0.00  0.00    +0.000 C 
ATOM     14  C   UNL     1       6.926  17.753  19.754  0.00  0.00    +0.000 C 
ATOM     15  O   UNL     1       5.932  17.509  18.745  0.00  0.00    +0.000 OA
ATOM     16  C   UNL     1       5.565  16.120  18.728  0.00  0.00    +0.000 C 
ATOM     17  C   UNL     1       6.793  15.224  18.423  0.00  0.00    +0.000 C 
ENDBRANCH  11  12
BRANCH   1  19
ATOM     18  O   UNL     1       5.935  14.171  21.995  0.00  0.00    +0.000 OA
ATOM     19  S   UNL     1       7.278  14.340  22.509  0.00  0.00    +0.000 S 
ATOM     20  O   UNL     1       7.746  15.636  22.962  0.00  0.00    +0.000 OA
BRANCH  19  21
ATOM     21  C   UNL     1       7.333  13.310  23.984  0.00  0.00    +0.000 A 
ATOM     22  C   UNL     1       8.201  13.648  25.027  0.00  0.00    +0.000 A 
ATOM     23  C   UNL     1       8.087  12.997  26.257  0.00  0.00    +0.000 A 
ATOM     24  C   UNL     1       7.112  12.012  26.451  0.00  0.00    +0.000 A 
ATOM     25 CL   UNL     1       6.987  11.304  28.021  0.00  0.00    +0.000 Cl
ATOM     26  C   UNL     1       6.260  11.659  25.396  0.00  0.00    +0.000 A 
ATOM     27 CL   UNL     1       5.038  10.449  25.561  0.00  0.00    +0.000 Cl
ATOM     28  C   UNL     1       6.363  12.314  24.164  0.00  0.00    +0.000 A 
ENDBRANCH  19  21
ENDBRANCH   1  19
TORSDOF 3
ENDMDL
